# total energy = -381172.48296580405 ev
CRYSTAL
PRIMVEC
9.17142350945392 0.00000000000000 0.00000000000000

0.00000000000000 9.17142350945392 0.00000000000000

0.00000000000000 0.00000000000000 13.42330536777989

PRIMCOORD
 96 1
Ni 2.253226196769766 3.305747949005387 0.49219270573889745 -0.3398396741080212 0.1592271332268548 -0.8289349720524821
Ni 5.677514796759768 0.9358245574094515 10.175255254951502 -0.6159661263277972 -1.5533319748908734 0.2524476205455975
Ni 7.576733211142288 8.143050280155673 2.1775289343352116 -0.575570753229886 0.8904514433997245 -0.19298597484485475
Ni 7.876216879788449 0.48480970968144177 9.65632326349147 -0.7477107378636672 0.08132450721210509 -2.592029884136233
Ni 3.27078648196064 6.462212634871387 4.866458287009482 -0.09180458080782253 -0.6934038968909865 -0.06293289207879484
Ni 1.8040924080372645 0.08834190425370267 2.31123820293402 3.534089538630552 -2.0211303111297707 0.10617421926593329
Ni 0.45630033919125407 2.235727120400045 5.856963789504841 1.7682456030467548 -0.4020691123618882 -0.9698738484931102
Ni 7.159231662660923 4.001198663346694 11.31296027312755 -0.48468945556728144 -0.3015484918373065 2.8305475248642993
Ni 0.13493090223216667 2.661565493000947 8.184592243686414 -1.2430946970303172 1.5139311044957475 0.1151640814693694
Ni 8.830842855729308 3.7026871656099627 3.913806001443235 1.3279007350331193 1.083910501226256 -0.16125984738616742
Ni 5.539007956437164 1.565442792619805 3.838662692998581 -0.4342824638696392 0.4183956174360536 -0.7120605927602254
Ni 7.662577736729599 1.9924092503325914 4.757836530728144 -0.7792442896955741 -0.07272442424791992 -0.46358172705438877
Ni 4.468537728071803 2.9259776375182738 10.499212867671353 -0.049354639173727906 0.49094083579363185 0.2947430388796989
Ni 1.6957503801779799 9.047398511516445 6.4737915572596325 -0.7302768586579359 -0.08803457224242903 0.26107547142392457
Ni 3.002513168076619 6.097703572377573 10.102446990974213 0.00927422621307435 -0.4571051181911095 -0.26498303400844686
Ni 1.091472788578496 7.692293149432899 4.508969032195639 1.6091755642230545 1.2878447475524981 -0.6405831535455291
Ni 8.395567088168006 6.578432915666515 3.9961314517668867 -2.606793158488336 -0.7517360569729763 -0.08215703041572948
Ni 1.7173399115062415 7.289851078624009 12.017630102545818 -0.8625313199506888 -1.8434375149985607 -0.9047496051899514
Ni 3.7780579253617277 2.0155762665327566 5.7160732961694025 -0.2607466273295961 0.07408993713687885 -1.1749170116128154
Ni 6.99609954977401 2.6925465621712394 9.408354564479003 0.20283252862163134 0.9073729017454115 -1.536422086509412
Ni 7.799048520996607 1.2823117723841337 7.0023746378516645 2.46113887884991 0.08677138925928927 1.9912942016049446
Ni 7.924339339805181 1.6553135731999398 11.440709950623086 -0.5410760618871262 0.057622278499158824 1.4998286036560944
Ni 0.9154410682943019 5.311198963802205 8.745847603974196 0.1566524305211431 0.5372949975781391 0.14422243228790646
Ni 8.100192217327734 8.736909134461655 5.328179854734353 1.2784864462660497 0.22113621202682562 0.38809490956998327
P 3.4868010237510183 4.819087883734004 8.353738976218642 -1.4196654637419421 -0.6837411769902418 2.1183910299561584
Ni 0.07299352673550126 3.5354187406461395 10.501991809044531 -0.31655602098973223 0.04039460176696269 0.5361945654251088
P 3.4998978167572874 1.1552050116881356 9.404354906614834 -0.7185307738656013 0.9289524276884001 -0.2042702895094224
Ni 2.004964929342103 3.416850575390503 9.515969298440954 3.052771313528349 -0.024644023800925303 0.1264486532442532
P 9.196186517777441 8.566504082601371 7.779395994348263 -0.9936408690057208 0.3252895442079881 0.978870909785398
P 7.096508296155408 1.4541659091848855 2.440585542433542 0.59621285496027 -0.2659363990606517 0.7044177315029869
P 2.4540895466509305 1.0468538124051767 0.38076724524046146 -0.30562883255426715 0.589860687489997 -0.26864248513790506
Ni 3.560603470054554 1.7986354109513192 2.873486828405682 -0.7799636843601019 -0.23405549119165495 0.7290013343796219
Ni 1.8228387980266305 4.829607506687919 11.720733692518053 0.020057947092139646 -0.6322095847698531 0.9300711146738756
Ni 1.4025949938667819 4.880435536688441 2.246631943148262 -0.880001194600678 -1.1040622935837823 0.20478065348693766
Ni 0.1152912155769671 0.43060751291130817 0.8850708159406885 -0.36867793849595215 0.018348934820832916 -0.846020209669543
Ni 0.03045462945141296 8.078355057560278 10.229404257464326 2.5920594518225877 -1.1075559085593378 -0.6396860956525563
Ni 6.089284205444971 7.975121512687332 13.215432708629555 -2.6525032589309414 2.071516734002123 0.4653336767484889
Ni 0.2383075213144248 2.535137417656814 12.893608369056244 0.3243230665296608 -0.26317220605195324 -0.016664862250190652
Ni 3.7883574341474704 8.757471466338444 4.240355458493317 -1.3179377102831367 0.08868094757717629 0.7307602260522577
Ni 4.58553757987921 7.442426882862311 8.858119586877729 1.0059744508704096 1.8978744537912025 1.6189750668119796
Ni 5.481383901494315 5.393237348564865 10.75444349994878 -0.6726196131557834 0.7763499988669146 -0.8991438289673999
Ni 1.3300857183012602 2.337401523248435 2.4270008296878234 0.6468877556073181 1.385656453786349 0.4423516140310188
Ni 6.797602427200702 5.940028456576606 12.926347600144814 0.3529145050141083 -0.7527842957318325 -0.6879948100602732
Ni 1.3441363393696106 4.463814444879766 6.286617474354069 1.3928575995204786 0.1852767791260551 0.19893962132512838
Ni 8.466278764693453 2.9378087740575505 1.5910237275309298 0.725508490735015 -0.32850213760801494 0.6076264961138503
Ni 7.733793841557107 5.420476476876224 1.719485107503557 0.5593496633853334 1.5574956193502598 1.5650801165657366
Ni 2.2227128702068404 2.1338876319255253 7.590650846567367 1.4276605661322765 -0.297240865600888 -0.3882491757596604
Ni 4.554547339285244 8.850286273917888 2.046838898409837 1.3860146084567162 0.08649088190439298 -0.6910181702676292
Ni 3.119788162594242 6.715123814101696 7.347837404801976 0.3066053375349236 -1.8341504332696799 -3.280319085508473
Ni 8.001746155612544 8.27889740761286 12.17880411647836 -0.24021071215977344 1.3503189548273196 -0.8487702616108543
Ni 4.198934557755073 4.415297613645057 6.47839561194391 -0.24243060262922764 -0.7905910821669611 -1.7574811654413989
Ni 4.324463833579167 0.6463615862693487 12.169018207418356 0.5704223762597274 -1.2234419557963963 0.0630449921766269
Ni 6.652748961695787 3.7376027755363395 3.0456674678892233 -0.9995109546332528 -0.5620668052061804 -0.025665780197220316
Ni 0.5219649812689754 7.100277751285364 2.2311148114344617 1.6001293948603863 0.5660520151061735 1.1714802180171244
Ni 2.0217211203942416 7.843190583138885 8.72386003285849 -2.8166010899865364 1.0548765758877512 -0.2741647005077149
Ni 3.6612690162988195 4.026181621434283 2.0996195245105223 0.5292335607262434 -0.22249452582693294 1.8501812614802975
P 4.967435661658659 7.713057252630513 11.027043891522126 0.32659489328297303 0.7933768724422142 0.08128336956152452
Ni 3.9762065338354304 6.350733980115642 12.32170865445258 -0.8192239154123052 0.17231070588369035 0.19774740078924008
P 0.9426572680464756 5.435673525903805 4.266128076159226 1.7089947878052372 0.1146899700464283 1.522014138614198
Ni 5.5140891983152915 5.565174028178681 8.023110069918427 1.9188775384054306 -0.5491539537992541 -0.0615673791898359
P 7.697172346827392 4.910123435120719 9.482679781931951 0.338313724381798 0.6022346356743177 -0.33266809606024644
P 5.976200551546302 2.340134607503245 12.38454299518455 -0.7490063167466392 -0.26626061516928984 -1.1414404771219244
P 4.75410834700472 3.7973637721951987 4.3862131948905185 -0.6069631514982385 -0.7714597606541488 -0.9406442622040315
Ni 0.041445663582164415 7.21076589228433 0.19918681363358337 -0.14939934850315562 -1.0002277781946192 -1.0370554885459302
Ni 8.05425255614538 6.587017368225247 8.19444510413924 -0.7866670645222064 0.9719880666226358 0.6143550730869355
Ni 7.11821705599143 1.1117966634397654 0.36922317426217643 -0.6456184019765914 -0.40501945323946376 -0.7633741554325368
Ni 6.772500240605351 3.8035544831750525 0.46678602787757595 -2.3149222989501097 -1.2664765662893671 -1.249784450345667
Ni 7.070461452921651 6.658921329828294 5.84168878337603 -0.8575235823234522 1.4694242803326243 1.9713414126321018
Ni 8.449861916317245 4.627157500511178 7.08233752943693 -1.8421792171114275 -0.5059524787111157 -0.46118134514301223
Ni 0.9133398951306211 0.30277529260270764 12.0589739633252 -0.19859535061183217 0.19576328047967576 -0.10706947738669302
Ni 2.7983481056728654 8.712852490165124 10.557550459376028 1.1313730655835934 0.3465793068246999 1.2088779419392923
Ni 6.9684477073973285 7.396753192966498 10.045491532817186 -1.933416098341238 0.26772151598553245 0.8812432945378952
Ni 8.630318848524077 6.1296292981862734 11.236018448500452 0.36484545212373937 -1.584845215007806 0.03747048614163224
Ni 6.620942464394848 8.695756956437053 7.863117335355076 -0.8950524325068456 -1.304009530237819 -0.20005290899396513
Ni 5.226601751834538 5.75520592670102 3.3737733155367593 -0.08450187649882221 0.5271257703546212 0.5607827962874342
Ni 0.395283774631444 6.750956566395459 6.5371229891547245 1.0336883718459102 0.24194440702142847 -0.6889360909276199
Ni 6.5645748944953155 4.620554075466 5.3842621933576265 -0.03953302509761578 -2.203352876810534 -0.04553577964826997
Ni 2.5035785487950686 3.672815838704207 4.398092022832899 -0.0708889137010779 0.053599273382694795 -0.8978032557791052
Ni 4.564663419597509 1.8888730484784082 0.6889307492515608 0.07310520462610635 0.2951950388154529 0.9955067185698662
Ni 4.802854463831276 2.3396301792011824 8.156349761625135 0.738455023593354 1.0383104439989537 -1.312253515414166
Ni 3.0486729434271465 7.0501834351787505 2.211463201928486 -0.05683474960085696 -1.9670558978828705 1.6133883167528213
Ni 2.447293521708602 2.04936379134725 11.798400976757751 -0.25035345702073014 1.035809531953971 -0.9247126785754397
Ni 4.3144302960799665 3.8446057755392413 12.710823729520987 -0.12986025002896345 -0.5107013062500108 -1.3731464942447964
Ni 0.9139323690999523 0.9970621532798015 9.458934048897964 1.8849016956806182 -0.03522462753024901 0.6475333596111171
Ni 8.843481077551884 4.742047924873597 13.234801838286375 1.526614356390371 0.29423498889502875 -0.4674887754182788
Ni 6.029541551633461 8.416835619667683 4.413220286182929 0.20184419656643302 -1.794137126101536 -0.9973679401483212
Ni 4.780943932674428 5.384258524788157 0.7706013599248991 0.3628248221492848 0.8116738709791893 1.2351795559482985
Ni 6.025396068132877 0.9074866925419649 5.924375587792433 -2.9743120436791806 -0.3642178458420695 1.077080622788616
P 2.163227016258197 5.738523107038271 0.48312583629492145 0.5217393092317272 0.6599774989117408 -1.4619328570515855
Ni 3.7902008903059157 0.2595989813732862 7.320507479396246 1.311476270928509 -1.0557728624497753 0.46624641837074543
P 5.964672071988263 6.835994006699471 1.6637384429867457 0.19269826840110688 1.0571165209618631 0.25265690834292615
Ni 2.9535010799635217 8.130485429722489 0.2880725833111458 0.41724247766821687 0.9568013315798682 -0.7611666062582568
P 5.0230236605459115 7.736847925640502 6.4346625952974845 0.25460143366380666 0.04652462592410052 -0.42818355006075287
P 6.7779022091492545 3.171056420931108 7.1857774313425375 -0.6428817197717186 -0.06530782006887463 -0.4282640255897011
P 1.9385729933670448 0.6968044164755679 4.544983378678144 -0.42363372590654136 1.449723202359271 -1.0346129405427085
Ni 9.102830596201242 0.6905476712452618 3.2158349798763526 -2.186142683579835 0.02447253122006753 2.243556445612614
