# total energy = -340883.40803764557 ev
CRYSTAL
PRIMVEC
9.15639355846434 0.00000000000000 0.00000000000000

0.00000000000000 9.15639355846434 0.00000000000000

0.00000000000000 0.00000000000000 13.40130751525508

PRIMCOORD
 96 1
Ni 8.93671326187017 7.67004526067824 11.850936919137265 -0.0865397328644574 1.520178628067356 1.000878524404741
Ni 4.863088752720175 5.660500745808091 11.622658873945335 -0.007273393732961667 -0.03042514925907663 0.02662043080100577
Ni 1.8413232543404414 3.0919675669885556 8.341362728237812 -0.05350851344110139 -0.9887640005293938 1.5841067941798848
Ni 2.1207580697576858 2.6992773209436196 12.75539081425525 0.6132394714252535 0.7135122376050873 0.2730365004405426
Ni 3.3622459889521905 7.214716127017162 8.25566071679072 0.3757160762896562 -0.8727594254366001 1.7691935687823208
Ni 8.774077401347164 5.235433492511192 6.465742370938186 1.1492126648681757 1.5205696928581875 1.1870639313879943
Ni 5.158950137993195 5.668347774997834 6.906846131729735 0.22687954226850604 0.5332604224974493 1.3123355336050109
Ni 2.992062158016226 6.678178939816028 12.96422342666975 0.49374025291563994 1.1882625796817858 -0.13679888613032568
Ni 1.9199400485331297 6.701463648368555 10.705514217500644 -0.20370336126235886 0.163610349896215 0.05817737967168045
Ni 5.3454567162497595 0.6912637550589142 1.317675522203951 1.0013780897489786 0.512467139901182 0.18177159418627403
Ni 2.986559165550607 1.5688564543413934 6.440386486186452 0.0754896456978829 -0.7788632522070715 -1.0560777952847038
Ni 3.383159191600234 4.6300219137520084 0.9944923745047074 -0.001480441200268418 -0.4030312191648413 -0.13959470370790797
Ni 0.6534368624233641 1.3439754311207526 7.04636759261845 -0.13033641833443357 -1.3758299546142305 -0.8349840064600393
Ni 8.815272015494951 5.374033820218474 2.3875772062745475 -1.9628297756166646 0.8626372494009337 -0.8334577996235001
Ni 5.597486446060352 8.224400789540098 3.491871219796245 -1.0467089524752942 -0.34708170038241515 0.9690932615733439
Ni 1.4131611400562234 8.491904824287289 0.3055003206616335 -0.5475984363866764 0.5857188974074816 -0.2753648914634032
Ni 6.630703039759064 1.7364825492966165 3.9160365683379625 -0.10108214945500657 0.5974099605921648 -0.019080413670218753
Ni 4.0379054182874645 3.487084257298698 7.180635114943484 1.4187234115436471 -0.3182938296164454 0.8197885296665237
Ni 3.9196139712602878 0.6579747710189728 3.5895534564380385 -0.30434148120141136 -2.8098596574976447 -0.839742089970315
Ni 6.987133967727707 5.946995140578068 12.932462644697216 1.5718398038870736 0.9817160925436769 0.19216759270861744
Ni 5.783297138414443 4.162533089584539 0.23142051942520864 -0.8544716828710058 -0.06154552481296498 0.9398369358113877
Ni 0.9150524205405396 5.094754663489941 13.473674170756421 -0.2902562067529388 -1.794487053241787 -1.3906744758262308
Ni 3.7812517097828 8.162778261597309 1.3109922706221615 -0.5268917999669441 0.11766705039688122 0.7808381165452553
Ni 6.380715185688626 2.031446608011182 12.57928498332264 -1.7568787559707097 -0.7899562767964395 0.7169418321119265
P 5.052040088028854 6.333541446615631 9.459982834957026 0.06062327010901172 0.10024782647916929 -0.13403495023194337
P 2.6396875123475314 4.892581496034251 11.975823716369076 -0.6010588701986616 -1.7255606625837183 -1.3921454039448025
P 0.31930816198967615 2.3458680028146666 0.5949696276646882 1.1609497507994457 -1.372208041590927 -0.3292133047424266
P 6.964279609667499 4.459639744367249 7.352426453280754 -0.5859752363926619 -0.941630794487017 0.011327766307993394
P 4.384090341981519 2.57823895588036 0.5766101431508565 -0.7777288814923121 -1.2251607382597158 -1.5535811147872018
P 2.1393547048619657 8.709799519302827 11.565676806204834 -0.17922671627723324 0.7638593225990715 0.6589626844939813
P 2.7550855390433675 4.4885647912872 3.166461237209084 -0.7085662064537217 -0.24209173123257013 -0.7950843420516243
P 7.149092255135146 0.04758577677840681 11.967822859769313 0.061034389504501345 -0.2652380874420464 -1.5530003025830674
Ni 8.059155356882814 3.5016520792833905 12.9762045675038 1.020703529550468 1.5203249238372332 -1.035405611647333
Ni 1.7651420608064132 6.488366903522709 1.6298938887424976 0.8156212856627114 0.5639167139307256 2.259177182869006
Ni 4.711229967292068 2.7187804389998074 2.7676380388289203 0.6859978342349025 1.8450277423038162 -1.2103046470834897
Ni 1.39224793740818 3.193896538914133 5.675052086284566 -0.964904420302977 1.7679365564467682 0.2685620096089569
Ni 0.749446225981183 3.4864982481176674 2.34569769389643 1.0320001855102097 -0.8246962513807862 0.3360339272086858
Ni 7.508819484747089 2.437972164564522 1.6890203838298334 -0.7482372997910985 0.04166266984610889 0.02933448729805916
Ni 1.4666161650383938 8.784039557424691 5.170050433777005 -0.21860778917801704 0.21064713957004366 -0.47298425131521127
Ni 2.505079372186023 1.475836653246178 1.3637971916691256 0.9848752069979491 -0.3083529163536496 0.4244580215800496
Ni 1.1448604990785678 -0.11765416204280554 9.20432625769946 1.076702413513591 0.47703733833866224 0.8257213502111908
Ni 2.874585630006421 1.6716827528254246 10.575145487508157 -1.9183877432532057 -0.9359771957456654 -1.4789324769333756
Ni 6.3697366699377485 7.6612825921431345 6.091363080521777 0.9881273953866595 -1.4459169412393034 -1.3767103003366548
Ni 6.404201334897134 1.911076659670036 8.315229465681865 -0.005765955949499747 0.6407500181406965 0.02394391241010715
Ni 0.8588806936206836 3.3078844810181134 10.931298976755157 -0.09107335906875284 0.2141122153005087 -1.007753140037387
Ni 3.4603018064468913 4.854921249759556 5.301476727213384 -0.5884481234131865 0.6435957151196078 -1.4586179337457394
Ni 5.721720392438921 4.1717169522185085 9.20884219095078 -0.016930457206751487 0.5270080138298344 0.4972958314773823
Ni 7.762607242100774 -0.15026740424587065 4.658816939884917 1.6854658514453618 -0.2643942513845124 0.8443230244727781
Ni 0.252688990139252 0.9111023524046526 11.76205947044046 1.1279434710767544 0.19882752122729627 0.5115412856528029
Ni 6.795298368481142 7.069156940285138 1.7838476569927912 0.217002135253794 -0.05384249974175243 -1.3904806146478697
Ni 7.185379042391799 6.282943216390987 3.9928257463973105 -0.1668820786689513 0.03578744201225449 0.8231343062103049
Ni 8.064539316233535 0.3523480921276794 0.5019635611596531 0.1280807895310375 -0.4052025157845473 0.10825218484088454
Ni 5.537411348611223 1.1235444151185656 6.052472214966918 -0.8429030041968 0.2230956497460416 -0.5991014893619746
Ni 3.9967199605331305 7.8067959969078915 6.1020037253542165 -0.3875459790450487 0.9897685305345082 -0.6934221517234316
Ni 2.2651452381276487 2.25999934500672 3.768259703111474 -0.6614674531937059 0.1301099041459243 -0.4742404923198155
Ni 7.6415322514637 2.002814565681746 10.642835957392654 0.1537082602911546 0.4974498405567433 -0.7031447783278342
P 6.864419982662437 3.8689150207076537 3.174876878432296 -0.778158255720247 0.8064097943667725 -0.7034252856827306
P 4.269507234303054 2.5055646610390645 9.16447030827459 0.1514947975796036 0.6190671338506241 0.5757872401160664
P 9.006137037035433 7.153798641370301 5.0748605674332845 0.0049750846170882055 -0.6632019193863095 0.7987854450522953
P 4.899128317353582 6.368619589936408 0.7876320492401145 0.7097260310897776 -1.0033966628409041 -0.19264273257282308
P 8.906579571014342 6.813995723913412 0.6975807509025593 -0.9105664689820447 0.22478409319205805 -0.9534918075906612
P 2.3940306323806513 8.868360784738977 7.279925214275731 -1.174264722740797 -0.48927244695227345 -0.09043701103633457
P 2.1109698851557774 8.643754453321945 2.6983268873031347 -0.16736673161485371 0.5781241157793592 -0.4356109528730756
P 5.1040209336649935 6.4668127533329125 4.794063280670143 -0.18983585925164725 -0.6880241206363119 0.08962325688578758
Ni 7.471076830931312 6.247910855037479 8.524263518752345 -0.2763568230630273 -0.6977770862580177 -0.48924982124445415
Ni 5.9452188002480675 8.013693863385646 8.315671719485675 -2.882423387797984 -0.6425176515640805 2.0001675928351745
Ni 9.098735644031784 7.878417306502023 2.68220430971002 -0.16326119408691236 -1.1169106103013602 0.6140658239812908
Ni 1.1668449997606833 5.545505600424213 4.164509954931173 0.48245722380265293 0.409864697146907 0.9662658194268778
Ni 3.2178771333691354 7.064093454705292 3.662617813640458 0.03438516234808917 0.12119074727942354 0.5875734341177171
Ni 1.623410246537997 6.7716565605839225 6.709471830083081 -0.0019414399970869788 -0.8011899407287298 -1.221089910624452
Ni 4.791540694273674 5.300187507015116 2.983117277251395 1.2159765006572865 -0.08198348095234267 -0.5833015462152406
Ni 7.730733836488761 -0.04232268182127226 9.278569042739358 0.9166486706203827 0.3045222297536498 0.9394949790909368
Ni 5.765826739704956 4.017843760230607 5.2032048188331785 0.5243528355951743 -0.7808460869650552 -0.4033076127546796
Ni 4.287700988095376 3.335280410231312 11.445695088946122 0.7402794783966026 -0.13377244059917606 0.17016949117097147
Ni 3.9841299195344178 7.871742295674341 10.699014093787927 0.9482575557749153 0.9855997438687993 0.012389889023920598
Ni 4.0847769963764895 0.5443594941285542 8.431794016903691 0.05503189206416329 -0.7711843955055752 -0.21753563915976082
Ni 8.39052523596893 4.255745174942279 4.550950046804675 0.21141564230495205 -1.1622718120449789 -1.734877311998954
Ni 8.915598618566147 8.11072416481354 7.400912303535651 -0.6121493236848684 -0.41916823393602004 -1.4092758929775018
Ni 7.972673220713475 2.8871665146116796 6.32525582617946 -0.2922416126140838 -1.5316678596538782 0.3489750607503861
Ni 4.090600462612985 0.9751833719897364 12.302641036630057 -0.3686694538555199 -0.5989068568526653 2.2632984041262314
Ni 0.38202945714689895 0.9397206601439081 2.3895339275555836 -0.09039715893733463 1.1391128574300124 1.0294391096512527
Ni 5.504704711194931 0.6670350223413191 10.407067066716328 0.6177743831811295 0.01781774490771125 0.18108510964221072
Ni 5.390295574992084 8.115155859245087 12.840610283767337 0.415994978414361 -0.39254188959774333 -0.2705672129644437
Ni 8.17478229341499 3.9608268981949823 9.383983853652724 -0.12285707923825291 -0.3010062461805913 -0.792852367397312
Ni 6.783669748795059 6.946470424400228 10.804871158505103 -0.09821948319523086 1.4249778770937909 -0.9784160816361666
Ni 3.313744572828423 4.926331962304254 9.569311088432466 -0.04407847837645312 -0.6708674063513672 0.0076125222399352765
Ni 0.9905661129917999 5.49443123773998 8.974038384144462 -0.10014729634556299 -0.8886352161265921 -1.7167955147965785
Ni 8.937473242526819 5.5310384987675105 11.145988018422587 -0.8553042060746301 -1.6152713927081472 -0.033631314901200145
P 7.001683476925493 0.1402182624305346 7.1457648217541045 2.4227291687234596 2.3690800159394363 0.15367946393574825
P 2.263890812224504 4.655165370175619 7.083877674040505 -1.0204263646296814 2.53617575328109 0.3862151760487671
P 7.211337417832781 -0.005077220170026279 2.556165638181745 0.5221722830040878 1.3786252579711806 -1.1268106430238916
P 9.389240539134441 1.5478883133326287 4.717755728906456 -0.3170432450387959 0.47834191608269877 0.24721516850206457
P 9.039063427894613 7.242340966066702 9.574764636373434 -0.08897405333756289 -0.022808770364399426 0.8242092844420386
P 0.07900960347184809 1.8644980861715261 8.975995105425497 -1.1034742822907964 0.8928222576247463 2.278646090226895
P 4.178584247308716 2.3130881142507462 4.758482451348763 0.908955415741183 1.3659903428159892 2.748504908539247
P 6.735140863490929 4.222132054574081 11.355771980116915 -0.011914234939082707 -0.2862889945750747 -0.11987074291641936
