# total energy = -340868.9621979095 ev
CRYSTAL
PRIMVEC
9.25838863897074 0.00000000000000 0.00000000000000

0.00000000000000 9.25838863897074 0.00000000000000

0.00000000000000 0.00000000000000 13.55058762539975

PRIMCOORD
 96 1
Ni 6.727580341919056 2.9089394238595325 7.056224438212121 -0.680492588145957 -1.1427522539548125 0.12179084275726768
Ni 7.2880091240609275 6.982843375561321 1.0485254770676984 0.49092180963023846 0.3723692713046103 0.011313111019974065
Ni 0.7676676279851513 4.985336764580503 9.296597100424444 -0.1601740705211564 -1.0921835398683255 1.6826147551498118
Ni 2.595542967844494 7.707497455688266 6.319248368622534 0.46707097115456975 0.5564450881440288 -0.8574017120336073
Ni 0.08863425796201992 5.292030147208396 1.4571222402797903 0.18550586441772568 0.11522938748966606 -1.4044658731833684
Ni 5.002214807100899 5.659291908425666 9.891183781674792 0.0016874150047519324 -0.8625133222285597 -1.8685271109773367
Ni 0.8980599963035858 7.10073043832172 4.702135617329051 0.00020620247353512873 -0.50847653068455 -0.9010497877408611
Ni 0.687175197007463 0.5493705627308118 2.34931982488622 0.44363690850134563 -1.5503440959071428 1.9678945917340815
Ni -0.14604460018073945 2.6388629683672225 6.198038470173397 0.3196837679854365 0.22285396604888072 0.10940969548409545
Ni 8.70939398412748 3.2206045611958474 1.9842800769464577 -1.5190411720288033 -1.9888010028694458 -1.598149131205564
Ni 0.8414310620874561 2.468249382209316 9.573760852433137 1.2272613295424863 0.7642694135532967 -0.4434281349246492
Ni 2.100895037105484 6.697407253288244 8.399494421507919 -0.7750333369380201 -0.33249197549369836 -0.996372151893955
Ni 4.850766085461489 4.3626638355024685 2.2000458987421707 -0.4508761065622622 1.2060181038929938 -3.3265364646048
Ni 2.99597753561721 6.240292830161788 13.299237382961124 -1.3678785609776378 0.45734911588111554 0.19591806088998515
Ni 4.484328320834629 4.398503057990924 6.623473464834663 0.4405590409069703 0.39890845524571944 1.6066525406908847
Ni 0.9964248207433547 0.254900104806938 5.0076735530526415 -0.2179994661700568 0.9181262836071736 -0.0012590692180817027
Ni 4.590281320617084 6.533904109618359 7.670879602713818 -0.5178880538064371 0.5803517195582973 -0.2877961752482205
Ni 7.168150024516741 4.17346866331141 5.320408034278755 -0.3699303228458145 0.8453810334236473 -1.0578965936609974
Ni 7.83813331962836 3.387690701275712 9.071915450352737 0.8611077001302848 -0.5837831138373494 0.7434627612205905
Ni 0.3267303873578118 7.272492064673004 2.4280485328248873 1.2265391066644813 -0.2969793844093853 -1.692874742314923
Ni 0.9573451622252017 5.439562570446199 12.296019682460658 1.0197931019210567 0.10509204194534805 -0.5954628641681229
Ni 3.156379119087241 4.147304456968766 8.908318796957424 -0.4590948949276286 0.17589919456589706 0.6091550169432347
Ni 2.8320299892918244 0.24415204141586386 11.342072348872309 -0.6937093439465473 0.36091680649329455 0.460747085819071
Ni 1.5204033267454562 5.413981642588901 6.081557756649887 1.4630690275385576 -1.383362772656166 0.20075173483320263
P 1.4417255399443984 3.7245201389797926 7.55008910927081 -0.361317641476139 -0.6568690351897462 0.2921086865806453
P 6.277178250568403 8.168907771151234 2.6260363967228137 -0.8981213012401565 -0.550799202712161 0.004997453214591393
P 6.7214698054059125 1.8225786157090853 10.398395345820372 0.6180806015676388 0.7478205239686541 1.2713866019964748
P 8.03160586737862 6.144588866621834 4.820187479407532 0.8548475781531858 -0.5512429751177991 -0.6251832740506911
P 6.239107756413785 7.285472325569107 10.274326456954176 0.6831410815123977 2.3044589375249407 0.7998593948427645
P 4.911973292868149 2.1619170767390177 1.2847680770545031 0.09398230518543169 0.6298811937469926 -1.3737864418216406
P 2.2278923543036604 8.521504244736958 3.548831104160514 -0.4387019330935735 -0.1241958526543345 -0.12750511953322557
P 7.019210326203184 5.0589687295638885 2.0804756609240607 0.7959302349916872 -1.54096882533983 -0.44116016482607895
Ni 8.989932418801386 7.235689969764295 9.499626156945714 1.1791418483274403 1.109362108530141 -0.29130933060780156
Ni 5.082762788410525 2.2150509692374016 12.279136084907067 -0.2757806388445831 1.0820875890849042 0.9880746877718531
Ni 6.1551804632446165 6.4980000784093095 5.881672848916289 0.08271007470572206 0.03125561558017198 2.089729143245091
Ni 3.7407130607396244 8.06417687867141 9.443445328740548 1.315562525182741 1.0216862051787114 -0.10490769384868384
Ni 2.6095694266587564 2.9998197669095656 5.764609782746299 -0.8219629116100231 0.23264164156326386 -1.1753978079039757
Ni 4.712001356281181 6.736283227255958 11.925804495262035 1.3639812828057607 1.5178124418280248 -0.7887949094984867
Ni 1.6136353005141841 1.1590021255476113 7.265283483265225 0.807646494987351 -0.3603588771072955 0.08833384865040271
Ni 8.3581862688402 1.8757032498188133 3.979902605835723 0.41951044776678714 -0.6669066219314063 0.4913313863638312
Ni 5.646793083739689 9.001227652962047 6.31046771282092 -1.7638963249391237 -0.4972600931434404 0.5664685338183019
Ni 2.3813779214474518 7.799748040259428 1.4544789703184227 -0.015430218512141169 0.08074652322144803 1.4408603526520025
Ni 4.188254309995488 7.844466057469255 3.946134484889677 0.9630349711944058 -0.06270457811807266 0.4719645518014453
Ni 7.323265068064037 1.181064865715524 13.093811329616743 -1.1316178346045478 1.2341639701995908 -1.572078659370757
Ni 6.606582460570149 0.36205021424264994 4.229409699250378 -2.911367324525844 1.4296197467411764 0.6301200492306761
Ni 6.842912089410322 4.089615437251493 -0.01348576891673577 -0.6390039819838672 -0.3680145938803404 1.3782213376645425
Ni 8.78269264711924 1.2624368436155586 8.23934003701501 -2.3142836369248463 -1.2663606095367934 -1.1176364327237913
Ni 9.39791257332897 3.3182805615195896 13.066384279061381 -1.896200665633205 -0.520195104673059 2.011069070239027
Ni 7.63488391345707 9.045816052730686 9.965427726148357 -0.5644646160143956 1.0601733055103162 0.9003265364215913
Ni 7.399646774478337 0.5929396139083944 1.7768745801073647 -1.1242166570444703 0.16277525558942935 1.1166367878146832
Ni 8.375888307951005 7.966186093133353 5.9069315848483495 -0.7976397614836263 0.7057431351826298 1.9480310200409352
Ni 5.066023621719972 0.49112233633869906 10.757554165285665 0.8055333052990901 -1.403414034880086 -0.5606694106380214
Ni 3.650915949162376 0.8898422505322727 4.83835891882321 -0.008644305938559306 -0.773387573804481 1.0840994773086103
Ni 4.7368416130459785 4.41729758696317 4.377408745276458 -0.6495010248604492 -1.9008998708810874 0.6754473124125658
Ni 9.27699801747797 1.0184690441339548 11.533881164181034 -0.2153124062561969 0.7810533178798549 0.6485995960921024
Ni 6.2618000670103235 2.7774980801063416 3.1008352680216276 0.8938365578218734 -0.6602222679326951 0.031295467679171914
P 3.6315751752594094 6.0414504169908865 5.153640382768668 -0.4522868708668598 0.3730341585821188 1.0350454000944367
P 3.5579524686646797 -0.01014163893408785 7.46472028498786 0.9431454313593306 0.010669306788388077 0.6660180486788658
P 3.6363987957493307 8.227559663288762 13.34277588145614 0.21483855194357193 2.756306406861537 -0.9516017896568
P 7.5234406892014425 0.7324190906929665 6.284234068563353 0.8833251167675884 1.2973552581460945 0.3697557449411632
P 1.3401332412190505 2.273045515780333 3.9463242818571307 0.2676500393176487 0.7024577795631386 -0.01044819191651749
P 2.320170714040792 5.3919374191983005 1.6699337102552845 -0.36377947275307027 0.03625563989792466 0.7211669259368676
P 0.7068585312907119 0.15827956079001196 9.753672638318545 0.5429802208883745 -0.3203795085008805 0.2756518265762027
P -0.16367164634342876 1.3027478678249969 0.6496981655657119 0.35680766942092745 1.9397361270219948 -1.5302771499539387
Ni 7.46047438795009 5.575994185685125 9.746477018654884 0.6291872530037615 0.38908761250055574 0.26066383780780267
Ni 3.907604774657707 2.146409275739751 7.6147663607458425 0.6363801712077749 -0.5117197202121961 0.07097118900223906
Ni 3.828621461030992 2.4542599569496786 3.1266763566001674 -1.0871927715219534 -0.08132116477799543 0.40202103273277223
Ni 2.1982284770489433 4.8961229314886 3.811170324252772 0.5250825146723473 -0.4101883990349129 -0.6201156297197966
Ni 1.1073310584569191 7.782684829965906 11.430069629694778 0.453215039108084 -0.7873993147025407 -0.6108984819969028
Ni 4.555645688653945 0.15949518722058134 1.8864994568309 -0.3770952160253699 -0.3814848604526333 0.07909150411652831
Ni 9.063518091841491 5.917684277433752 7.4593004242684735 -2.110486687507417 0.5550762328209601 -0.6490695937499853
Ni 4.737785968688919 6.903202716340009 1.5614744646635748 0.18351017414393558 -0.4131695931504239 -0.46440782250010987
Ni 7.921236616207119 8.350686974028614 12.292862571928866 -0.10949454188841788 -0.7211635835027579 -0.004883810454862557
Ni 1.776721816694536 2.471137999470075 1.7044063945780734 -0.24086428658337228 1.315737360197708 0.42884406646288725
Ni 1.7142832435965913 2.785006633306584 11.66782875374348 2.5318431873440077 -0.32500800841182736 -0.7223357494339883
Ni 3.6652109012476703 4.524889321537787 11.486385630374325 -0.5676250160202482 -0.9527485016667335 -0.7391319950557207
Ni 6.832061257905163 7.7986092584547055 8.14813102116768 0.045695445154585825 -0.8828600042057118 -0.43520934655928273
Ni 6.322488804652231 4.089708021138056 11.200996725883396 0.8201649391693359 -0.8125241347946264 1.1779406289304875
Ni 2.958573645445844 1.4766204067899134 -0.03392458771433696 1.2433376662790587 -0.2886235562455223 0.011360162207825597
Ni 5.42411031977887 3.308364827268715 9.205496407724393 -0.8460047830505752 0.06373790447859345 -0.4891598326338092
Ni 2.676294633704558 4.010641382013435 0.006869724382958906 -0.16785575543613027 -1.6618854930222604 1.1166691837145155
Ni 5.737238282522877 8.487627800643633 13.274941519449316 0.506842594625553 1.0135108684567706 0.35564758767455523
Ni 6.183011179545391 1.0868144691946051 8.458886984737948 -0.327164649743514 -0.9677580877016883 -0.8339959315151572
Ni 1.170084416769177 9.092996801323084 13.36777630834469 0.5761387099182143 0.49576473954483646 0.1779499064473387
Ni 8.27630507956407 8.431892300932835 3.6165571430200596 0.03718046570503919 -0.3510676816133567 0.2302939672666937
Ni 5.965846415223713 6.1019262116937005 3.7174004381031143 1.3166619288945067 1.4279734693870052 -2.3266262176505994
Ni 9.055574394374403 4.104919553700322 3.9593323179192024 1.2410774094899724 1.6317506213100927 1.2816013377459476
Ni 7.9726299316381235 5.887631547855471 12.424032644894428 -0.9204328202531632 -0.25390672158962724 -1.020675761636326
P 3.6304456518433432 2.3018946548332972 10.448099005321605 -0.25339172962642165 0.42817326564810776 0.07294656756105501
P 5.050451012000112 2.5174947514720634 5.561553876897926 -0.47647246697412776 -0.2858925304676044 -0.5966003202066757
P 8.832669429085835 4.016992636631642 11.119002584265658 -0.1890239048733132 0.574126821694508 -0.857197309332285
P 2.912837205483826 6.31607274131343 10.293351519803963 -1.0123572144683015 -1.2004092423466488 1.2266905446406808
P 0.5715656978565091 8.2217916871559 7.559940960639956 0.29329730757210776 -0.5602708896480222 -0.5226224831676289
P 4.759663541083706 5.0457570089513775 13.328669800499435 1.5179553951637923 -1.4005377417735558 0.3993612265124219
P 6.565780741761927 5.045127438522751 7.856765826799122 -0.9158606275014486 0.3239790529266808 -0.9017437284840921
P 0.0905988880348823 7.258502639413367 13.535777177223794 -0.333328869572697 -1.3294169145673298 0.49828853440795473
