# total energy = -340865.49715539115 ev
CRYSTAL
PRIMVEC
9.31076616819435 0.00000000000000 0.00000000000000

0.00000000000000 9.31076616819435 0.00000000000000

0.00000000000000 0.00000000000000 13.62724743382231

PRIMCOORD
 96 1
Ni 6.416281679830999 6.773042303993647 9.940300501096928 0.9179385930763997 0.27673271834520724 -0.4427123398045473
Ni 3.946452002947923 4.160329610736638 1.1362346840665134 0.8349125297921556 0.9614282888289184 -0.8132093337871091
Ni 4.939696596830501 7.543834074521214 7.7818256353991275 -1.3421842415353271 -1.2381301539361902 0.11698390828692755
Ni 4.632134060672536 6.591724445211817 11.391684133529244 -1.06727520666242 -0.41852083016000824 0.7596964494706335
Ni 2.2063443073818427 1.7412342982626299 13.602159627823971 -1.1590959854201588 -1.3454500567707925 0.14889078429785324
Ni 9.093760061990464 7.325636271268046 7.449607259565689 -2.0403192253533957 -0.41596772472085136 2.2727649488557695
Ni 7.0899900923674934 5.214029008823305 11.845307450526697 0.7467812840708623 0.38164426884863306 0.6194623124065138
Ni 8.575802144560392 8.274496443213014 0.0531626122046059 0.5611934014622916 0.5613440681075429 0.528925028346889
Ni 6.1064193844495005 8.92908985297252 1.0626973224333218 0.5588678386529085 -0.27276961993240123 1.0470539945195385
Ni 3.2677250874904367 1.1913218316213405 11.626290299857857 1.2412039077655075 0.26074302778517033 -0.47331155274764297
Ni 2.502538398147355 7.110697236145392 9.838722836315572 0.6143931254137225 -0.18781497216687654 -0.5322098697457479
Ni 5.035662662891111 2.4859559237460798 8.40756218782462 0.6646975300952295 2.8807156610782583 0.27079835513864325
Ni 5.881331614291815 4.486308842215053 9.859354562888164 -1.1362306507862108 -0.7924924129547319 0.03938312978331282
Ni 5.030467255414463 1.7277988627988226 4.789622875807435 -0.1742223210841064 -0.2504853546129041 0.35532877088255577
Ni 6.753526938274908 8.734932447756462 8.30584858585839 1.8371794499039908 0.46353441875622103 0.10173443832702479
Ni 5.899860038805313 8.510338148201397 5.809472983784143 0.6977475185716628 1.1359372879155083 -0.28996978586077155
Ni 6.333471726251581 3.771800652684517 5.303356498663753 0.7654238388727141 0.07531583912417997 0.09714630473571012
Ni 2.3532402639393526 4.980840872169769 10.992568834435994 -0.05583639024332964 0.9228848813380816 -0.08084113981778335
Ni 5.582446712127107 9.100314841315841 3.343104118655673 -0.016023629121765953 -0.9358743516192142 1.3816308775667239
Ni 8.045609880491758 8.717670287430822 3.0233407546170623 0.031480587106784495 -3.0736031626720357 -0.03440984493843751
Ni 6.461159572371229 7.425913222027022 12.929614129971766 -0.27105366568255895 -1.463389386992454 0.3137481192272919
Ni 4.194369771551384 0.9565136216686352 7.069679587224909 0.2530348605076352 -1.5769326450289487 -2.080758307205049
Ni 3.961777523927429 6.967162466145356 1.7760798403439175 -0.3811827558311822 -0.2261087255407525 1.2627399820650704
Ni 8.431969430045566 0.3929934703909258 6.6952024373515675 -0.9324545273043877 1.4225857227125307 -0.011988796930759998
P 8.229497510713653 3.9730249293607476 4.056286455095394 0.04267902692576521 0.8291447740704431 -0.3819103780258261
P 9.406015224256368 4.454223942278616 11.967040130656983 -0.2538637841668338 -1.313901849650866 0.24209790188015723
P 7.841182700281537 7.7434755209626225 11.402245335501938 -0.617709334271149 -0.44792165191962857 0.27124855530218445
P 4.03617985573012 7.431294844825414 3.9878364960522408 0.9198298965618417 -0.5060023581124448 0.21701704765212945
P 3.7905990894145423 3.1161830586554222 10.261902741437758 -0.7543580679768556 1.2796529557703251 -1.3709314888713486
P 7.408893141619649 1.148855427497692 1.9651852238810692 -1.061202775216095 0.7798785808454634 -0.6008143582880233
P 0.906245726640535 0.024287133338420697 12.627866167235249 0.9568388696860232 0.9567241984850297 -0.44223694283002546
P 6.595281157857121 6.549658404029917 1.8531012906469337 -0.3250455465179822 0.6828775434383658 -0.39027263394759243
Ni 2.7682211084451644 2.9380122388110603 6.685159845049929 0.11811056569220302 -0.39844359979415894 0.3417949980621791
Ni 2.204128345053093 6.423153025203342 7.486196708135107 -0.29016827502482284 -0.24537194464573872 0.16970797815352065
Ni 1.6779210888697753 3.9478299963288266 8.736114915049534 0.748882389574265 0.14206939050064565 0.2849232245757996
Ni 1.1383808156496096 7.750207204843657 5.848188080251265 1.577733286553373 0.8803081843181355 -1.5674918113310232
Ni 7.281279781628698 3.394146669422227 8.089951472905366 -0.6513547902397363 -1.3393593704920224 -1.9819171312654191
Ni 3.7908132370345475 5.170333583576148 8.777119528897494 0.5344647272181957 -0.21001901906774156 0.8755135911429697
Ni 9.04165701496658 6.278584760167629 3.9259692486327262 1.2427560827439759 -0.09679560626451073 -0.6185601123072185
Ni 2.2792569166105845 5.93469161473747 -0.05392516394714631 0.42533219665488686 0.5707275662049719 0.46034265129180074
Ni 3.648842675737159 3.481295439998274 12.339881378928807 -0.29732545489489437 -0.2807896620234003 1.4048577093051482
Ni 1.2812265889591938 3.8008409321104453 0.27391715182531484 -0.6168210181289248 0.585055809902186 -1.5571793736614215
Ni 4.775771249099531 0.38630834034032735 9.170415599186253 -1.2103624969046185 -0.9527544152040043 -0.009426178409906347
Ni 8.46327222563068 0.5508761309313129 11.460487901683711 1.2101274980756773 0.03902368956136505 -1.9607153003768234
Ni 3.8302536421798608 0.35225048907001527 1.9786895590139213 -0.9036224335640438 -0.006001211888757406 -0.8394844654335542
Ni 6.126335113109988 8.98507548945476 10.688927061877344 0.7301763285243295 -0.9042621240305716 0.2715259773332872
Ni 9.102744951264597 4.114613749248562 2.0175955261858305 -0.13372281830816327 -0.7822841049631624 1.4420705709100197
Ni 8.774670797416565 1.4800207556866691 13.673579721248936 -0.378946924522128 0.9889136387333808 -0.8689498218825228
Ni 1.7161883374881033 2.9968097266516303 4.235607154551524 -0.32173962207320067 0.48114287586660365 1.0236515564351985
Ni 1.4880652575859967 2.786013982437774 11.161968912626229 0.48867492257759065 0.16217875965601103 2.060129060990471
Ni 0.2831078090299746 2.2647786753450125 9.489947125149294 -2.5510770958729547 -1.0833284034705408 -1.4030754205937448
Ni 3.418438458143692 9.201727705537454 5.106606976169022 -0.21656504771637541 0.12322654676252973 -0.14297030504836025
Ni 6.547656589321173 0.6290567716121835 12.598784920438536 -0.6061609673119174 0.165909687453353 1.8360484216233413
Ni 6.808255621335379 6.751152692922677 4.1106594668913345 -0.024177882797784166 1.1867847095846786 -1.2905624035939773
Ni 0.5463185109316361 0.5852747562404159 4.666718901303383 -0.2758837400813507 0.2781486248561274 0.5055431590878391
Ni 0.4539994719473759 0.027817775838681044 8.572683037921184 1.0027070929730473 1.6031859222985227 -1.6794250445679206
P 4.817064496696194 4.439941227100874 7.076289300070201 0.3111106816044448 -0.5544270292727355 -0.2855444030995663
P 4.670810982998701 3.198853350743533 3.2519656848112684 -2.487618156087361 -0.6084705892817004 -0.1000958742823373
P 1.6201477852987956 4.688082454090428 6.098738002427574 0.6096134446368919 0.38515948109074316 -0.986536910971088
P 8.296544337307468 8.089342548803264 5.395790060070884 -0.6228821367213402 -1.4326251092264037 -1.5670423824984303
P 2.1002481278183756 0.8957860120181919 3.276263059992385 0.9584699775315428 1.8819577825609461 0.10152926429475419
P 6.578838344947153 1.7238231656795948 6.443426287281577 -0.7064113648942479 -0.08597409016897452 0.21050675733743743
P 0.27491433487325234 7.362376554248075 2.0876394883831106 0.4475490990715583 0.6978261943283982 -0.9118417361500426
P 3.805645287411432 8.632914383739182 10.788745922944832 0.8895775254352034 -1.6620842392966277 0.3750663585207992
Ni 7.514309635258751 1.1781564083740617 4.293713783548425 -0.7975418024531812 1.725617483963583 1.374465470166536
Ni 5.021175110859452 5.241421282651801 2.966747125109329 1.0541628376501782 1.1640407310199437 0.8374373530965383
Ni 5.501396493338166 2.0812448542344324 11.055717243269106 0.6494897120065395 0.29503768730198215 -0.8091922422079161
Ni 9.044506109389259 3.3343808619085906 5.936478350749601 -0.663143041123916 -1.925104750262065 -1.5323268333941158
Ni 9.252750703695225 4.823879977472013 7.5017996899440105 0.7947583261707732 1.2864612369414101 3.2744286881659668
Ni 2.795920637554538 1.6268329153493941 9.045725819746679 -0.989552043648328 0.3965132155406655 -0.548447671760849
Ni 6.6322169669249815 3.057190044727021 2.695373674579033 1.7387234252179218 0.4166292695642503 0.5669022789216108
Ni 8.6138645563248 5.93224288325654 0.6166222435027486 0.8710825519548095 1.0408355244136527 -0.2465263699651561
Ni 0.17243725008787386 7.804144472786716 10.06999109300193 -1.8634216714299714 -0.31290299761817725 -0.7130075300545269
Ni 2.5210482011286777 2.6473859861656837 2.030950889061288 -0.25564530154728876 -0.48817252901987535 1.0918235854257454
Ni 8.20357633792693 4.43327471858245 9.780439302763014 2.036096702631616 0.73130067193676 1.5332058935649595
Ni 5.282006912025839 6.141325446510355 5.5601753596465615 -0.6290278446077618 0.8821984593623129 1.4258008872157186
Ni 8.000676123355007 5.688552202456661 5.975439251441425 -2.084153191819211 0.3042286097726309 -1.1538979861589869
Ni 0.18039516186259044 0.9347078074924491 2.0871627771594468 2.6697160232648023 0.328984219450756 0.8547503904536893
Ni 7.626457812778888 2.7764238933679737 11.910295666738637 0.5698230521128316 0.9662200537906069 -0.01970364907651445
Ni 1.9931743178157544 8.580392352241374 0.6294347887153231 -0.5647453804796081 -1.2404341194790185 1.1521066985865192
Ni 3.976367494386047 4.432036386692855 5.0447248315237685 -1.5941970885363512 -1.9772042991707819 -0.27625089361278227
Ni 1.9417602674823218 8.160895786183277 3.5933691313897134 -0.8006278975776727 -1.6616579503924866 -1.733426952705673
Ni 0.3175893001572536 6.585253462781224 11.972995296646346 0.5809602996765736 -0.7079897651249614 1.1434284540862307
Ni 1.7211882188769214 -0.005402106483784431 10.527021219310685 -0.9131357723711175 0.9298340589624051 1.0234574381465211
Ni 6.11167996728876 2.3393486009372726 0.4443963478050538 -0.4965859498945513 -0.04227767772228848 -0.03135331750030084
Ni 6.854800141005214 4.5570985967759166 0.8873998050034649 -1.5209774698195675 0.06473472117422399 -0.606184364350685
Ni 2.174305961275841 5.7942293975462045 4.129328483972748 0.31399777334425283 -0.09555633454077092 0.24087174278254003
Ni 4.296704401615629 8.045600569725671 13.540046576179755 -1.1291614026442554 1.3550292158187953 -2.2134516558074333
P 0.6288854535161793 5.879022544302194 9.539032552884322 1.0269880770075992 -1.709238014164295 -0.9297733809277987
P 4.266556141025325 1.1372355914208858 -0.10591834393120184 1.5227885548863775 -0.6909806321614744 0.8091565038739742
P 1.9298424868907256 4.903114596873953 2.117905995702721 0.5155264955527961 -0.5242937002224648 -0.5647947456603046
P 2.668279345265326 8.704188298136579 7.744391700345602 -0.05211754663084572 -0.4037917514799498 -0.2516220393205086
P 6.993428137277303 6.13135361603098 7.98782912830791 0.20169712946560744 0.39612240786015007 -0.7093830459280621
P 5.276737018420492 4.71909661592684 12.849485677025456 0.3126978235859066 0.636468102935891 0.3300725674189283
P 0.7530845555829592 1.9998966909307017 7.297867842489627 0.8803475221965031 -0.1426895405831478 0.7796083579032121
P 7.54090118320375 1.2980604540448233 9.46435462240545 -0.44141290426683333 0.06763286865762545 0.20835962908744762
