# total energy = -381173.586218165 ev
CRYSTAL
PRIMVEC
9.19479932254919 0.00000000000000 0.00000000000000
0.00000000000000 9.19479932254919 0.00000000000000
0.00000000000000 0.00000000000000 13.45751823311158
PRIMCOORD
 96 1
Ni 7.818889293526959 0.27867872709793867 6.570162028397708 -1.3188435099268578 -0.6885895062214785 1.370670007679846
Ni 0.00601247907831657 1.50753327310811 3.0925649097451866 0.13707013751384134 -0.3416332756733342 0.8453900322847117
Ni 6.429490798210883 5.078223134425285 12.680185051583875 -0.8138310265315081 1.2338544093789718 -0.3172234793704021
Ni 6.7528442953008945 5.832527666721933 1.5826042096961443 -0.474225322811164 -0.5366810181432241 0.7119289522783675
Ni 3.230638609209234 7.902515990601876 2.5090868704970357 -0.51634642035093 1.8509448791191991 0.3464741487054033
Ni 5.015091644363009 0.062270856874126215 8.569074555863237 1.497012731473854 0.41540953822453613 -0.6869825667456749
Ni 4.656338171051069 8.391191974047803 10.528367613837164 -1.0604561268580575 -0.8413302603930415 1.4217372586693062
Ni 0.5200587519765912 5.997224906744575 6.200403300140308 -0.5359672799056512 0.9738048081164004 0.6803128680349833
Ni 5.868902291639841 8.24234656753337 1.1914280360845257 1.4750611669034273 1.5109185429216687 -1.3526206063773027
Ni 6.315190251609639 5.35771744019618 7.530180879659441 1.8017915573230001 0.29660091802404404 0.9821472665438248
Ni 1.3442060581392505 7.294647827476768 0.1621456832949588 2.462856375761649 -0.13422341209366562 0.7727149732174886
Ni 0.09073059879675269 3.6373797385996793 10.471254119732617 -0.12379630322307067 0.8751382100814218 0.4750079666134594
Ni 1.3152424412304002 6.1220718878202485 8.65771885476265 -0.7129699919483722 -0.12700144042392966 -0.12405624175267667
Ni 2.0903180245102524 3.853981619082786 9.343298700753957 -0.0749671975355096 -0.23513226919560148 0.5017505248146261
Ni 0.7331233932772107 8.319058775746237 9.655418911882846 -1.9806984283669693 -0.5904934359779895 1.5595962106330301
Ni 3.806315780969935 8.413323855285771 4.732564893875752 0.2986760553855179 -0.30207891041947976 0.04308680388714515
Ni 1.3601774240347024 4.2009565548517935 7.056812397619818 -0.14404348350788093 -2.174242332597823 0.20863885089076326
Ni 4.499309393410007 1.1792237793470282 1.2535048826993576 0.8750901304523057 0.02949363858374275 1.1757428499482203
Ni 2.202393429748975 8.60681920583493 11.621562095125691 -0.7666865076352215 -0.026691907468889515 -0.1505766566407084
Ni 5.280646634821582 0.06678642267220126 12.635061575399689 -0.3157990882190497 0.12121028766344931 -0.7248459174503518
Ni 4.74560127992444 4.126561435991632 1.59903531554253 -0.21646014670739494 -0.5000461405290098 -1.0991481441116167
Ni 7.671579418448645 6.759363407805141 5.6474611884332 -1.013479758108519 0.2068143960875148 0.39162169177631906
Ni 3.561688153077884 4.430164504789514 3.589792975758389 0.060826387258753306 1.5872016310551245 1.9300880624092696
Ni 8.390465584925327 1.0761960563426893 11.002947050907547 -1.2675353465711847 0.13919695404885704 -0.20963335359354862
P 2.8929320308510587 5.274541288273177 5.714882971717593 0.27332292133270997 0.5219041169443657 -0.4389875826547924
Ni 8.255550298924197 2.301246713998832 7.599810334188218 2.2569547212963905 1.9920436781764594 -0.5059113410605351
P 9.032271751228393 6.059703566076523 10.380200783490308 -0.40316568786017665 0.14301041425767627 -0.32769506832568723
Ni 3.479201611081282 2.351882472194717 3.176714790884268 0.1550490905897652 -2.5082522873979443 0.007366210557084089
P 1.5929897351877462 1.5597505367352087 7.326259546503 0.06389834131585768 0.11544510304489797 -0.24965668806402164
P 2.4285670960105303 3.4511298896772433 11.391062275925847 0.46985881831235204 -0.9047935710540095 0.5094008422710324
P 5.935858818093887 8.029551333843996 7.114209091534141 0.8517650825731202 -1.1446584698385898 0.4462131538689541
Ni 8.367515366574695 7.390356490462236 7.992191026471285 -1.8668268404567785 -1.1609448657034394 0.4197498174711029
Ni 8.974197400626393 8.743499893247646 5.016047903460952 1.2045695443719255 -0.20344959338033994 -2.5736734931162317
Ni 4.429171466495497 5.704407337195608 10.85214223272223 -0.10115156924036127 0.6458832256022037 -1.082200717624001
Ni 5.236097833576065 6.233163449563971 5.7191622311808885 -1.145142351453544 0.6664001146086329 -1.1052498861339803
Ni 6.901956350986871 1.9576002954745872 2.3109380321645236 -0.6608313622716039 -1.969696163719195 -1.0471280422905838
Ni 6.068346677154086 1.919221204370606 7.5284044444890315 -0.9535226608285965 -0.9510271481002524 -0.8856421949365392
Ni 4.444067040905762 6.603474785242396 1.3196660590382885 -0.7207866597793134 -3.1894483293688296 -1.1332268309628806
Ni 8.896345037335207 8.289497496901172 12.156256208700318 0.20912376094698176 0.13842870842426483 -0.4479067395212931
Ni 1.097003886521968 1.7129542779844986 12.07473052320117 -0.18692459914212323 0.0999511211743569 -0.00582200599841578
Ni 5.6232448462576965 6.747244662698517 9.132028884221786 -0.43993940504510043 0.6025156572498462 -1.0474453164206863
Ni 7.20543069259849 1.940461190103763 5.135577532264121 0.15236228778622146 0.6834020484832682 -0.739338711749888
Ni 2.6750336837063178 0.02088874441064319 8.992622858379931 -0.1843403833547148 -2.4062676807333268 0.7130895482453719
Ni 8.368949755221609 7.450747930416943 0.8738074961826623 -1.248437192289153 -0.645705562373759 0.30687478914622635
Ni 1.0240063771126466 4.120033128688368 13.067680547148315 1.6235261765177718 -0.8333307871273326 0.6006022422772173
Ni 4.046143723774234 4.388456896440769 12.724096653257398 -1.5242003476322397 1.7453195903782006 0.28539193668210205
Ni 1.9942783487601123 5.916145168997831 3.093372213099027 -0.4772641096374876 1.9708757858495929 -1.948336724206812
Ni 0.8971310233734526 1.6532340583581548 9.438632215939464 0.45085348085444293 -0.3052583365887259 -0.6798438988183646
Ni 2.942436828767646 2.433532287480619 13.400350214604057 0.11266831163070919 -0.7017219298383786 0.4389983812880698
Ni 6.1174377091148315 8.52173053571604 5.074574638174671 1.6019152831162153 0.9879314773257696 0.7060408689287067
Ni 2.8889414880769504 2.9591805577806674 5.727048610299212 0.7359865074482034 -0.654573297177034 -0.2956118146378973
Ni 1.175205652175864 4.41378856773724 4.426514169579097 -0.8770027740939863 -1.5165559437131042 0.9352174347615053
Ni 4.889692975346215 3.2934115021097807 10.686884109959449 -1.3377943399977477 1.7630062090246863 -1.939802461483556
Ni 3.4918904337270638 2.0057074839403346 8.544258712791715 0.7796602941870702 2.759289914969893 -0.68758857576079
Ni 3.3176306027249907 1.297441310330231 10.867026773373675 0.5646893304306919 1.2554439626242895 0.8393317419057739
Ni 3.2207542002641505 7.386752129246912 7.143169950003285 0.5869923648032664 -2.1889030199337913 -0.049920538979526925
P 6.720846394715879 5.263636256637019 4.091327885631942 -0.21833628068418529 0.36756413660648307 0.4177219884077967
Ni 3.809956921381333 7.206304198505266 12.557210131588405 0.18487311592973324 -0.2936348934171846 0.6795813891855974
P 6.76851223282873 7.296137384917794 12.53955335903283 0.05124954220359561 0.4278953293963728 0.8069103881522748
Ni 7.826741651888914 0.44536296318851915 8.778608394340681 -0.3527990624821666 -0.5513157373372635 1.567915786242319
P 2.5701302217021675 5.350131731005766 0.9821498130197998 0.09431397749323758 -0.06346125377843909 -0.1692040419339086
P 3.1111889751575283 6.907647931579436 9.285552604476926 2.134283018596066 0.501584174440091 1.490652593583781
P 5.272803471258646 3.665580187189979 8.316154138736236 0.1335407842043442 0.0037640950281225497 1.4908677949183808
Ni 0.9108174817127618 8.088204956784173 2.7423193839652336 -0.23954659621321323 0.32244924654571566 0.2261434354334299
Ni 1.859565348337393 5.584258898418482 11.458861045970005 0.5057622170771806 1.3969001450209686 -1.1151159802947828
Ni 7.771251039811164 8.67542160131332 2.794857546078084 -1.0740981431215242 0.3018788785935317 1.157603460035032
Ni 8.135870794897023 4.299377683547772 5.957777379994623 -0.8268888881567307 -1.0105209325905113 -1.1801363510302256
Ni 8.606644504653573 4.735753650175431 8.186719872430142 -0.7704696288267375 0.1896024030846025 1.3368564015645106
Ni 8.671486227333324 6.250320944532834 3.5017536946344046 -0.35783071136880307 1.2316545735141755 1.5208887667605033
Ni 3.4745122635817536 4.792182131753086 7.8616129271672675 1.6136096887350082 1.2790292061433972 -0.8496241249707174
Ni 1.0386261075523522 8.440595629175185 7.322289232286733 0.3106818215971423 1.3166758128515776 -1.198275740943414
Ni 3.48612529474235 0.3641370281373787 6.834063793992722 -0.6254108166804648 1.6601456275130184 -1.8726401047044456
Ni 7.40275107953942 0.863388869414593 13.282246699128686 0.48930252885926057 0.261806178942362 0.2527052450823583
Ni 5.643206754927257 3.371484540577415 3.613935759541744 0.5210433116059672 0.389312069806536 1.3454960795173796
Ni 5.399774450907634 3.87405386534057 6.113091327618701 -0.593791647113287 -1.4736354902004942 -1.5007063782753574
Ni 8.960368422902295 4.93083970095482 1.8338024409669462 1.4515412294046164 -0.34905656472059887 -2.990239770653031
Ni 1.6862525816342442 7.478267963879861 5.128364212433964 1.301686538531597 0.29529145518400113 -1.3799534898643009
Ni 9.034046347438998 2.583922420230192 0.8086908490122539 -0.6474228021751818 -1.3967291666607429 0.9624364183784585
Ni 5.720498235478303 7.347297246657745 3.199888442851054 -0.34852588902810944 -2.403738743663886 1.049204465203638
Ni 8.091763344004402 3.5634811388865266 3.319700351984096 0.37250142600710034 0.6910096856271971 1.8943520424602405
Ni 7.159852073862881 7.95456774784664 10.442885406320276 0.5152927822754352 -0.4380424451327037 0.20588288541218092
Ni 7.974483682521106 3.3608093789167244 12.337731198492353 -0.4601899277640204 -0.8170847575821154 0.1255287125331451
Ni 0.5518773539807424 2.092644308661979 5.464479171082006 -1.66387655531036 0.9369225903780702 1.0361401758205124
Ni 1.7890596294621346 3.457023755848219 1.9408970235772485 0.2530600573186158 0.7573732006540956 0.47202600116699994
Ni 2.0136150110964017 0.8560983132726796 4.42750996631282 1.0349731520956047 -1.2292174248275929 -0.6661545742567302
Ni 5.5398204347611895 2.669314518716697 12.780254807743903 0.7446457257850981 -1.2936179025908494 1.5593298443455208
Ni 4.842744331556822 1.3912190655217749 5.175922471398296 -0.24740748701852877 1.0641400034675481 -0.5337774713431839
Ni 8.950989727903238 5.864617515297135 12.712953476326657 -1.9030673108460514 0.09037144790572178 -1.3086480574510946
P 6.86399102583873 3.6696442883562366 0.8980587785944377 0.8086672229423815 -0.0578981578683648 0.10779170026469823
Ni 7.068667251994605 4.88909531341 10.3343775831008 -0.1218677187417901 2.4606683669713942 0.08278566513866388
P 5.765451607880642 1.4208630975580077 10.877617342883394 0.5723288492538208 -2.0511476834274673 0.41414969767550613
Ni 7.1178042579504455 2.7893434251065803 9.808444274031173 -0.1657021994282372 -1.7931364527511635 -1.332190363547409
P 5.388023497761758 0.2959631102932582 3.237125539916915 -0.3854554150646071 1.0462099013516883 -0.7589886247703316
P 9.040730966325581 0.23956221311265902 1.164219706308342 0.45112884600301656 1.0309244359475278 0.15140969406496504
P 3.115538115093365 0.0025910943634647643 0.10648128951575603 -0.47047485462979616 -0.3889014646316786 -0.35162329700651057
Ni 1.8921057420645109 0.9087063558580721 1.8167920627823833 0.6905322317701463 0.03925817416967432 -0.9162123544139124
