# total energy = -340855.1727144396 ev
CRYSTAL
PRIMVEC
9.38755178545793 0.00000000000000 0.00000000000000

0.00000000000000 9.38755178545793 0.00000000000000

0.00000000000000 0.00000000000000 13.73963094629042

PRIMCOORD
 96 1
Ni 6.958748085465435 2.4128261181677324 4.917331067378583 -0.014558357430149122 -2.0982968303094442 -1.4090347235009733
Ni 2.7906656912431385 4.622055012532156 12.515636160531061 0.9522682195962052 0.007985332198321732 0.5055354457783552
Ni 5.821840460033344 7.543968065726331 1.7247636302431513 0.2757068481838542 2.638721631765817 -1.2740050134559282
Ni 0.8876653084298315 7.984075270002739 2.2213134898182227 0.24380511437925106 0.7728314441906948 0.8087024470556912
Ni 7.699388373605691 4.420945489960305 11.662762057889566 -1.4130225045041276 1.098156983842941 -1.4705643074743382
Ni 7.819079659270216 9.388396696488918 9.981306020442975 0.8570528133346207 0.4190857015245427 -0.8359427708288829
Ni 1.0365453089584107 0.25054061541852646 8.999636584385 -1.0084699635987535 1.8404738043845466 -1.285195482855109
Ni 8.360440997442904 4.592043009373765 6.497774231010586 1.1238333055631224 -1.1642001394159434 -0.7452280806511294
Ni 7.6097560288586426 3.6926498324591734 8.588601689330117 1.937485383314605 0.27288146291991716 0.21929581638397716
Ni 7.751048071253682 6.854762173990459 9.062949050103215 -0.23174818321471702 -0.10271428574179084 0.6894672808407416
Ni 0.507181262007626 5.206336237611369 12.283477310325061 -0.3796213248813333 1.938852181755145 0.8960374221279344
Ni 0.9830081009470554 7.825754208611978 6.848464065476551 0.20743583172159763 -0.9323231439328459 0.9926430238688259
Ni 8.653717503752345 2.644933336838741 2.4620178284430794 -0.04000327986581497 0.881092627892644 0.8982817380774206
Ni 2.5667256426527683 0.8763880424322792 11.381031301559638 2.266678633452374 0.6100924411558397 0.4944154246057937
Ni 8.654158718687736 0.28501733822099945 3.1923759310783675 0.4912000029922895 -1.1814602120479716 -0.005010051620081694
Ni 3.143703352418491 6.508220698672349 8.924948283375155 0.6266369757780821 -1.1220533308445644 -4.166436677419534
Ni 2.517713234617123 6.374710936733459 10.958729466814201 -0.7333287581103822 0.10313568954992561 2.249364053433326
Ni 1.5143247586757396 2.4987597674989526 10.06454074862686 2.462898027632862 -0.4422695958401738 -0.8004270944207763
Ni 3.697944411683863 4.526902787316813 6.177008156715934 -2.0058422746224487 -0.025102708604898705 -0.49066572775537437
Ni 2.9489867526338984 7.140115586566501 1.1509664230329688 1.577889352515263 0.8532786910041693 -0.11126937440065353
Ni 4.411924052664336 2.9050342350275224 9.957742326627564 -0.2581845230293747 -0.6242288805572217 0.06755007913583205
Ni 2.462758506281427 6.0385614812765755 3.2922350747746663 0.9954444978733631 3.041807615427994 1.9515050946324648
Ni 7.240196276485677 5.422325029812888 3.736492515709293 0.17198674688536833 -1.7675429205527753 1.8260416881196164
Ni 2.8099101724676303 8.57498410666463 9.90646657984888 1.7042151070284068 -0.7250721745285449 -0.15246641746425357
P 5.48492122532748 1.4301465815342662 1.926996842767476 -1.175778588282162 0.3705916105788972 1.1085313850987297
P 9.14626357247754 4.482236815772358 4.594354224631068 -0.4232519170870905 -0.6501268313699062 -0.6915948687067057
P 2.0822340933864094 2.648575706943669 12.547360453140842 0.8992546435136511 0.3648649925077652 0.3979170378667276
P 6.969928659679274 4.229721059451572 1.7266317530546995 0.37247468653422305 3.2217364999785745 1.139605995016347
P 6.905868006081257 2.5919406068327615 6.971049533366203 -0.6584559200608919 -0.15032803096501207 -0.3385494945416879
P 3.017478330689457 4.137638563680332 9.22965225651122 -2.07937685347649 2.0351999018489595 -0.6175982626145815
P 7.07444027405599 8.018386771893235 13.792254025877057 -1.6343885731535723 -1.894514536180034 -2.2055447422555305
P 4.112282786223086 8.43505325928303 7.873948960884379 -0.7006626353359288 -0.6394102162833505 -0.07051147575700115
Ni 4.851946768974393 0.3494882278334113 6.20414381399765 -0.20113020121854394 0.19557456150763736 0.28706392506788625
Ni 5.607363063674334 1.036892648375633 13.54308587053415 -0.8062359877930695 0.09687016825618801 -0.655221215173678
Ni 0.7421263375928605 7.361070393679121 9.393525116046451 0.14287414579012814 -0.21947193695052525 1.023912266295753
Ni 6.551112422923425 2.261020017737849 9.984328812127995 0.5309430872181824 -1.4643206405574716 1.8061189810537603
Ni 7.77328718150774 5.291087055413669 0.10013232145416817 0.0361013737082475 0.38141749754980764 -0.35553523046640706
Ni 6.09943036725687 7.64926823445566 7.615657982685881 -0.7338332085506264 2.0646161502275473 -0.2619131368338715
Ni 8.999320223888773 1.866686516120281 4.592031744311584 2.5796047709990026 0.9469342089778015 2.3051976154631784
Ni 3.1847738916171022 1.1104347293086434 8.349037938251005 0.3620879439832603 0.3837358612703391 -0.7222143933647756
Ni 7.583245582527928 7.741453993296886 3.7060871741297774 0.1530559714191364 -0.14693417479211468 -0.6497794753328164
Ni 2.0851348468978084 2.582553055015936 2.9877930143342915 -0.11574000857749743 -1.6221128411100127 -1.041504268345903
Ni 0.25674484841426637 5.480847027838977 8.35431374237206 -2.5836414029622214 1.4220038820671317 -4.801930846477931
Ni 1.3547645404451583 3.530076210095391 7.801898561935062 0.8112619802527513 -0.7545563000305908 -0.5651626705226848
Ni 6.191672451408997 -0.19037485706931076 11.429271114080757 -1.936913312861219 0.31986837319241684 -0.27112977033613306
Ni 5.243426454839646 5.894453173336489 2.7736329172266903 -2.2526802622907525 -2.4342009168084853 1.810435349040927
Ni 4.868957012866481 7.153070408073721 10.53659285298074 -0.5554498141102949 0.6330544492686516 -0.9790280041885527
Ni 0.018545108614138585 2.9483014613512704 11.747233126647725 -0.0482295244303492 -1.3805204181113644 0.6626375622424071
Ni 0.8654261981757722 4.582974634318711 2.8431834111271863 -1.3802013442090488 -0.9050383400749639 -0.15612046927707307
Ni 9.143175067929805 7.573501303742063 0.17396166147277323 -0.8092251523283805 1.544653987500901 -2.021970033422247
Ni 7.139204994040269 0.20996949397657044 1.3267098418405754 1.5905152688093898 0.7451787154704327 2.2324963311437105
Ni 7.895822895372763 7.306406679449746 5.98538193898944 0.1787088961005503 0.3453361784462181 0.7763356006892114
Ni 1.061581909653884 3.0632332582446637 0.9431954936918989 -0.7786393091217235 -1.023663126399424 -1.6937373474255346
Ni 4.055075045451352 7.956025265174064 4.075147508746088 -0.8087785517092653 0.03619881851806024 -3.9173358618589824
Ni 8.049140391645157 0.3970652791962641 12.718322791808138 0.5483186023821525 0.6154009978529467 0.49281619843947383
Ni 4.871932866792415 4.162872302963958 8.066880987068592 1.2222265953320564 0.11839621525342192 0.3440673390361235
P 0.23251933219576676 9.112224309589731 5.348316387554581 -0.7389718153287724 0.4101835139389064 -1.332806399864853
P 2.669641373220625 9.190816893400195 2.757118336070531 0.5322610346986575 -0.13974537035315934 -0.22314192960294474
P -0.04872139392932385 0.9075105929706004 1.2659780141168053 0.16318740342618346 0.21892043532242944 -0.7436525086338934
P 6.368299238842567 5.13228722888025 9.58112595155389 -0.5337826135495065 0.6876392264930673 0.011534225891844652
P 4.326835282996631 6.138369932193062 13.000672187802795 -0.10810717462258801 1.007592960310439 -0.12620259867171815
P 1.0902045551433845 6.149231329645129 0.6576327387103418 -0.3963856888238657 -1.6196535809362427 0.43632803354475824
P 8.687831867054689 7.124738776690541 11.207980232613096 1.364973728626017 -0.1705829245593062 -0.41157576630074283
P 1.8107742574992691 5.578317978353076 6.888446587419593 0.8299909241208222 0.7292180783761183 -0.9054021511722858
Ni 1.0305466633474591 0.9255281211726334 13.062322118094253 -1.653228331567895 -0.6390101526314543 1.8755559927996601
Ni 5.7375214696146175 4.038750092841893 5.395140557261725 -0.7922988088866871 2.2586264525718587 1.24551127689161
Ni 0.6916419614323369 1.3371628807886107 6.97038958847348 0.2076590034759972 -0.3631608653324649 -1.4133557194738302
Ni 0.49244092814484686 9.07810994628739 11.062285428415965 -0.4472652492825523 -0.8992816400968447 2.2949211732378347
Ni 3.5803089998672237 7.0221797730917235 5.854346735709465 -0.4056992529153077 -2.1104324372307137 3.771483864387453
Ni 5.169095819554023 4.932548288873656 11.365093116085031 -0.6622560105332724 -1.2590046833923543 0.02701149559183735
Ni 6.568976934030844 5.570939362625051 7.12825816986667 -1.4836229404305092 -0.1800067889763674 0.47598498581474796
Ni 5.761196875296651 3.345864280793826 3.136249636275932 -1.4515990792257452 -0.43039829832388454 -0.4006161819654455
Ni 5.779878103412134 9.207141846009653 3.8532933741694166 1.5438026952441994 2.4765603556113027 -0.558338962732632
Ni 6.705950702590143 6.746157587021607 11.7406796767244 0.5118356769647702 0.48710037900161923 1.7047100443869543
Ni 0.906063032480446 4.688547042050731 10.038119484038402 1.493319341782667 -0.8044205318508856 3.5672400572405913
Ni 3.4595381457437653 2.562369818609761 0.655322462208221 0.25447956337396177 -0.6629196122592003 0.46475569275783185
Ni 2.655888609808976 9.122250214930101 5.437802286493287 -1.9027261254565488 1.6986674377373003 -0.19903449503177978
Ni 0.43865025623443726 6.594680050905311 4.634639025742611 0.24692643361705213 -0.024200251395287354 -0.004091139350238115
Ni 7.334325258552986 2.61533438596029 0.5974378789504939 -0.014350869405033351 -1.4391125167229601 -2.0772567218096936
Ni 4.777306344478814 4.648621784173772 0.7350866124854232 1.9077804000510048 -0.462952578110822 -0.3622422101729374
Ni 7.370044893216006 0.4358217868720278 6.166332632789841 0.8287033156576502 -0.34112445435771577 0.6253537381902843
Ni 4.461556039119892 8.363069511951615 12.792393391908435 -0.4466679820181855 -1.1249522496589144 0.03318008629639447
Ni 2.916402560277698 0.01768239260217233 0.4845253444528997 0.09211182763559621 0.677579271153904 0.5693911067817355
Ni 1.6590057072766526 3.3678499271488316 5.055428525890355 0.07686518588917084 0.6598196331776378 1.31466135352471
Ni 8.63711092458838 6.136088757101574 2.1823617210646686 0.6935854167741732 0.6127879857101317 -0.9755091924020167
Ni 4.459903830000131 2.564660381253067 12.135308886224196 -0.18846186172225607 -0.1918642025355857 0.8472042026753152
Ni 2.5942874947869674 4.851242702588131 1.3224422607846467 -0.029908871744290428 -1.0754114626163092 -2.7478878437805387
Ni 4.066011543317954 1.8519480597678653 4.117424348353161 0.15496295863386214 -0.39739690369719943 0.6369640687357031
P 5.840071085661618 6.965131620700876 4.903660914422921 0.4990619222388696 -0.4906724126235937 0.4040696877316848
P 8.642076939499482 8.737998943963804 8.105722921465889 -0.6601088822832825 -0.6317465290905055 -1.6197384273405655
P 2.837969564848122 1.958628198614269 6.263911540149832 0.35249721497103165 -0.43668258867069953 -0.08483329169631197
P 8.959854956050838 1.9878516474200465 9.631824363895836 -1.7111979661041432 -0.02467847658328653 -0.5842006609907422
P 3.4232270953162844 4.245473371400205 3.0803289288582847 2.2953896282338206 -1.9256408252711932 1.802469300116315
P 2.1730868198696456 8.198505728602663 12.193523911305876 0.6534291562702618 0.25095483805015484 0.6232670308645847
P 4.5144830562631535 0.7708541236627097 10.16615911953363 0.6499321988605968 -0.2723343321671955 0.9571054930838484
P 7.292259638861791 2.420448810242995 12.153211886294065 -1.2806880819030588 -0.9078303009978042 -0.14216477842792935
