# total energy = -340891.43165745 ev
CRYSTAL
PRIMVEC
9.05600699926608 0.00000000000000 0.00000000000000

0.00000000000000 9.05600699926608 0.00000000000000

0.00000000000000 0.00000000000000 13.25438163864320

PRIMCOORD
 96 1
Ni 6.263976615026242 1.9355041413215088 11.545308555963025 0.21887544101710693 0.7338985145709233 -1.1973059208309766
Ni 4.678070565989132 0.21269209602163217 6.071871539603255 -0.17664995668899255 0.6011280328737002 -0.4911467811568509
Ni 2.8249308078747157 1.655419958382645 4.8080007200985815 0.3562659379848445 -1.051489404583073 -0.4518970916276088
Ni 3.2928818549841288 4.211812992179304 5.001368202890349 -0.18702024417972307 1.5730595352267875 -0.4937610788512464
Ni 5.262164902227842 4.418643134902426 2.86551801982167 -0.05129453650891811 0.9468262226450274 -0.8453473519722345
Ni 7.335311293177125 6.048724385839942 2.491226913387652 0.5037778396573002 -0.3411252256886641 -0.19476569245309683
Ni 4.932399465163183 4.530702164897431 11.602355060540972 0.34512894753141854 -0.07269022857587482 -0.5001081041151968
Ni 5.70050280661189 7.936050570189298 12.44949560824347 -0.653519659101539 0.28422722695003955 -0.34889638499365067
Ni 1.6631809563384976 6.409425142644616 0.5535547640023963 1.589328190479824 1.183492154876336 -0.24501378997537157
Ni 2.633106468667169 1.4621647700770528 0.24637500827017103 -0.09171664907970656 -0.24682076127712332 1.133393952668364
Ni 0.4721874471604603 0.08642600232401215 4.758482474097879 0.267614558094023 0.04272530678266836 0.7594599079797951
Ni 8.747477848885145 2.0823654060240298 1.221812912029096 0.6013026107783515 0.7270313551374447 0.15854707644069468
Ni 6.844502884526789 0.6497322746097948 4.526000286089171 0.25820637740624564 -0.4625792539318033 1.534746241468886
Ni 0.7987733201850966 7.523033261236479 2.8891107291269056 0.2358922872900776 -0.17572898753661995 -0.2505599166045814
Ni 7.593018082943397 4.227679116355096 3.9270214968280106 -0.31098341199796115 -1.786667557197368 -1.1376301022368986
Ni 7.663519097046445 3.8398193947084134 12.747798665963646 0.7276072822455727 0.16854969617936136 -0.896952734853352
Ni 7.843353283052652 9.006977728027447 7.093824717458377 1.5658753587735226 -0.8810278360929795 -0.5384476231253437
Ni 6.936756427322902 0.7545890622777404 0.18561463524217006 -0.8648478838990072 -0.9439044210125421 1.478427512272499
Ni 1.8240156397643326 6.4216869760544455 9.204002026425485 0.22864743280220623 0.6484808111260509 1.5392006776958138
Ni 9.35911150225775 4.636530662111074 1.4694602892756932 -0.9591163528662902 -0.6943246089330429 -0.3091147342203386
Ni 6.468932164310785 1.8596510271112165 6.922233308977744 -0.406121685164707 1.254097475898724 0.22261588189614565
Ni 3.349608682516754 4.466422627568795 0.4968342756746355 -0.1086512200515161 -0.09815829093999223 0.06015327245112865
Ni 6.085147645791447 5.882818338522301 4.809259505064583 -0.5570744941979114 -1.1650182644418645 -0.009096305874313365
Ni 5.265162440528178 2.7646540256178262 9.466623511163332 0.5450283616666548 0.45904835796040944 0.13734370289020217
P 0.3772986063419975 5.482886959611732 12.447441705867288 -0.5740352904219662 -0.37776755950204616 0.3291536551490848
P 4.064154798865214 6.258226050613211 12.699579956960218 0.03566839993588696 -0.2534385237039571 -1.1615189930393544
P 2.1795906966355028 8.359790191370505 1.5204763988258676 1.1137283559186366 0.9981495555093519 -0.7136027404363645
P 6.495547768735815 7.847473766214743 5.834115133147068 -0.5876330837110589 0.14838350564413155 -0.7854941272600279
P 4.688765710196672 1.154948790317029 12.841587201937726 0.12600848038304108 -1.537861647169416 0.05927909737629146
P 4.060025259696173 6.3001372507762055 8.023633024600782 0.6440891098162584 -2.6500877075109135 1.7047421831764704
P 4.787059609628204 1.1149665196343115 3.857196966444102 -0.006549885303375816 -0.45569383966587973 -0.7273164904780313
P 0.3672373826209332 5.503607103512538 3.507030156923265 -0.626554700476921 0.30751936470876073 -0.10037483897533682
Ni 1.6543060695278378 1.1301443872819297 2.8433298971943257 -0.2741014513699473 -0.6823047016540313 -1.8874763983863299
Ni 1.705590236883722 6.3608124973388795 5.1021017905941175 1.2493910715619903 0.980452395339905 -1.1217013468217842
Ni 6.053143717231373 5.718977060789181 9.419120226708928 -0.8652698019277743 0.9126050966786283 -0.9109297658587344
Ni 8.418319164286112 2.4221648987889046 10.039875995881921 0.49432954976020677 0.29066912592064137 1.0275460063935982
Ni 2.1181547454890577 5.297872737630324 7.258020085063229 0.7105099604436538 -0.605012712640087 -2.063955890935729
Ni 0.6015017927973334 0.2922536450778075 9.084447339478253 -0.2128307774849238 -0.7569816216426318 0.36971769261437615
Ni 1.2614474320449467 1.141690796142737 11.32513982060376 0.3831121116434112 0.1633756081775896 -0.3778758029451363
Ni 4.02643652991991 6.83666038250839 1.421903574380286 0.5500250435502979 0.566186998022141 1.2255204355919795
Ni 5.847789703641045 7.912197047883913 7.973637527033833 -0.8829564205742598 -0.043246469393461 0.7290576415388541
Ni 5.234969713358034 3.0880530897968796 4.787005273586506 0.7914958533694175 -1.3238386491486038 0.4585215389226619
Ni 1.0169261883973695 7.6074080779863955 7.177645306582974 -1.0151856850560323 0.13094474134239384 -0.03260415918826643
Ni 4.950973335416921 4.20463157866823 7.241452120348838 1.4411570579568147 1.1543016493553089 -0.9765054948770151
Ni 8.310389673460149 7.274156078246119 9.235904527707723 0.20606054864062576 -0.3104866748672007 -0.632251493751382
Ni 4.273058767179807 0.550276489486622 10.683495465800698 0.8676339312845767 -2.4414370295456083 -1.2994375945964203
Ni 8.196773010269805 7.137953733723341 4.609860721644346 -0.0030408437088528277 0.2911267822833502 0.3373505891375803
Ni 7.145397771435955 6.044938974934988 6.9237049101070625 0.7568877763772448 -0.5503448887835619 1.1693695994320248
Ni 2.4047230294038733 5.425897507877567 2.634653234654169 0.012241279261198274 -0.8478168965586494 0.8006500090648598
Ni 2.463913090826804 5.159913527759312 11.360330558009414 -0.5749390331831582 0.3381139496661661 0.11510186077286627
Ni 1.0717421984636184 3.354562318318214 3.731479666767631 -0.07513689034415447 0.18984562944366015 -0.43587860471216544
Ni 3.6164982633299734 2.787900795457585 2.6603668607870135 0.3784159917193225 -0.5757520160027568 0.10153260672886386
Ni 1.1000965562229814 3.3081774507220922 8.05989689882997 -1.037545540808471 0.2706934541296629 0.6523863168280442
Ni 3.382989124133174 2.530456629892853 6.8703822355868125 1.871634289147751 0.03734655896925826 1.4484021695550024
Ni 4.1333426919605625 6.8571541262354545 5.950846157127399 0.07635636457355237 -0.4053382700314632 -0.2635298465016881
Ni 0.8177864067758929 7.494896247643909 11.467518361866201 0.34992714025101024 -1.5914640058759042 -0.06213919253290589
P 0.05700122454320005 5.572269748204805 8.024719745434739 0.14918029051381404 0.2941223745765644 0.07107866111438081
P 8.587775166328017 1.7595730943106027 8.020849208064458 -1.1756533755582075 0.48926113409836386 -1.5262199491654296
P 1.894362701749236 3.3755269744066605 10.217086656674812 -1.2626996157454382 0.6280896490642086 1.0700537978488216
P 4.086450687975259 6.047184864658501 3.848913436887255 0.1701959735335327 -0.02697112927220516 -0.22486045495594822
P 6.789795546543936 4.0086686442846915 10.556518475557532 0.44509086733905273 0.1683632912001681 0.15913097396862272
P 6.479745036608671 7.928642756504481 10.256651445437152 -1.7187261561603882 -1.6061666021934016 0.17617841636921272
P 2.5230759842288863 8.338481407017973 5.802675393819959 -1.0951112550380817 1.6039572532469086 0.45048838420554027
P 6.817742383990565 3.8724844117758117 1.4870352819628845 1.642261805254062 0.6355216798622216 1.1858233741126738
Ni 5.269174251606874 3.102687597027519 0.3034858104974619 -0.4282100324233142 -0.5116508146474736 0.22767324181439497
Ni 1.4804669601223013 1.1145680553285269 6.917302313193658 -0.6492521420744366 -0.7291638280994152 -0.425216497012629
Ni 6.845417541228704 0.768033610195195 9.281022459931588 -0.8065386066351529 0.020594279211583886 -0.374867869356748
Ni 2.793470239731622 1.8333252149085757 9.178474048435108 0.05191340103983963 -1.9514755269461097 -0.9891784623589932
Ni 6.549802306371185 1.8039022483291536 2.4682572573605523 -0.8023361385180311 1.472838448220496 -0.25349945884887953
Ni 4.152088626346344 6.80456589387882 10.639570209692103 -0.021430916180266317 1.142460947966639 -1.2175366460555548
Ni 8.345499812403954 6.992324085965973 0.4575719575444155 -0.07080663839991676 0.11465731703627996 -0.33782135812641173
Ni 7.485704400590011 4.07158072456393 8.404285070316234 0.48462260688508796 -0.9991877669658792 -0.8472049740062635
Ni 2.973865898168707 8.436087049921332 12.485680695212197 0.43261716035207437 -1.2314278022153502 -0.10147552823868329
Ni -0.035013239669442885 4.7379579399471865 10.504641139746445 1.479201671434362 -0.8459312495001624 -1.6943878365253398
Ni 8.555481445545555 2.480657647676712 5.555918222056513 0.12970752650118308 -0.7479061417039249 0.740736363428363
Ni 3.5158226340706826 2.45932169530333 11.421167907096487 -0.2307346543485381 2.430632739841253 1.0555869716912143
Ni 1.3165532343335844 3.289567356440555 12.596778882869845 -1.2647827235267122 0.5504886134502777 -0.2023026242600903
Ni 3.3401813792821655 8.24540376758944 8.116625537563987 -0.7763505130875469 1.580746362348084 0.4576941579253601
Ni 5.739977940905428 7.686711530844506 3.3496077769160593 -0.6996905012306466 0.9502933552580215 0.36446570018681745
Ni 3.2784284678924824 8.130175135162057 3.7402006014601468 -0.41356914258168775 0.4057262494985013 -0.07987106259503018
Ni 3.5728392538256974 4.223576745206904 9.032848023080522 -1.2018801704652204 1.6412117667229928 0.9755840115040103
Ni 7.4908391565304635 6.109508304486012 11.418848663716682 -1.193171844057945 1.2057057148588977 0.6182914320268642
Ni 0.5184410026558123 -0.12323685937296112 0.08332884794723086 0.391819409609422 0.9240043396545055 0.845100526068751
Ni 4.381821410645138 0.21106473157277955 1.7741650383085785 0.2142042607936827 0.7185649695376464 -0.5617916971679228
Ni 6.245620088939295 5.752583902579344 0.23434138623547232 -1.2828619496259261 -0.656001030762496 0.5989325678842782
Ni 8.052936451888469 8.863729810097839 11.282765858485638 -0.038136916081037545 0.6264595696599533 0.3333476386257743
Ni -0.017411078961402603 4.932426633184032 5.575866794165208 0.03462324650082424 -0.7038235495624137 2.2922965911307944
Ni 7.951590678114902 8.829987128203431 2.2404543081427297 1.0520416775421173 0.4184115582756536 0.8545758125490378
P 8.605017803560155 1.6501584183448965 3.4404793730516556 -0.4155630330832649 -0.35664311881860516 0.5374058121243905
P 1.906597367138217 3.0584308910645657 1.473980142344265 -0.9759853607074869 0.5061869633194249 0.7022451493317002
P 4.739751029323218 1.1222566052287821 8.243443142084839 0.2955516508239232 -0.9769279271264144 -0.7766860420500946
P 8.378327837596444 1.7666005557035334 12.232601524997198 1.2653277973969048 -0.26221421301405806 0.46424404322873597
P 6.431331623455827 7.727101321839958 1.3366385521472195 -1.101286273500542 -0.059333604763310725 -1.206944472362005
P 1.6408760112215024 3.2443054337061903 5.920798326068452 -1.197090976606693 0.35923196259170387 -0.2312452754363695
P 6.822723187812874 3.9427590257051177 6.008409759702173 0.3473745490324856 0.4905587698638648 0.2999510654431995
P 2.205662940643553 8.42724838713847 10.144876774060366 1.836687597869237 0.21286420182602048 0.48064253919141736
