# total energy = -381163.81891465164 ev
CRYSTAL
PRIMVEC
9.31796787265754 0.00000000000000 0.00000000000000

0.00000000000000 9.31796787265754 0.00000000000000

0.00000000000000 0.00000000000000 13.63778785625913

PRIMCOORD
 96 1
Ni 1.9850346044729335 7.746343326502944 5.5349911281181745 -0.4794639455022839 -0.4373814145099371 -0.32033168598208056
Ni 3.1662547287721026 9.122103979603686 0.4611191973779297 0.4945686623542064 0.06415339474945726 -1.022153374623117
Ni 7.000402743464277 2.259402162216126 13.381901415979947 3.188167919994509e-05 3.6227298627777804 1.4453597831842528
Ni 2.757810934371861 0.29817310152048265 2.8469158637123546 -0.8322943754430182 0.1797550779768775 0.78013183450685
Ni 3.6191638648449707 7.149397046344687 7.721033862745359 0.28519936105532173 0.43766886384336884 -0.11770304584113922
Ni 2.402768412630008 5.64520684498874 12.179962790589185 0.005658226727041868 0.3680714152602048 -0.6340967744902369
Ni 4.3677041608607245 1.2995676315464533 7.249193411778049 -0.29929286303391034 0.49782959249366515 -0.9843854118457239
Ni 6.367079117562111 1.944594624829345 11.218430526211895 -0.8087178736746589 1.1421423882849555 -1.342661695392378
Ni 7.5030325549699075 5.74440592869511 4.3851082608557235 -0.2129953280872461 -0.8429634251210901 0.07134348473999326
Ni 0.7752241600031605 7.491040330591728 13.117369904898453 0.9719117048587455 -0.012319183686985235 -0.2536246715728342
Ni 2.0385942825815384 7.890632055715147 9.608966858032149 0.18874236907715236 -2.9775503481108205 -2.5823262836952234
Ni 3.510516361931552 6.970743652403093 0.17975011873515379 1.1130999783060187 -1.4258826482962477 -1.0334677711946718
Ni 0.2719038870939379 6.022733622693722 10.906015842920153 0.9126493196530023 -0.14057095157824823 1.1223348666407251
Ni 7.539987614708727 7.1699711189375535 10.61248961187162 -0.760337168378426 -0.036027068826886346 -1.3055611909956546
Ni 5.06040187669122 0.10036196607031339 2.937811706437064 0.9756853129685649 -1.8904804753199764 -1.3847336848617635
Ni 8.593486356294838 3.6435676221460205 12.122956396243216 0.6306270707740816 -0.023589100173849697 -1.3160384363778947
Ni 3.328406001988167 3.8485815465972255 8.816788655871958 -0.16373607684080188 1.1282224357697537 0.523746312359427
Ni 0.22240591108824553 6.708703765873833 8.727611046383718 -0.9479307685631158 0.7612625084061728 -0.88532800613023
Ni 8.75731486368967 6.413473278540319 1.6725248779110626 -0.9380448769079716 -2.3279894165467128 0.7810666876162935
Ni 8.565653586894978 0.8061057684213127 1.5769374384696373 -0.17435421867628037 2.637685220081502 0.13522408544403808
Ni 0.13376128935014694 0.0982439920212379 8.64757063598269 -0.9994520763708593 -0.5655295669438002 0.8009374583982916
Ni 8.088079790426583 3.1983830812631373 2.8034112045054536 -0.09246252610679559 0.06871915974326875 -0.13739743894627307
Ni 6.7868256067337045 1.3516177988941682 6.511225281869119 -0.36409957509665036 -1.7277018772964372 0.44925939689444566
Ni 1.6658569402537005 3.797342042435914 4.662527453007505 -0.8067792618910493 -0.09097257182483043 0.8633712993534808
P 2.789156577579472 7.6984396547638445 2.049964066720042 0.16259090749276514 0.992565119443039 0.4061484246375844
Ni 1.8178516287205693 1.435516779703124 0.8497800146396219 -3.335196454272643 1.4717529284658009 1.217509135251729
P 4.222781809847654 7.227351163786682 5.3430801297901995 -0.2925717422599929 0.08527063634404669 0.39050403323210814
Ni 6.316855271875719 7.771110484542726 5.0317295584052095 0.3965561529634589 1.335063571330146 -1.037325197267549
P 5.30450467547534 6.93949118887208 11.50933840834802 2.1951582568148837 0.045650450849263315 2.3170483441541774
P 1.9655973239345634 1.9844848443810044 9.504119222330402 -0.006759173100704488 1.2635984734106238 -0.7798677822121859
P 3.4870537193641424 2.6995177286920713 5.0322886364647985 1.0406385779114982 -0.8821652921315323 0.6577591511041833
Ni 2.6457157834243112 3.8967088495601594 0.09459507588565515 1.1291809430282813 -0.06387005918108356 0.8950524325068456
Ni 5.619796747180431 3.4038349501943532 1.4211661777102462 0.2869366554614026 -0.14849123486658944 -2.6428395105889324
Ni 4.485688267369277 4.92589701352182 4.220103825942224 0.40478368307957385 -1.4275381816217994 2.6801683289463774
Ni 6.3126901403317826 6.634448881592784 0.9801206780618515 -0.10008841808316957 0.3786725878148188 -1.9501048718508287
Ni 2.8529380662108914 5.6204955947549164 6.076070601375258 -0.39356698842814797 -0.82167289117343 -0.11715745775031436
Ni 5.632497137100756 2.4504484531452713 3.355987186261214 -0.8791905257739245 -2.541936052803635 2.2810922377745424
Ni 5.632021920750105 4.886174517388038 8.831435569236419 0.904328972712765 -0.007260795327471366 -0.22550297363595356
Ni 7.715361084034066 4.273480871884696 7.200588097074167 0.113263779122863 1.0186834137966454 0.44889532868680754
Ni 7.7530243093150295 0.9716124417916764 4.098809977320907 -1.4635724495375375 -0.7576413667138178 -0.3225603182022832
Ni 0.6831831390530602 1.446931290086395 3.6177233070447636 0.7719331007461415 0.11209392718447792 -1.3504179422990292
Ni 0.12651004691728052 0.8453782067171264 12.699344444353628 0.3444427200976713 -0.433294388924757 0.45511328457206135
Ni 1.4023261788988703 3.984549330689216 10.589605615095884 0.4664024843326355 -0.459225506968222 -0.2587470804010641
Ni 3.92857629895672 1.7384439083236434 1.4455103000182736 1.9478590132394453 0.6926994146247941 -0.24547530299282241
Ni 6.400661073008076 4.539415668895758 11.950574926333443 0.34793967750733623 -0.01587501935904363 -2.6012871410684424
Ni 9.102629427194678 2.211125771770635 5.61777288460472 -0.1968547137716416 1.2749249541670367 0.9789673261539463
Ni 0.4989119424093651 8.29794837602855 1.756151774064352 3.711026430432345 0.825841934949455 1.3657077785785638
Ni 5.312322450341923 8.514619078022182 13.022327566565128 -0.3271083425842818 -0.7426880878380951 0.1583768694114176
Ni 5.619973788565968 6.6232859563363276 3.0038863469095634 -0.09914662299519053 1.135041001353484 1.7130098225019015
Ni 3.9596237671992167 -0.03688517498136959 9.120161183346617 -0.14910778540466577 -0.42685300417478744 -0.8656292421497221
Ni 5.858448534883561 7.49995762564217 8.802932837961816 0.04138010560868357 -1.1242056013008768 0.12088967109923697
Ni 1.0977963598408633 3.7519914938356047 2.082585339700281 -1.2292732177661925 -0.5356440922382776 -0.1312203636012837
Ni 4.896610641167028 5.042110706175007 13.432306962035707 -0.7873360655647731 0.12142291789488766 -1.1390467800787674
Ni 5.411251312986158 2.478243950674493 8.868298381095405 -0.7668718841731503 0.6332876483253803 0.8926867604881464
Ni 8.052028573550768 6.402366261089822 12.632423732417617 -0.2923136035025998 -0.7472242851455517 0.8936648081306997
Ni 0.539816888639178 5.009330095947786 13.636996621212349 -0.613130713761531 -0.28701430277687345 -1.0810586335997574
P 7.552874363982248 6.129778435169654 8.459042059915229 -1.2458236659257058 0.4070220854917893 -0.7578714804467529
Ni 4.223284980101284 5.1158344662994475 1.8939747655174113 -0.997891930972591 1.0140055487050021 -0.33696338100149065
P 0.3456397605763358 0.17385370880002415 5.545083418890519 -0.1630609051506482 -1.3282257224727059 0.15418957080294735
Ni 0.564871040082883 5.772602098833703 3.809034228255447 -0.5248264327974832 0.25303588894889967 -0.34316436760588
P 4.0872985600739735 2.3031966102172468 12.957098065759373 0.13786897926605288 0.35079205935446683 -0.4122008014792514
P 8.412969368821281 9.110829238735313 10.768246895679521 0.57483464639481 1.1573931437964389 -0.38113519042269844
P 2.164209804603477 5.901506863439556 8.750604995177838 0.5984990798912854 -1.9791598802352557 -0.3728323269839579
Ni 3.3889262019386526 8.213453045289368 11.319486680872863 0.8697669184671795 0.6238339591116483 2.4279911884533476
Ni 1.9429173906505788 2.139545144207952 12.315154387975113 0.14864524394595047 0.8574819304522392 -1.4411578292877631
Ni 2.7971327578962715 6.213835821428826 3.6295198541020866 0.23791805947085473 1.243482162276723 1.118967492830389
Ni 9.055023930420694 2.50031821606059 7.991975203780039 1.2771188764945618 0.17658799310280557 -0.27635502329081435
Ni 2.442276595507615 0.6332854222347617 5.2091986386572415 -0.1972450072315248 1.9680226326715138 0.06567265960746109
Ni 5.735330228194451 8.962170382690658 10.594501275304351 0.6979400941984432 1.0270690667571796 0.5854221921026692
Ni 4.084903842385402 6.3596992871755385 10.0914447008799 -2.0570139124002575 -2.007453584973627 -1.8312605133163946
Ni 4.412523585304426 3.912959385158873 6.582878589579549 0.2653033934623431 -1.8378175977086222 0.7299891522141879
Ni 5.661895325067466 5.772089610612413 6.243406391797243 0.7222771282819109 0.8058325817070638 0.9714327083397979
Ni 5.407878208693305 8.633684068779273 6.945165831176906 -2.1212236143089465 0.5011393735931885 -0.7031072402216794
Ni 4.6892672248008695 0.6704417500750319 4.9232954369512 0.7838856451223274 0.97668315810546 1.9571828617435325
Ni 2.3474569566013583 2.4831452016635547 7.293325170208456 -0.9670070684682764 -1.1820811334614223 -0.8867981629178534
Ni 6.859701431801101 3.1180062922295906 5.3615185241954375 -0.02604038992781967 2.347459866566499 -1.7812720972134097
Ni 7.537919025888248 8.362866656714468 7.249329454105883 2.1705515140097975 -0.6668695980458837 0.23823456227000908
Ni 1.0820210405928001 4.426043956378813 7.436535810562418 -0.46378304443191737 1.1136764196347788 -0.33361811867834157
Ni 7.9996615953026184 8.182265807531973 0.4870222156754438 -1.3656154759750738 0.38595420907789657 -0.8179388780522947
Ni 6.20168519160043 0.6293662850370444 1.0914265971486152 -0.27543174014559657 -0.1194457395638588 0.4981828620680259
Ni 2.023210317975187 9.312004160510675 7.471230331346966 0.8461017136397557 -0.2166864037855881 -0.07963940620019833
Ni 3.753650092079051 1.514076565043007 10.84449582503977 0.7140040896398414 -0.4654545185970693 0.2600174624730554
Ni 7.366365923303431 4.63150514327769 0.4260659348384794 0.8015432103030905 -0.5031744017453463 0.891613839138942
Ni 8.689284381805376 7.895458762962931 4.310249572270318 0.3476684261238206 0.47743765910087455 -0.3937279394860445
Ni 1.575304930535638 0.25486971041503387 10.651916728430585 -1.3847714800782343 2.3704028485159174 2.456370768037305
Ni 7.350944686826441 1.325881572217765 8.711477917177518 -0.8922409311999795 -2.0121147378947217 1.178913534366718
Ni 3.160934169238349 3.3764587612098227 2.999631762876093 0.6360369289357433 -0.9355835598516726 -0.7000746240429427
Ni 7.291952633572165 0.38246902775174646 12.61907201655787 -0.6706429490453869 -3.2545190937262336 -2.1284869807395794
P 8.981821976485204 2.921816483152229 0.48606991938061084 0.5987690457232203 -0.5203933367267941 1.2182223592686698
Ni 3.9243552596068243 3.835601617647106 11.16690682403696 0.39605658761922113 0.8285369652831149 0.8802081684051615
P 7.2538514638111895 8.360993745214845 2.6136004760879996 -0.4793017088928068 0.01817487113681386 0.3549675308883951
Ni 9.084953242544014 1.9921442137973708 10.300265946916905 0.27129483515908764 0.193630293297073 1.1966739436739326
P 9.035968686556377 4.505414404905101 5.341498870678329 -0.5619624184178321 -0.4915319324104116 1.2252183309705287
P 6.207359833905256 4.411629060409083 3.1857330083681754 1.8417884094309118 1.3786355423838255 -0.42757368439089594
P 7.342949870574321 3.4013004629908843 9.713759517724704 -0.4003369601621299 -0.4906217618913163 0.06828155798521789
Ni 1.8871773081095777 5.928407836073435 1.5924574454038218 -1.1741986453895519 -0.8384084587605561 -0.8498938336923363
