# total energy = -381161.93941919785 ev
CRYSTAL
PRIMVEC
9.32151390177421 0.00000000000000 0.00000000000000
0.00000000000000 9.32151390177421 0.00000000000000
0.00000000000000 0.00000000000000 13.64297782832190
PRIMCOORD
 96 1
Ni 7.007923303345591 0.7609384651794276 1.021738571268664 -2.0882389318528105 -0.4356212372857208 -0.14276667367798637
Ni 6.961343699505189 6.586600206691133 0.022690428590815704 0.8602381530411378 0.47205942550809665 0.7557678038401887
Ni 1.1260947811774225 8.732822801573958 7.323986935416057 -1.9341815157523525 2.797429659264408 -1.1561870393034797
Ni 8.634555404398549 4.741481146579704 4.259200943390542 -1.629783213171077 -0.18310239718255564 0.2602732872376034
Ni 1.6700889978118048 3.5923901911628837 1.1749581558685143 -0.34950290822939806 -0.6591519176866519 -1.500885584165699
Ni 2.5165756547553486 3.9684293743779424 11.138290674064814 0.4284900255575782 0.7443035119543311 3.4285318699026957
Ni 1.7278637395774263 1.4343945245069099 2.920252193869228 -0.4519032622751959 -0.13946434877763078 -1.467556116775634
Ni 7.311963114925015 4.114609351849462 10.199026059349828 0.10708387556439622 0.5857353524677138 0.4274471861153606
Ni 1.4400340402810632 1.8456410648773016 5.273051649786333 -0.3795789016791721 -1.953394598345694 2.0123844466163407
Ni 4.961618013558877 2.6869542817305065 2.800247958952088 0.1011885931258838 -0.19161403419799258 0.8053008775733098
Ni 5.553785812872306 6.00465810788059 6.123540964702474 -0.2392529762321944 -1.3486695921493548 -0.2658502671047486
Ni 3.746176523794252 1.4390086737766719 12.024797385674756 1.8745494059120167 -0.33394979098614747 -0.7612403969189857
Ni 4.481066019005299 3.8633386291914924 5.833723918690326 -0.9064658165501098 -0.34931084682325003 0.20669432556988274
Ni 3.055909114551588 8.3415709080392 6.112967571739461 0.23813274658482214 -0.35921705019336847 -0.6200914613500804
Ni 1.143376867533257 9.182240940448741 12.107310492585874 0.03612862740175714 -2.095504869386604 1.0626711322315054
Ni 3.9870910447578676 6.869470860711713 7.66029969164552 -0.33071251499577237 -0.45642788961842684 1.511842340287519
Ni 7.203600518438189 8.210491782723265 11.67901676800429 1.5266626931298029 -0.123193122421433 -0.9292241932925479
Ni 9.339877058228417 2.4627718778158254 1.911681192819686 -2.0409897690578593 -0.04383833734118901 0.3134606698938602
Ni 9.19675453724272 7.77239928296517 10.053018529881319 -0.34016954664361415 1.6070932277727292 0.12923650040203546
Ni 2.8929690554901066 5.767612015092634 5.596812987850676 -0.42848282646872654 -0.14985417665238707 0.2621651049436775
Ni 3.3570499353776877 4.444581614476315 2.013430175353187 2.812676043900517 1.4590617061513778 0.5285679021177864
Ni 9.150939297523772 7.102480738077837 1.4139850703126817 0.5874289381200528 -1.7946410623211477 -0.31655216433499034
Ni 6.299618765139313 5.862290629502672 11.568058129958619 -0.7649525556632504 -0.4814159270223322 -0.283656184937918
Ni 8.712408686622892 3.1964402547352777 6.37307136075708 0.1655024247126053 0.24223057080327962 -0.11754595143798466
P 1.0793194255498186 3.7943128204185936 4.937216155057095 0.2813097961929284 2.169809750747766 0.48742356666899284
Ni 3.1414153595041605 0.5292904609614086 4.275191067950843 0.990310004860275 0.07058706618994294 0.940450915246303
P 8.815448698800559 8.527926609455513 -0.06134208504953615 -1.0821251271910588 1.9690137929401896 -1.0948263768078113
Ni 4.964367860093382 4.02694051572399 9.730635843689699 0.057988917809958185 0.20365116786818477 -2.034308500382942
P 2.297930229964381 6.747014135546341 11.883524253002435 -1.0023011157838801 -0.34803480832430383 0.09039021695879917
P 7.722622399933801 5.85408769746754 6.013592778739311 0.2744002135572887 -0.031217563253384952 -0.23410999857867423
P 8.453503644264044 5.035938442099907 1.3977507220940617 -0.14908773080000776 -1.0597999813312973 0.03553521679213235
Ni 3.8107466490298862 8.772989204005075 0.4316215049640178 -2.1043088408314787 1.0638268431025035 -0.7868028187691223
Ni 4.353957858515461 2.734121140932514 0.38555365222444415 0.2870585257512476 0.02193690928240738 0.2443149641361341
Ni 1.2589449940918527 5.288616713322995 3.2357462814540736 1.3498677262225138 0.1479721291383258 -0.7850554970607124
Ni 2.956821424172666 3.2254860913505854 4.0867809049202775 0.5614129736722653 0.5351237009584333 -0.2891470328491601
Ni 7.962548840447729 5.177830523280335 8.073763820119499 -1.0799114073691916 -2.195924188446631 0.3168486125294866
Ni 6.402276595256252 4.082627238426124 4.653469278750945 0.12995486662529876 -0.351436120696369 -0.41232807108573505
Ni 6.988842164850233 9.15491026234987 3.630395866723837 -1.4003513367943625 -0.43541503481218563 0.7759838737767475
Ni 3.625201919303411 1.207853777632128 6.855309617134699 -1.6249161148867628 -0.1719785193552522 0.7397997105467066
Ni 7.425163577009834 1.6692407400672629 10.692355984850858 -1.4145854781158733 0.6184472408784382 1.730402564057052
Ni 5.414830008499909 7.474399812247977 9.881704022933063 3.0949127227830893 1.5066690236166957 -0.5400895296041408
Ni 5.390044103634664 8.275080550986251 5.537520703658555 0.028055363475319423 0.2763910187350724 -0.8603659368682537
Ni 3.858044009423362 7.106470345931287 1.8575054874844785 1.0177974116472666 -1.934537870650507 1.1053481022747416
Ni 6.515309270094897 0.5797701861239686 6.66597289564471 1.5516227055092504 0.4030353329298995 1.2676091372319138
Ni 1.8361610854685186 7.7843121774434625 3.053544246531914 0.17157845570335611 -0.23280387817274098 0.7617672159567332
Ni 8.59407207050244 1.5397089860215907 13.239595690995719 0.48354917131525105 -0.07642372747637806 -0.8020574309353478
Ni 1.080568508382441 1.5618196164617415 8.235951633027305 -0.20554324268457508 0.12963810671582834 -0.9496096989274355
Ni 7.744155096526022 4.155195222396012 13.081036743362091 -0.6538464463133385 0.1977504861130336 0.726038395096556
Ni 6.1933162231749455 5.028527838727259 2.2012130005133392 0.12330882206369087 0.09252834634772451 -0.25538047792167634
Ni 6.365288828988748 7.893364565942335 1.9663900887371768 0.9675356872782369 -1.8978163468597573 -1.5993621776770583
Ni 8.724163115368688 7.03292360302539 3.5879801830426326 1.6226224337565798 1.2392285292066918 -0.006697980845465884
Ni 6.180536427924757 7.613803049276837 7.646738753549259 2.4539809276488898 -0.17261512449798658 0.46944718469623026
Ni 7.575845845587 9.37520559506154 9.009931827991224 0.39676364098857475 -0.33827875737880453 -0.8159120774302528
Ni 5.053388315701914 1.573890976672532 5.352413152923497 1.0918333556177584 1.2981268462047968 -3.26248488554053
Ni 8.80716187314234 0.058962302607980306 2.110963969402272 -0.5087498389505948 0.3317568970998867 1.1823870947376154
Ni 8.864591718901938 7.170341357641201 7.800863457127076 -0.79210469059801 1.4738941431785195 -0.0389000194993072
P 5.347146497696396 5.193061876627385 13.907378677099812 -1.5686146120815565 -0.644993881018715 -1.237334140397456
Ni 2.7250699511528405 9.309992285382243 8.83339168047604 0.2815975026366763 -2.3659831221816674 0.5437700637795215
P 1.8665212555121826 6.9051163290098305 7.718514408856662 1.542916178874188 0.753199014671748 0.9796805501708868
Ni 0.13118166196637474 6.891609455692892 12.356799873980306 -0.5142998222345465 0.8226241993431059 1.6563874460221668
P 4.1528555224632635 4.65683248088535 7.81696264339739 0.343874249188711 -0.2430360974237105 -0.4949885235004443
P 4.055287238813577 7.925766147481104 3.978933788139749 -1.4265285094103626 -2.3404901201168853 0.1394260393405276
P 2.6688052946027776 1.2867137833335087 0.8233385420312223 0.4547697851897135 1.3574753633664427 -0.10688924305508687
Ni 3.924366579230138 1.7903365242358962 9.101475617351928 1.4577013354687411 1.8275648096323622 0.6041801894364628
Ni 7.895816124039197 8.074956973870064 5.569977282128015 -0.20034447209245496 -0.6121963748727198 1.444196616114087
Ni 4.877416780520985 3.85041901123616 11.851272747833853 0.701848942334546 -0.26796679922711913 2.8221441312919526
Ni 3.874207514138042 6.29289795377871 10.3891551095023 -3.044465621876131 -3.3420520437418957 0.6867051447145722
Ni 4.4898934924567415 5.607738734030651 3.8851649534645167 -0.6021065947368855 0.12031785775616696 -0.28982400431152666
Ni 7.417622472445719 1.9218444391809408 4.167520127778797 -0.6414478155386695 1.950573326846815 -0.13609594652603013
Ni 5.5089493320893705 0.36631498014795716 10.34676552605939 -0.2885266256563418 0.915551580901462 1.946654708518699
Ni 0.25570030595694015 1.1500137852707726 10.575954514969604 0.9457211625063068 -0.2626315030571348 -1.5399262430079286
Ni 7.0799040319538715 2.891030180645439 1.8195911627575525 0.26008636803777785 0.6637073982678183 0.042798326112448874
Ni 4.311461077665272 6.894387266768425 12.706673568306028 0.6836840985000613 -0.9634013533948891 0.8596408857767711
Ni 2.2041837669219713 3.5965848723172122 7.076012299994023 0.4138691903206098 -1.5311790929429177 -1.6853851188060975
Ni 3.312176168540046 8.547352643956893 11.097074669193747 0.2243773446719426 0.1230105740969817 0.47453822606589247
Ni 1.3936501882278634 8.930038066423144 1.1553298445203588 1.4640005382138916 -0.149819980980342 -1.7486900495123303
Ni 0.8286443476157644 5.448489994384978 6.941410574659819 -1.7795098631066644 -2.654411017476616 -1.545513764398035
Ni 5.620863425286861 9.062179844298177 13.001716254885102 0.7144887425857437 0.6088500841083062 -0.6550602641157816
Ni 9.050052555005328 0.42928926224221103 4.443436000445499 2.093815397499323 -0.6080013629547658 0.36449783897633353
Ni 2.372166764882324 4.542960869815838 9.1114626871047 0.4205085500139984 1.8032385741821717 -1.4419913809326521
Ni 2.1522909002860864 6.270302604627393 0.6352798000662525 -0.5382542761676149 0.5181839877803011 -0.329018158012485
Ni 7.877751030534554 2.539720973213567 8.593916401224046 -3.0224322962251753 -2.486702586251627 -1.9130987269401243
Ni 0.2585778572288097 3.517240147904665 9.084189802390622 2.5794903569083254 2.7299371728393886 1.13742081443957
Ni 0.5714777675575444 5.729561596266034 10.57367633702712 0.8213931551494822 -2.859788166896972 -1.1938950953772147
Ni 1.04743984877692 7.39987431040607 5.256339107916119 -0.5457050760187053 -0.20892578600356276 0.30007062174019933
Ni 5.537491806966158 2.669308656341297 7.564498766988857 0.5880701712484775 0.4625936521095065 0.3266126338947859
Ni 0.9954537670042723 4.750616229982464 12.928412803486156 -0.37576158481561095 -0.6442760290160839 -0.4432319597534431
Ni 9.111807583110723 3.2129206909149515 11.504713783771416 0.8322203276719733 0.8930130334793137 -0.27614085039747926
P 6.09913164898975 1.8681991279739143 12.584269043617246 -0.1599102753368085 0.11973061779412929 -0.06318871684334279
Ni 6.697218609487622 6.416361402421121 3.980829784021506 -0.9396854978351882 0.536208963602812 0.8000082617158027
P 8.677583511528287 0.9985485095447993 6.647936698832464 0.45634612853789797 -0.37519054280348935 0.20050953691540951
Ni 4.678374498991246 -0.13539685045079133 2.4978515302337927 0.32597680008299995 3.0355032704765206 -0.04746924922555696
P 2.175492147826363 2.2676819180848327 10.095312101733363 -1.7143920475614087 -1.3372564652164065 0.14591061862360677
P 5.123775065471551 -0.047663695880953885 8.360785344180128 -0.8407985562592875 0.5834954073936016 -0.9711863966569467
P 7.504676088668555 6.367274311401798 9.891472037114443 0.3815519662451429 0.7411361699699429 -0.5197310205524468
Ni 1.7095190006624952 1.9722365421149435 12.587365650460507 -1.557424399792692 2.0197398585401474 0.9144107824287994
