# total energy = -340894.3801632755 ev
CRYSTAL
PRIMVEC
9.01769576683204 0.00000000000000 0.00000000000000

0.00000000000000 9.01769576683204 0.00000000000000

0.00000000000000 0.00000000000000 13.19830927742180

PRIMCOORD
 96 1
Ni 6.335968178622532 2.071617169770923 11.588867833373778 1.3889721484231434 -0.20442404147846732 -0.8076626929372671
Ni 4.436543905915858 0.5574784494873213 6.088406283685893 0.5487168662618357 -1.2841292463741238 -0.7107845542612791
Ni 2.766800339583964 1.6134370751420974 4.719649047973666 -0.48545975807440267 -0.3038871672728121 0.749202234807529
Ni 3.415262828606752 4.484932860388064 4.928169731674382 -0.1326324134574619 -1.1902533848595696 -0.8919668516029864
Ni 4.838255190834481 4.444263053330731 2.6726574012874806 0.9569383713783648 0.23454091546850575 -0.831576266330071
Ni 7.364174846135636 6.212146200639332 2.7074215195107008 1.0185453455568847 -1.3270386441431403 -1.3291778019733302
Ni 5.303947025879882 4.5335021687718315 11.448028562065103 -0.39736785023147697 -0.738562752815812 -0.31668046238273845
Ni 5.437535168174189 7.718182521445991 12.365284208493662 0.42601379610294365 0.5021282198690191 -0.26195658847729725
Ni 1.8918854792033637 6.384817035569221 0.4476023377156878 0.09589777704058967 0.027542942615275144 -0.6792494597674754
Ni 2.816938726998325 1.6022010264517568 0.39598234291784123 -0.48199185413046025 -0.9617910714849758 0.33374564539514134
Ni 0.7196382584513511 0.11477632754878522 4.6818757247360265 -0.717204855965326 -0.6120449368965202 -0.13425323689033652
Ni 8.44189768006821 2.434047372751244 1.3013048727878704 0.7641295455413226 -0.2949700672888404 0.5774715697970249
Ni 7.019473432661904 0.7253230137437995 4.831188022809906 -2.0357436901675716 -1.059460852824324 0.3519557406452648
Ni 0.7625669982510032 7.448057450403331 2.614558192216753 0.08968342069976168 0.26334292730186265 -0.42324394666729037
Ni 7.363417359707074 4.021224918369849 3.666886293631777 1.1240539062143609 -0.44901282810127835 0.8623333450072698
Ni 7.613541181957457 3.9517075031581026 12.859217662550627 0.9302580338737012 -0.1508031708292177 -2.347664012157505
Ni 8.043946774205665 8.84569205266538 6.9415578375582525 -0.38110228030223403 -0.49878115777365706 -0.20666655765574082
Ni 6.969758876939715 0.5919089129741508 0.3081932729257032 -0.8626465053723145 -0.011539368098167224 0.23115991481141482
Ni 2.024148020247686 6.073850821253246 9.02734000354329 -0.7520875267751241 0.9221382329800442 0.7230741702619096
Ni 0.14894167078561787 4.907339756658477 1.4598909689942903 -0.7257620015067178 -0.48301643874023265 -0.25651304886422277
Ni 6.328176889643035 1.9303549685396342 6.8737059907197855 1.1695315789311858 0.41907233178810405 1.5016659139751494
Ni 3.135741318771689 3.9634485428008177 0.5683177195722244 1.0961409818541767 0.944095968198058 -1.0659102079940932
Ni 5.722954250917343 5.571538124465088 4.689873518944264 1.9178223576680389 -0.7976680436184005 1.118707811411099
Ni 5.600791528920518 2.725075462143991 9.443152259037422 -1.3397851451755314 0.30715066851543227 -1.000255031888129
P 0.30691546546228327 5.5365224125352395 12.400682270716024 -0.15850542456948186 -1.1809012542207082 0.4838031963075861
P 3.93899255239295 5.767050782294363 12.667551953654982 1.4817527199909901 1.9022221892369369 1.1793346810645366
P 2.3840171976838205 8.377772846812181 1.4331652246094084 -0.20883399762070487 0.7429325997487335 -0.18948130412570593
P 6.400841480611546 7.792362085271626 5.730256780796506 -0.5403409834933146 0.14848634977058298 0.0679344590584443
P 4.7241452709889185 1.0725466766707326 12.622915262312832 -0.19262190663721665 -1.4322795529615269 -0.4218925748457186
P 3.9955154682766216 6.270553814898832 8.094774113562195 -0.011502344212644707 -0.6696330197236339 -0.4889194344882289
P 4.815864252714003 1.070887420684358 3.8342934996527163 0.5027848796164115 -1.0939964247073481 -0.10306318444077733
P 0.2539166650105418 5.563999330961779 3.6198869660481607 0.48983988941996925 -0.6461814735689129 0.11863224252362793
Ni 1.4034510159099371 1.1658978612954565 2.555879145320352 0.17412616182587431 -1.049112162600148 0.25580908081866266
Ni 2.0002511269656615 6.581871719342354 4.737717804603551 -0.2562294561855329 -0.06909968301113906 -0.29951320657483255
Ni 5.8166571256696145 5.58070912086804 9.180981697264226 0.516148445407511 0.6650795960249966 0.45109233633812634
Ni 8.927076755257936 2.406579472020283 10.176001441510723 -0.38375771564721 -0.017087551609906056 -0.1228989882197819
Ni 2.4668447315688757 5.183678019954462 6.848021790174177 -0.099447442065061 0.06312752458810418 0.8793221662557823
Ni 0.32300303437365374 0.05663834238707172 9.351582971058937 0.6778983450562195 0.14375603417444918 -0.10536689287328951
Ni 1.5373818306362124 0.9640367457791846 11.506840169086503 -0.07650651699817146 -0.7304982306401225 -0.6914521724812543
Ni 4.0675127497723516 6.901278496719453 1.4622274539185818 0.8658914946721732 -0.06757399039523201 0.22850679345928387
Ni 5.513788801982792 7.904650430610408 8.043669930951419 0.1874856138519158 -0.2949600399865114 -0.7457469292690769
Ni 5.153477757463331 2.8381032585201784 4.9819395450980535 -0.26811746587237056 0.463612323182008 -0.6799279738917388
Ni 1.0094949491885001 7.388811190455067 7.0249183172519745 -0.6316521696044863 0.12094572114815298 0.05379339167137187
Ni 4.903254740561588 4.469909379554911 7.127548710626587 1.230149706833875 0.5046581853797244 -0.47918575214023273
Ni 7.971751103407217 7.262527381579039 8.959632439834074 -0.16720809454980234 -0.8268608631322727 0.0898903945042452
Ni 4.393141737098355 0.5723125587133328 10.41248870450787 0.26864274224822116 -1.2172502251633874 0.08708994894097259
Ni 8.353551316489346 7.105439124608146 4.865411079298439 -0.6030401622947485 0.7113504540670781 0.11986097272440649
Ni 7.049069509549302 6.061613808353734 6.854634466341614 0.2861267579655975 -0.5297452102553394 0.4019744957655529
Ni 2.3242569290876025 5.063850881112371 2.474696439108747 -0.029685185769258552 0.516006263402692 1.706860515071054
Ni 2.5648039586340197 4.995812367975437 11.372230321883194 -1.0932083815884142 2.0950258728676565 0.41403682624672566
Ni 1.0417963347493349 3.2387053668826917 3.833396238942693 -0.5149587959747841 1.0134681881442933 0.06393767919422537
Ni 3.660958962328277 2.5145934296550343 2.7559385252601154 -0.7922633276630613 0.35639500736354107 -1.244720405559198
Ni 0.9417810730923784 3.4178599249332513 7.9754213055075125 -0.1965559515843002 0.08935869037049127 0.47021208788671276
Ni 3.5619536825760707 2.629064057323721 7.101283770485748 -0.5338126954564936 -0.10534246739325728 0.043556287324395954
Ni 4.228370403494901 7.0176248050683885 5.860497554492215 -0.0912026855577655 0.47037355316524154 0.5924281911068571
Ni 0.6868643456422228 7.167453817098894 11.090433647453771 0.08496853172259561 0.6835861394696162 -0.03937387381193219
P 0.08396827237568755 5.678947896496106 7.9464510566932365 -0.2254063001570892 -0.7615358166722175 0.4816221294958674
P 8.426477420629622 1.5923987913583377 8.12369115797256 -0.12565341103646746 0.9529050818492557 -1.0487686632178004
P 1.8968812825536436 3.5129154540222403 10.155716135307737 -0.26973571820208386 -2.644746497803658 -1.2478607509603927
P 3.9888694266355453 6.145992385878226 3.680902497868853 -1.329207369659685 1.4238332219663865 -0.7869894808586317
P 7.1681842504407225 3.899756558932539 10.3592211767279 -0.6999442691126656 0.9559438686755796 1.443504732253385
P 6.240515870928106 7.684203844507626 10.232239398214128 -0.9538808154989635 -0.4891462057870544 0.2566436609048161
P 2.430521453780198 8.495534933366883 5.81765628633967 1.1399389528757335 -0.1057805833719404 -0.7144386060740987
P 6.695530754409011 3.9635747905389116 1.5531898509846611 0.8649820954840264 0.6848135841188142 1.3529687337453409
Ni 5.257677229868536 2.8893688578818044 0.43030008520994417 -0.4439806649940096 0.26810178214308666 0.31634416208924226
Ni 1.3959753462756737 1.023192828771668 6.8916025093641275 -0.26472849479547955 0.7647108719660894 1.0476386633784152
Ni 6.742729373064903 0.5572178380851136 9.229379669432008 0.38654916234941816 0.7712772123296975 -0.043727265684621465
Ni 2.4832749729122146 1.5233142255343413 9.154796112844473 -0.16902817847767665 0.7647679504562699 0.37587625601660424
Ni 6.472613319717822 2.029261053640482 2.6581524379500707 -0.7787835480090716 -0.5255293724017789 -0.09769909191538657
Ni 3.951626343897899 6.941434295128833 10.290708332803556 1.0035136480347426 0.1688003787375867 0.6017067881953057
Ni 8.158994534391352 7.139444854633245 0.11467082051052119 0.5383967152827501 0.6933637876816705 0.7652204646126564
Ni 7.408785386160608 3.9977698921711524 8.270799531247146 1.1111659945080994 -0.4183557653370537 -1.5706984911937787
Ni 3.111420593797493 8.316091809057825 12.502493857332142 -0.24237789501442128 0.025397099916865933 -0.30351512864537405
Ni 0.1811059873736652 4.87504738879322 10.21011989273055 -0.44095164835969863 -0.04987554467420442 -0.3819234906519487
Ni 8.642784884462046 2.2948141530250328 5.713719228875789 -0.0690570026986617 1.1494528059034397 0.6648769930958872
Ni 3.60993684074726 2.6574968514815414 11.416972520263608 0.046051800052740045 0.2975062034471328 -0.06093077404710152
Ni 1.2253966167199088 3.241843524943878 12.387233279530813 -1.4900694673868016 0.29134481183142724 0.4488390215275754
Ni 3.0974251302602465 8.455694754302739 8.015135236833565 0.17754315792722328 -0.5158828504509503 0.030181151569070603
Ni 5.847218095983871 7.578669753156858 3.4587091841325885 -2.6095480955256543 2.123399281804027 1.1263858967816471
Ni 3.2875091353514905 8.407450082959784 3.5160563173921 -0.040066271893266475 -0.06532016136404879 0.32269324423572165
Ni 3.6947663030506583 4.2901776889873515 9.300967547548494 0.3421536669531785 -0.3855873126567811 -0.5590776406708694
Ni 7.2870915843338455 6.0260389992980405 11.299297003586455 0.09870747857524291 -0.07435347521091065 -0.33510164520240354
Ni 0.4617727445471495 9.28498007505804 0.5441989909789782 0.1521242036334864 -0.8909389245591043 -0.6421512693635973
Ni 4.7069485255214385 0.5069486940848698 1.6467132735949273 0.12313372993840728 -1.0254148189832082 -0.2544584803280392
Ni 6.09937991743491 5.667513458503047 0.26782826397891135 -0.7948531998774246 0.12849062337494646 1.1336081255616992
Ni 7.795211677074313 8.740608846093519 11.355362722304317 0.45640680657250426 0.20064194872821575 0.31796215730863947
Ni 0.23940629105578487 5.0392415898796745 5.860775299516021 -0.5110142095047392 -1.3343608888361667 -0.47364271083481657
Ni 7.70070622741559 8.776075442802275 2.5627416116553037 1.2039725342178749 0.4215071664818418 0.12994123977854394
P 8.456659647729598 1.5690068890286881 3.586838013523899 0.6934087819869929 1.1457756141621684 -0.7335606716155302
P 1.5680690486885631 3.0604886491722567 1.6514782239384074 0.1775657836350426 0.6996727606188338 -0.5548096094231348
P 4.704405535368409 1.091853562903493 8.200267625282862 -0.011611358986683229 -0.05134415879993092 0.7590778420500282
P 8.536926156070466 1.7010259522924012 12.260978327280636 -0.19046449397458165 -0.40404037715564606 0.7912436281492954
P 6.3757362161220525 7.655076687790289 1.2986401437445352 -0.8188148528993446 0.11929173048449779 -0.6438811075705105
P 1.7792995499105042 3.1643905376233845 5.949217250668014 -0.23991606373749 0.30861594020704913 -0.20767931519097138
P 6.762956064246632 3.9434112232262297 5.9288390622005736 0.6958353891506145 0.2949736668332662 0.17080789608591873
P 2.2265682328898015 8.267684819194463 10.047120536308197 0.3763585949696615 1.0751342976955225 0.8414816983692411
