# total energy = -381167.0868960016 ev
CRYSTAL
PRIMVEC
9.25392316710069 0.00000000000000 0.00000000000000

0.00000000000000 9.25392316710069 0.00000000000000

0.00000000000000 0.00000000000000 13.54405195594870

PRIMCOORD
 96 1
Ni -0.19469791148189639 3.8867864393673193 7.011241185522319 3.0809868567306165 -3.640955898867504 2.3414185454684255
Ni 4.6184941254279925 5.3726240667476155 0.9468549164328811 0.4156334813098842 1.2714058852701846 -0.778772235155162
Ni 6.803474884078935 3.4567473868957674 10.507611094226686 0.9670068113579604 -1.8270187073209054 -0.1971215942797831
Ni 1.6359177494560766 7.1350614505001575 4.388692382704127 0.3851134583441561 1.3032487408123943 0.36135106581723575
Ni 1.5590454116780823 2.936491839781425 2.9027881270787366 -1.4814845539312678 -1.1414520470861502 0.8858378558871132
Ni 2.8713997458930884 8.886680998347742 0.9617685386265751 1.6733469566946408 -2.398419902554134 -1.8214239868419468
Ni 6.2189045726023595 1.0806731197440937 12.326211461632585 -0.4879694118701338 0.17733515568147523 0.3654774292807835
Ni 5.66654716684448 4.966191771670028 5.6591107143780786 -2.1699722444675595 0.591906257165116 1.9370925187515606
Ni 5.11570740444709 5.933384034525769 3.132671304324385 -1.1196328943285299 0.45161607005208027 1.0697671198463383
Ni 5.134104203231567 4.826818438424046 11.003160517903003 -1.0608384498981407 0.8272750678515558 0.3666323688208331
Ni 3.744775738086339 1.7842026104834732 2.4430486089639354 0.5334252302100877 -0.5001433282285065 0.10105463865118079
Ni 2.485677730332433 9.344056139153976 3.057637721032546 -1.1218628121003131 -3.083535334184083 1.3467695469131644
Ni 1.0022091072221706 4.721490287636862 5.085588661487413 -0.4691095988511534 0.13969729072404327 -1.6523747253183476
Ni 5.258782306864999 8.13661352919431 13.32416376430704 -0.355423130368575 -0.7186703847672591 0.4430380985750822
Ni 0.5117946853796106 7.698042359781468 2.444417264165255 -0.42683243534949716 1.084006660484488 -1.279692293648693
Ni 2.847321038429703 1.4328866803758797 4.67892779451346 -0.5510483426084897 2.2665819599735095 1.4350676572296253
Ni 0.29718603332191873 2.4123588989594884 10.630563341233707 -0.9881207105184401 1.5757262834256733 -0.8091703878310452
Ni 6.819169537367904 6.2786293911914015 1.7042885082384478 0.17005790529377163 0.22775166046081424 0.3756170888179466
Ni 7.172289982446813 0.7628212257353064 10.16027342558662 1.3481977947192587 -0.2087614925115566 0.4908048244363999
Ni 4.077676361563595 3.1466669373634413 6.256133104549016 0.05669976668488945 -0.10273022658139083 2.2112327937792435
Ni 6.024202034158999 4.153114341287468 13.02486783655712 1.7104101800955251 -0.04031721156180799 -0.07209167575992746
Ni 8.284630026456743 2.3781841615796724 12.829710930497907 0.3579371550396803 0.12029446071739928 0.47931842106335515
Ni 3.130065399627348 3.848021756214313 1.5817693448245422 -1.6596635456702775 0.9240177093909442 -1.3216604105503624
Ni 7.973263281637171 0.31639995350109895 5.2303607333706506 -0.21728418527058707 -2.153343377661627 0.7077048868946909
P 7.086080436432633 6.071637643097243 12.972032563589329 -2.6553502414614334 -0.41010303840995826 -2.08397192904634
Ni 4.245412968589468 3.463289910407149 9.092135669843259 0.077691281334892 -3.146934624376335 1.2330825642099539
P 5.057268881145292 2.260418738374814 4.621311944960122 -0.307991933469805 -1.075387037136277 -0.32276137846949576
Ni 2.642763072066086 5.684592316557624 3.1222967313277668 0.25308576835022867 -0.5184009888871136 -0.34063645897770367
P 0.27033670133334614 5.003281494772736 9.780972707146967 0.6304419513464691 -0.007837236656231664 0.9840771365766858
P 5.424945746992803 6.353178994314012 9.524867613887388 1.0057368809383067 0.8702364019044302 1.7237902009468573
P 4.655435785763824 0.7208102664185208 0.6770836297905468 1.2692124771632916 2.1348412050923815 -0.48560348274111853
Ni 3.7224737838254787 0.4749353849578543 12.17427407722479 -1.0316577145691264 0.2515654750509603 1.3069902101326976
Ni 1.1985588439470394 0.9741234511301744 1.1309395037065697 -1.2803556382643047 2.5270455088450476 1.072859642728733
Ni 5.62899474759528 -0.0848353384591024 4.850991535901316 -0.778790489987607 -0.7416773871853937 0.6378901800943982
Ni 6.4630415673368065 6.509773878132385 7.660150321560744 0.7214877996113961 -0.06715104392520048 -0.6963357258258007
Ni 7.466296367850046 3.8208244767235797 1.8125464510252114 -0.3560872463151351 0.06805015870070215 -0.6539968558482736
Ni 3.4986676577678413 8.867673440649897 5.642139945117086 -1.1833170627510525 -2.387089308032663 -0.4638180114349109
Ni 7.489468190866309 8.156814842950102 0.1404921325281971 0.13348550548637658 2.0502421408940625 -0.07587916782681771
Ni 7.8969091635432465 8.115570108451905 8.857566306025952 -0.4795014836084387 -0.7087358992623666 -0.5543943762625871
Ni 8.844677442169301 5.9970602782058435 7.877735035232664 -0.6103438950450134 0.30682182442110384 0.2607738810231057
Ni 6.83514180834477 1.4612499541557702 3.7409483155625662 0.48472725078375234 1.7414927604329427 -2.28742152242668
Ni 0.475407335027275 4.23416019830681 1.1906347097422367 1.0824657983599293 -0.14396069398608755 -0.7043202866931741
Ni 0.6308676878944519 8.411889974587593 0.018308886516644026 0.6121716922823716 -1.8300950322533838 -1.0682195728535604
Ni 5.950855441017265 1.7717930998345877 8.383064004661211 -0.9353570456631632 0.396844116517523 -0.3641132019434052
Ni 3.342091281795328 3.6356627328208604 4.01258796924443 1.7782255970776022 0.8434020553204055 0.23120799444053086
Ni 7.633690579727516 5.886031710893892 10.207447148505953 -1.0059415407499448 -0.20107003740456986 0.29344643155546235
Ni 5.788152968065212 8.758005200008629 2.240687523903857 -0.6893055584518967 -0.6427032852123254 0.25369203447565986
Ni 0.2590543184973126 0.6663120635002392 3.497155566761109 -0.04099469724480682 -0.23018880914739712 -0.4045741381719291
Ni 2.734608257144525 1.3276418148950646 9.491888483350102 0.387818515980145 -0.49623576564398414 0.4099410589107972
Ni 0.4389700134911184 0.39298449427597604 9.509373770725995 0.6053919503563768 -0.24664669759310426 -0.9447449146359665
Ni 3.131916184213312 5.049662156496982 12.558586720323232 1.151618703206507 0.2660528700338579 0.03933787836767418
Ni 3.244665981190209 5.40838122494843 5.603770404473184 -0.06323628225182658 -0.06348310815531003 -0.13035775849067227
Ni 7.014353279803617 4.2365384564997735 7.944845409711994 -1.5579013394291104 -0.48910378258489307 1.515101984875397
Ni 1.4283244963714796 1.075629731747343 12.24257635697748 0.05320152372364386 0.0774519116305763 -0.0619144781166095
Ni 3.9703678712694312 7.577880170537787 8.591235627928922 -0.9208236279336787 1.4449064976969181 -0.6175915777463621
Ni 3.8513439145461184 0.8401830960362882 7.378175886750859 0.1647876580337678 0.38476353120390505 1.0549732493666153
P 8.384979566707685 7.4852946716249615 6.192476294107093 0.03459007927004365 0.06285627320458853 0.2583688711260389
Ni 6.975856960415576 1.3915031370337354 1.1165922215961805 0.35568486867039384 -0.08540047705369162 0.46613868914828754
P 1.84825826500367 8.798861269743774 7.728289732269869 1.254649491747452 0.1534742899034776 2.252287140617392
Ni 1.1242683506664641 6.246786642389901 11.793835126264765 2.2075237203587723 0.44326332721201084 0.00175529212820988
P 1.9885569905426341 3.9025088544250788 6.658919353992255 1.183294179932917 -0.5612371102160335 0.5825872937570353
P 4.73931334319969 2.067474445288118 10.64783208681304 0.6820247085197674 0.5284776563968254 0.6941780560528497
P 8.646800808161013 0.33340033531546676 12.229479279854909 -1.2066521379325672 -0.38513068473533674 -0.8836776150110006
Ni 9.145170827546336 7.757859717599808 10.832952188062576 -1.126593127696447 1.6559948385694383 0.8840545387344452
Ni 4.39850061561744 5.244262901788115 8.067636638460037 -0.22921436104926976 1.6320568396966022 -2.870873735287172
Ni 6.308797179942608 7.835620431979065 11.168154262172479 1.618561890533961 -2.0852384544635894 0.47821798891032485
Ni 1.0246591242499081 9.023185615485481 5.889644442405694 -0.5084693315956984 -0.6227582095489662 -1.417075591527579
Ni 6.953786354227962 2.843832309485162 6.064647229716059 -0.6090079498424091 -1.9309578666087326 -0.6766351620730798
Ni 5.811167474391668 8.716482847822538 7.590736645664181 0.5424361754594464 1.1484526467736995 -0.35115869866526617
Ni 2.635526504334969 2.906407336336588 11.197003366906182 0.4502436151845859 0.6891749464113035 -1.6542876260703445
Ni 1.6470409648177173 1.8855515744108349 7.3954039150693 -0.07837622321705857 0.03167007740977127 0.6844986239815566
Ni 0.4672176132343865 1.9242699879491916 5.389381070388929 -0.13672123881485485 2.0638880138122713 0.21037948773095383
Ni 4.0693755926955495 2.7353948405935595 12.999933141222728 0.34230459070874597 -0.09497963610169449 0.1332402222447899
Ni 4.864926093049035 9.23324041206941 10.404364150706419 -0.723083169122974 -0.038230247125792226 -3.274987388882914
Ni 6.035380773058218 4.003024965288757 3.786523885991918 1.053709037942211 -1.4827359098398656 -1.6290923577516394
Ni 8.745429118747007 6.307483122886573 0.43960575799639684 4.0870453826743995 -0.9295869759486055 1.2456526875654805
Ni 8.893001427708809 6.021592427892791 3.714347914100806 -0.8879824130339418 -0.7181268535589632 -0.5494969389609698
Ni 8.428630321167633 0.7153726613049599 7.404655061822239 0.08639112310173509 0.4546152618897203 0.3261979149548705
Ni 3.18325694862794 6.010034278153448 10.203154253658811 0.5106246873758045 -0.6668418301317419 1.187935021139038
Ni 4.731595571476222 7.023607202733434 6.165685261832979 0.5548764581053283 0.7724946296765663 -0.20228976874428384
Ni 2.151176178188318 4.44822194351935 8.757705372905704 -1.3131670283673706 -0.3478923692091686 -0.28250304517008124
Ni 8.431258435279702 3.40742397767984 3.9959151763017786 0.3011867376225136 0.08989425115898712 -0.344384098945594
Ni 5.23841442249647 3.085665077410084 1.4558632456183234 1.5978637387546613 0.13392953500233062 0.28233052414795895
Ni 1.4726137715135863 6.717644748904877 6.599217670210536 0.12407578213670244 0.27745905498827056 0.6556361912239095
Ni 2.3277502816121665 8.304155803838658 10.510211446569965 0.7087749800304181 1.6122241212413913 1.3597410194721677
Ni 1.9957472886591023 6.555895430014596 1.1477908973617674 0.5869147174877957 -0.6372227217137284 -1.799885598549539
Ni 3.3588408822982982 7.311061810702357 12.341990325620216 -0.5371343036305588 0.06204354749530605 0.2873783709845115
Ni 6.787160217953666 6.940849369972076 4.567054344038016 0.6863829854884631 0.6314539375507512 0.008460472062527364
P 8.942685739918998 2.1811959041726463 2.0888038122490546 -1.5271404040971701 1.224065448313008 -0.6989662214701123
Ni 1.4559104406252656 6.9749038063538045 9.046979302122628 -1.3506627113199836 -0.37628788963272614 -1.0883227713613388
P 1.6664186794327551 3.664979160662522 12.86642957129113 -1.9009983441321645 -0.681470378678194 1.4943318422075813
Ni 9.008185006416246 4.601143019934585 12.11977309812963 -1.6475811605844464 -1.2944802505911448 -0.4068403084982864
P 3.939663354988297 7.689861891911508 3.052978370837382 -1.019386096290625 0.1562618799509438 0.3682961296765012
P 7.99007765960065 2.318801738139033 8.726134689438338 0.8697514918482118 1.003068590077524 0.6560020592037605
P 7.829225971234561 8.609997956669128 2.855830945955963 -0.34300315943766735 -0.5361107474620509 0.5179284201260693
Ni 7.804980693158439 4.94175216121238 5.802651089119357 0.20209487912465837 3.5454409590876295 -2.6475073483782467
