# total energy = -340875.1381568581 ev
CRYSTAL
PRIMVEC
9.21029414580969 0.00000000000000 0.00000000000000
0.00000000000000 9.21029414580969 0.00000000000000
0.00000000000000 0.00000000000000 13.48019647319026
PRIMCOORD
 96 1
Ni 0.3346081337486158 1.2275848063724686 9.64324674498081 0.11639641121457373 -0.10598832850737229 -0.008379996533579116
Ni 7.098953723733253 4.264218690867253 6.771372123167777 0.9777568507856127 -0.08923064943305922 1.0789953233128258
Ni 4.969975878210843 0.882359045866056 13.212344295849983 0.33691273026921337 0.7405746410395181 0.053117705760585936
Ni 6.039935715522821 5.959410116335263 8.622594215829714 -1.1255664862041455 -0.838324640797498 0.1661822243884493
Ni 2.4524341554695503 9.118181707661366 9.581318571148339 -0.2739037335368444 -0.32274260941641836 -1.721520945296706
Ni 0.7229030703868892 8.871953711701149 11.57956918978884 -1.2698732506757417 -0.04343518836549939 -0.19124559511498032
Ni 7.120063717252399 4.114376420115522 2.0201821703716476 -1.3868227061803085 0.8815824230448689 -1.8466745338786195
Ni 7.934658947098491 4.7535708137580395 9.42242810771196 1.103451656582977 3.4646142174475494 -1.1501485464188839
Ni 8.36187842763319 2.0524495138685817 5.844931689875028 -0.7878328026955335 -0.07764500147798886 0.19136540852229625
Ni 8.577288780349491 2.4032788171573007 0.9580602931315687 -2.017724113661699 -1.1693325755465023 -0.5949977516062462
Ni 0.2589897791278118 6.18112952034328 11.378498343577757 0.1579310401232506 1.7529267133014972 -1.2524267730645207
Ni 3.6566156051526004 6.601791271652137 6.324503401719576 0.7951226514887274 -0.1884898867467141 1.8511261418920701
Ni 6.178946680699284 8.75913682225263 2.2629065705488443 -0.1962772440016168 -0.45818858106327537 1.0824012636705809
Ni 4.049885942532167 2.2105257873280415 4.824427446455022 0.2997134955110967 -0.14883859090367915 0.4214392893583839
Ni 3.6372003057030553 2.766560437740036 7.615555422027942 -0.3539642864348614 1.0353145945954232 0.6640974346173854
Ni 0.05830484422931691 6.751661173285438 0.1853949260672853 1.0060382142288093 0.8679049255577763 1.3992899854093837
Ni 8.396997278108103 4.738309356837785 12.786276102047347 -1.152404689442912 -1.8706032767800753 -0.40343282547863424
Ni 2.1129243033304945 4.606390317930844 2.919150139149167 0.5952399495240394 -0.31461149566885166 0.28178647871903084
Ni 5.421805263930166 7.79384276432615 0.07694463693614295 -1.316624647898668 -0.3171124077138345 0.1683956871000003
Ni 7.638851939308624 0.24806821267274987 8.166342968029877 0.827864878916755 -0.02805793457848071 -2.8755161191551895
Ni 8.49714080321005 0.5873763593763479 2.9940860109952028 -0.6611026136551196 0.8497449668192978 -0.33503608207179075
Ni 3.3064862841969767 0.721045354116029 6.532152239802986 -0.18493122286117827 -1.6955949694595638 -0.010790662857600771
Ni 0.11395067662225637 7.902340025955961 9.208146937022471 0.0924751245122859 -0.0600573703032127 0.8521458629513066
Ni 8.360156102682021 6.599571590832716 5.312666965847941 -0.370035223854795 -0.9863163103198499 0.2581662681969295
P 0.023493617569212304 5.411673940687994 7.442713205457707 -0.6728453560133445 -0.4587048585780616 -0.2363075204506253
P 8.116212259598221 8.753573804763292 5.76210996442904 -0.9183476555893604 0.2217951857670632 0.19131810022412857
P 4.210080583578626 4.886005629120947 7.752487623880987 1.136350978414159 0.44406319740548683 2.3957444126045
P 9.086940390900049 7.853543889104115 2.221967735385997 -1.1441275370357844 -0.5443598748447206 -0.859394831204236
P 2.8814496433062717 1.0298674281545446 0.37386793234141974 -0.9146766344956763 -0.10461844474303918 0.060832300796024266
P 5.034945291074738 8.574894103946795 6.981541818679717 -0.21859364811062995 -0.3185177727017934 -1.3062582170626793
P 0.8635764936044539 1.8310064186762607 3.9564106701823403 0.6556516178428773 -0.32295215432406316 1.0709318295784007
P 0.6666281749235493 3.8970226953954965 11.144010709196445 -0.14485646632747956 -0.6596720518561799 -0.18508008973421675
Ni 4.6233833100961235 1.3543184498381897 9.5249985452451 -0.10322850637404801 0.2099549985990255 -0.1873496024946838
Ni 3.8244179489245465 5.248587267370586 10.160010544447372 -0.263633719069404 -1.9241457287829056 0.35593272301514184
Ni 0.4906231434429866 8.166942558159937 4.2677361020910585 -0.36775928333642466 -0.5279948032231359 1.0559425552584203
Ni 1.8910022728576348 7.127542475863892 2.638236176525294 0.0758899664600951 -0.4255697665869896 0.43403460952489115
Ni 5.1684300799372895 5.835725080136051 1.7740610138201662 -0.9767731467161047 0.3584608887536343 -0.6767791438501117
Ni 2.502234214351756 2.6469831926008314 10.070609906099671 -0.14904350782563364 -0.07300338894091943 -0.33361194803075445
Ni 4.2111489776659825 5.9210400321289995 4.074011386259936 -1.4682235751563035 -0.7409178833115498 -1.2979247574963195
Ni 7.721634060491029 7.1058153926563605 7.442618339430985 0.8664759064207337 0.2404994470447858 1.2099819736367483
Ni 2.343421117383775 7.811056803543987 13.202126395845559 0.08928309993754947 0.831601977361684 -0.1922357269423915
Ni 6.373053623725453 2.086702596720981 2.9082985709274145 0.42257468851440766 -0.6220146465147223 -0.23277302493480553
Ni 1.4806468403742237 2.9889061417302956 1.0799401117349035 1.4853028992360937 0.08218197011639396 -0.16895798736137352
Ni 0.7666888073807873 0.28367797181021476 6.465075511704719 0.7955803078514363 0.06603749914604755 0.18989885127909875
Ni 7.356013025268738 6.477498356058394 1.6370486824105683 0.9922308760320719 1.5769938372841874 -0.08990273579941936
Ni 5.703096848602157 8.190428807494063 8.926558780888302 -0.010792976850445928 1.4579227074509278 0.481049544821849
Ni 7.526053470447818 8.879902195299325 0.3697905352511382 -0.24468983097704958 -0.08139804076251787 -0.1728005010359153
Ni 1.2127930744388966 1.9377076730040497 12.333018199750878 0.17522839375111757 0.3604167269284244 -0.4321577042171525
Ni 5.80094701053383 3.53488315125097 8.945687640198908 -0.2672003533747398 -0.28955635247243683 -1.4714947897084076
Ni 3.291409033153853 3.0594662029650985 12.320724299511195 0.6187809700687731 -0.17026642176015191 0.4510159745742361
Ni 2.916807961421454 1.9810052644235523 2.4770265610958453 0.7813317683522221 0.3014189082379777 0.08652404913517357
Ni 1.2092379010102796 7.16532310126334 7.095436312509449 0.4163752445719152 0.21886027150845536 -0.6027550269541618
Ni 0.5641314197412618 0.06919877980280927 0.687452649333142 1.600504775921934 0.4825934922702011 0.07578480834079851
Ni 8.738800493417433 3.2201950410552365 3.2674106914813033 0.4799388282561734 -0.31803209131462645 0.3961733157027435
Ni 3.5951000524849004 4.335101112387034 0.8408823295419875 0.2733347484072518 -2.2478594438633417 1.3718959096671468
Ni 1.6164710438763303 4.809679923931962 13.031966216846344 -0.0053275828605005016 0.2378928626598742 -0.3101087227024918
P 2.3183230666247563 7.4370359803245485 11.046724217248792 -0.04770244828228559 -1.7504227159327208 -1.3730994430569448
P 1.8108542957181941 1.393701666368671 8.057706630962832 0.3712215308534123 1.0190544239828192 -0.007395521133122746
P 2.4268111179607104 7.456571013594228 5.016560623507739 -2.136105930737418 1.0095503411471258 -1.621479321291072
P 8.474041386217896 1.151563040880749 12.587766638557762 -1.5369404209067272 0.057874760829597104 -0.6517425125964581
P 2.9877732755859436 4.135246945994398 4.925622787115384 -1.9549673421494522 -0.017953242044311014 -1.152406489215125
P 7.50940125915523 7.07537537146056 10.177291818810362 -0.07061560543503323 -0.5347151526661049 -0.446916607693882
P 9.197767856875558 4.541190647720535 1.3004078368078185 0.490857017830574 0.6600505182415214 0.9973856807601339
P 4.780299086529662 3.2776304335444983 10.77833349118163 -1.4979118462493557 -1.8496539282219178 0.5670958829896556
Ni 6.930276402044939 4.778585971872349 4.427826666816939 0.1348114233866517 0.31519462186583136 -0.9164517241182281
Ni 7.333724114135959 0.32783396261714504 10.305448452676917 -0.13747045827605356 -0.3301440440868121 2.7889771576216806
Ni 1.6685552556349534 2.7645157525038884 6.146403028386655 0.03563934647016443 -2.0029448984699956 -0.7831325690063867
Ni 4.461024249993382 8.061374169976498 4.65626221710513 0.843388942694283 3.11665217134271 -0.6097563979726596
Ni 4.867649513464902 4.443110228442449 5.78230353370946 0.5509118170306255 -0.2884888304398709 0.5184071595347007
Ni 4.732009515839925 3.8203654196276773 3.080103708409404 -0.5077213976860805 -0.028427916323389753 -0.21426211061481165
Ni 9.131527423459463 5.582478840257165 3.386333084727309 -0.13331092758172525 0.6452908434338435 -1.6564990318993662
Ni 7.204411588390412 6.957548082154095 12.415314938447047 0.5789021315959643 0.062388589539550614 -1.4034641713917313
Ni 6.016992873526229 6.753576914407594 5.909785053036332 -0.23305430362065027 -0.18867140662990087 -0.20493749077977608
Ni 0.5092610940910413 3.4237977970474773 8.416360078882665 -0.37343807888875685 -1.024622662099216 -0.8046712144091109
Ni 6.504254259711586 0.7051281242731903 4.715466907044229 -0.31036120503292997 -1.1354647191544638 1.0153738898074385
Ni 6.688690394188407 2.802167433789344 12.642469336859795 -0.47143310477800743 0.0948978750211656 -0.06220089900877675
Ni 7.848247970136616 2.83330743731824 10.286616164828489 0.3730840379834478 -1.8854303144905786 2.703184587335893
Ni 0.07773488014903239 4.244508662014299 5.377533223420643 -0.027444469364197893 1.126249114093467 0.8806395995156252
Ni 2.1826185969427843 4.8500394316112345 7.123272583632009 -0.7657542256289392 -0.0986246890534495 -0.018774709504341857
Ni 3.6559708845826444 8.491467262194433 1.9589963462240112 0.19303713979776432 0.4319432742135012 -1.2010928986772347
Ni 5.09701346137383 7.0760661434998005 10.905586595220857 0.295911091045871 0.825337741619527 0.13793197129350437
Ni 3.2767554556281286 6.734944489935853 8.620423349567734 -0.28002604438449835 1.71108329490315 0.16215227729344978
Ni 2.3125021609074357 0.2961431835156295 4.040298026627529 1.7626524252296933 0.0330139930321754 0.7893029594831568
Ni 5.9780333305131474 4.896127742069263 10.999529750498596 2.759693321055899 0.5097736522294188 1.4494146699799166
Ni 4.080694375482227 5.776226581822929 12.528426557298973 0.046108364322288334 0.17689703970279214 0.41139373219692377
Ni 1.5598922087157254 5.1442898997393485 9.694161249419656 -0.04028970075798222 0.7920851502139843 -0.9686039806417513
Ni 3.096859996022572 0.29052029911622385 11.663645357258085 0.9803696058181116 1.1622052204731017 1.129588977099977
Ni 5.61001761888816 1.5211076612859178 7.10495330915139 1.0115863977405484 -0.06148073301330057 -0.17990523040149664
P 5.372051256517242 2.733449431325845 1.1174490334655829 -0.024798032880286328 0.5403605238773403 -0.8211846386831019
P 7.564414344360227 2.351747223030069 8.225183851361642 0.2779095122621278 0.5218223558638369 -0.8103273842536238
P 6.1973948992938945 6.714202908170969 3.5566958901913672 0.23618976392583838 0.5320478902465868 0.2628060809617861
P 6.205067074076377 2.866271079030726 5.167619574077915 1.0340339281107869 -1.1042625825200465 -0.20160559819306567
P 5.211193474313114 -0.037439844526755535 11.033095745429298 0.2949099034748663 0.3404189436502589 1.0361211496571188
P 2.9552056765092876 6.324386430987598 0.9529043706306886 1.0566686347911673 -0.9628089712265289 1.1283301649922115
P 6.3151024547802255 5.192137376323973 13.272978423395614 -1.333297994789291 -0.012076728658875975 0.6276916422948415
P 4.572514857126561 0.7307419514881737 3.2875637354687552 0.3482024442504197 -0.5472017151688899 0.3546047482323377
