# total energy = -340889.5064807495 ev
CRYSTAL
PRIMVEC
9.12611993264870 0.00000000000000 0.00000000000000

0.00000000000000 9.12611993264870 0.00000000000000

0.00000000000000 0.00000000000000 13.35699900377092

PRIMCOORD
 96 1
Ni 6.63854028420081 2.0041141503708526 11.413421964115424 0.15255486341300178 -0.6385177863760682 0.45577482941546027
Ni 4.705354336563459 0.18826546225555973 6.285228946181565 -0.44950725123919355 -0.5612841614038849 -1.5425873347798593
Ni 2.629472380441673 1.8494629250077663 4.437716272965377 0.5308718676606148 -0.8407134527446489 2.263146451929399
Ni 3.320602555584591 4.372679893145508 5.024622510061759 -0.1679765972847107 -1.5223686937401395 0.0851870754913049
Ni 5.316795234008366 4.923094427790762 2.737449891543315 -1.0109870735936524 -0.26085564210363466 -0.033762441162425716
Ni 7.3702269355336 6.240495444979969 2.7354065533302387 -0.13534415596167015 -0.3198578316694556 0.35821637684299595
Ni 5.077818662111886 4.765121294836965 11.54426679348641 0.21301872512601377 0.1335497830654087 0.01241277184205604
Ni 5.754438306844836 7.752565722656608 12.506985729469216 0.10843704715818099 0.7195515018206318 0.607248029728509
Ni 1.6352546421255312 6.760109325453122 0.35769096288952407 0.763350501283453 -0.5380257050965767 -0.4427915297819149
Ni 2.761335684777282 2.0300779610729642 0.4408408651985145 1.1265581606934536 -1.864844005698795 -0.5037261604837583
Ni 0.4990052768430969 0.0075536893209622626 4.57021749307184 0.24033309667025063 0.16314086645896417 0.3180945691214457
Ni 8.628764480305014 2.3259741418794873 1.3602764404087473 0.43626838395141637 0.8500956652904974 -0.4212199742587262
Ni 6.700908186604406 0.8967398279922781 4.935117177955599 -0.02822531339428042 -1.4223119002258537 -1.6847112326675244
Ni 0.4499587714454318 7.23519686764311 2.4409513868329817 0.9850916938841293 0.16983576198063652 0.7315773226369142
Ni 7.568929940952605 3.92841125736713 4.001195712858736 0.6299565270696184 0.26035042033244193 -0.8517900222737845
Ni 7.82330227687526 3.7792083254975974 12.751031860889432 -0.8862420333040673 0.19869150987006426 0.011004835750935886
Ni 8.01045161468482 8.652355499870906 7.280860320447709 -1.068680828760695 0.3526280841219411 -0.7236434125018182
Ni 6.884078536200918 0.6589122345729129 0.2572917816321819 0.10069416998796851 -0.34475228091829013 -0.19204855063224988
Ni 1.7319185025672759 6.181924008394327 9.245928367448094 0.9151659154272691 1.538927626540085 0.49658723544613187
Ni 9.023724691048768 5.164799709493897 1.251146300382087 0.047558466505253576 -1.2328881888109606 -0.25690694186853175
Ni 6.629806587595566 1.4950956949329026 7.128096376649895 -1.341780064118373 1.0585144297506544 1.1400798493289719
Ni 3.431932090472133 4.359775559812368 0.45295943962077595 0.47447600536938933 0.8324851512975857 -0.04567333366739876
Ni 5.98296547162219 5.861533322166198 4.969538163834387 0.013186416783286968 -0.3544504820426605 -0.09341383427647137
Ni 5.566330726461032 2.9493976345623123 8.833623966110538 -0.5389276480855557 -0.8166566689057614 0.9428890923741503
P 0.4087050597063019 5.487599691337266 12.309863367991724 -1.00498354771205 1.0359524852897384 0.48974964369900814
P 4.169359071130626 6.229261191561938 12.917833602093921 -1.5753079649413322 0.420305947084889 -0.5688959123128718
P 2.163492705766872 8.477134000580733 1.711379257447356 1.0473560991409898 -0.6165669931365897 -0.05120069124353118
P 6.613708112348282 7.809102034536952 5.647179021367888 -0.8772346875991344 1.0417055857234319 1.2025489143974708
P 4.782552183568437 1.0964302795687424 12.840283486866412 -0.5354062651958585 -1.2440853430783607 -1.4473305337573783
P 3.79190275807638 6.071260680248878 8.524329728892146 0.6895328439713544 1.205138529501518 -1.0702458592549697
P 4.637921437696006 0.8970510286759134 3.7528493538101078 0.5900823165824999 1.7860438075704401 0.7847829601256162
P 0.18812035695146007 5.4480927189191855 3.7413623068748714 0.28671476925858363 0.3667454973599297 -0.27102795465094615
Ni 1.3772592366602618 1.2723909945590448 2.512531194516968 0.39375673584145093 0.08689248821818583 0.21597729353370546
Ni 1.7110926972870586 6.673192160909393 4.980477643584342 1.3470076310658996 -0.49215979580239755 -0.9042531251695073
Ni 5.835998439092558 5.366952388180179 9.231249003822663 -0.34165050206451486 1.316710779854571 0.5545175321040128
Ni 9.078070734187985 2.4051979874700073 10.376624488859795 -1.3981399309653404 -0.7342939502371288 -0.12870351071670091
Ni 2.19916670788798 5.340714793885426 7.018862198858031 0.0002650807359285757 -0.5032548772742946 0.41813130803107346
Ni 0.5501973329950913 0.13235794002631374 9.388340553608156 0.8596023192293517 -0.05946498813485244 0.08451858866937056
Ni 1.7540219646131507 1.3276040190749585 11.416187178401097 0.6032584489531417 -1.2398268249123228 1.0406393492424464
Ni 4.000242945956346 7.0213992601498365 1.6743527643786016 0.2052002575228595 0.04178942523196029 -0.11297632978943123
Ni 5.628224070637384 7.946386254006851 8.075842087951171 0.07083337787279413 -0.2970716870128755 0.7808527718332745
Ni 5.448065340559921 3.025564230035009 4.471950173389195 -1.0758421223958246 -0.28438329291192954 1.1341976795165822
Ni 0.7391134875891608 7.490682590175838 7.021720499565202 0.9872599051800418 -0.63217127533275 0.7251547069400222
Ni 5.007584044479741 4.619815216102689 6.88120563370214 -0.20604486491134189 -0.29533722082027203 0.8218852642945523
Ni 8.339439105721873 7.3848743577398865 9.402084489958728 -0.8382351664074853 -1.6626054019074203 -0.3915245040768225
Ni 4.989833741556857 0.28721906614375803 10.701480585483896 -0.9154045138006364 0.03156234818731339 0.02068478204286115
Ni 8.496864671490387 7.0021887780662 5.03175548526203 -0.7903226589969228 0.006537286897885517 0.05966296307827144
Ni 7.1955895079077274 6.044338626972523 7.305155876458663 -0.26156835189994304 0.5754470831678283 -1.3229395343731023
Ni 2.4157842863854553 5.3042011887468865 2.6313021674524895 -1.0236186463147339 -0.08024027300899084 0.33784141273106977
Ni 2.452261387044977 5.439742319343638 11.497597642284841 0.0025497630050472214 -0.9413070925990112 0.42446213534510774
Ni 0.8488988830142085 3.359762735451993 3.754812382169343 0.5947781793962725 0.6124992508251192 -0.1542332795566892
Ni 3.796785232145143 2.839290999721899 2.6577889048165453 0.09366785926880643 0.18017082535805745 -0.7932992251267434
Ni 1.1220564238399302 3.4278618410615382 8.32722014398231 -0.315401852780631 -0.2360560665614515 -0.4170517018136495
Ni 3.888694384194691 2.4069136979838905 6.829126518709989 0.15844448942455938 0.22438634353300713 0.18797258079066337
Ni 3.9894558724062947 6.836431064961649 6.414672003558229 0.32849828095327294 0.08064239354341596 -1.1415919150981244
Ni 0.9527486501508013 7.681281601252674 11.38462449322948 0.9938023342842499 -1.210499022482483 0.4805348099689596
P 9.099927791000484 5.677660261348575 8.122911875809969 0.7446439260128854 -0.43229937200133933 -0.7971587080821497
P 8.538215120098917 1.5392204839468602 8.154033769397435 -0.8303344235031701 1.201385747327305 0.6956281582358149
P 2.077460774839348 3.301474208578747 10.597910077611797 -0.5812701176075086 0.0005926392786763986 0.11638972634635439
P 3.8809736868822178 6.09825574248327 4.082686486596323 0.5902388967650223 2.2712685668159014 -0.788405644479868
P 7.001011508617845 3.8859656743880366 10.562341025867868 -0.08556554187664618 1.047878547303363 -0.6586778062637108
P 6.203416020416638 7.491878111863703 10.299674872312144 1.6800328533552487 0.2559592332432818 -0.386966709502811
P 2.3744520900164354 8.640500670309555 5.922947545055429 -0.400373212716704 0.14147135190533056 -1.1636021008206283
P 6.9323374574637535 4.006521716347577 1.647438924610026 0.7056911988987717 -0.3027538249993173 -0.691099674237842
Ni 5.440709688037635 2.9030004417294353 0.18572383790387675 0.4950134632011088 1.63957885910526 0.9353429045957763
Ni 1.1546275452444417 1.0366359429359713 7.126426296734785 1.358307629459751 0.11324321029757271 -1.2053231347084983
Ni 7.040746634029793 0.5168796949946454 9.515886290687819 -0.4030947254129251 0.49197416215415274 -1.7617628235358886
Ni 2.73465091061455 1.68474558955525 9.005034397791151 0.45456923914313324 -0.5521148361997911 0.8957042071582316
Ni 6.560758365531532 1.9676370497113307 2.517540521650321 -0.44625943372585725 0.43928557351118536 0.47783463742897714
Ni 4.098120580325466 7.1872482344519355 10.778710373908016 -1.1906292801417493 -1.0561549283795422 -0.8721919829689044
Ni 8.161790058576951 7.440169517333593 0.24568426991618347 0.17122235791551801 -0.17697545834921133 -0.08531331665652404
Ni 7.642322196019875 3.8549916239405966 8.370510805650687 1.0284988572251705 -0.7428058443628821 -1.059982786766065
Ni 3.2078402198955613 8.554295343106691 12.937869085403381 0.34140341905071525 0.23604835325196766 -0.17793653671089998
Ni 0.07794527621288702 4.689045960561816 10.038933417412688 -0.6234220683852102 1.03300034463995 2.4926824579841456
Ni 8.468418556214997 2.2689085150533703 5.8613845664141975 0.7767235801562494 0.2739916652649604 -0.42834835777339136
Ni 4.2196804954580225 2.6054980638460856 11.276259122038262 -1.2063466908770064 -0.4141178159963061 -0.015972721279172493
Ni 1.0187852526957848 3.3728130867012096 12.81274085744674 0.5768347075439743 0.23468566857648615 -0.6951291071122092
Ni 3.0461162517225855 8.501236082852886 7.930717619000013 0.02252414924444508 -0.1515819579767712 1.91232533910921
Ni 5.5226439911953005 7.91725567974986 3.5565282656470774 -0.009659634576951107 0.23448666519180258 0.42471384634459763
Ni 3.021503106744169 8.498443490207949 3.675765583302064 0.13367036780367303 -0.3292163900662201 0.754302789258888
Ni 3.5352215138557876 4.148551518089918 9.334779356767843 0.10961615506794668 -0.0262645901234838 -0.13574936181988878
Ni 7.401073220304473 5.9835586694062455 11.59402148577704 0.6120719334797136 0.11397906002233273 -0.8692845795141223
Ni 0.8323751305863549 0.22448246850207265 0.42856988457634965 -1.2931892996938632 -0.05891991426465982 -1.9027896317046327
Ni 4.8854856882816575 0.5744007151965218 1.6072073382834224 -1.0849548833303702 -1.4219974543092284 0.1292627256542806
Ni 6.110238337721187 5.629392213965985 0.35526797809465216 0.49865671638065096 -0.10974522444664327 0.8399616621802889
Ni 8.145728087808685 8.774508612787518 11.285208195069718 -1.112593470983245 0.8889239510116047 2.430639681819788
Ni 0.07555058238925466 4.605058280459344 5.941967291236192 -0.1199221649796451 0.5524555073686614 0.41897205876481397
Ni 8.006463500352018 8.967270514246216 2.3561341424448083 -0.1129688735902635 0.4065181492721773 0.36028920021162464
P 8.518019017081773 1.7297191077063943 3.5632733807577734 -0.3336705691828318 -0.8837123249036781 0.9320408368057367
P 1.744065367960777 3.479342282597781 1.6023184759308315 -0.38041039644153196 -0.3199282798960748 0.6054935089312475
P 4.765486339627154 0.9538985412398931 8.471356254164034 0.6695528013050017 -0.07614296301116565 -0.7309062647118186
P 8.611169321417961 1.5282691402412243 12.573770673834085 0.3567534191442243 0.44289925900437277 -0.9061937938356458
P 6.320595398066939 7.661806461696152 1.4673331260271407 0.04332128849545443 0.9217934480461156 -0.5079893066354865
P 1.9393552045915265 3.173653775294468 6.309365707708786 -0.7200009306532246 -0.2884057838077614 -0.9402606536123679
P 6.863581271231871 3.9162735180933836 6.067937860046194 0.12172733650918391 -0.07089302746613596 0.5190216531902481
P 2.5107871930318457 8.672058792421295 10.225263229668275 0.24029015924745714 0.4291603121517254 0.22165608908603762
