# total energy = -340892.2029910649 ev
CRYSTAL
PRIMVEC
9.05806280197403 0.00000000000000 0.00000000000000

0.00000000000000 9.05806280197403 0.00000000000000

0.00000000000000 0.00000000000000 13.25739051370722

PRIMCOORD
 96 1
Ni 6.378986742020679 1.9614238613220565 11.480104556674151 1.4491992115350008 -0.08655798769690254 0.9945885776309709
Ni 4.619304055449429 0.30600581825853373 6.095430426613367 0.5843937508381548 -0.15589009843382184 -1.0458052097141022
Ni 2.9339155999892648 1.723459493421624 4.601745906511886 -0.20361594375487513 -0.6149993915391537 1.3655085180835642
Ni 3.252949629977508 4.297389561489798 5.040089116517537 -0.43081687391854195 0.6545267602098147 -0.926426575942753
Ni 5.338124745315617 4.5536874485037195 2.6701710795449087 -0.27550938746106746 0.17447248942169952 -0.12139977796643608
Ni 7.454015751619062 6.23839654925365 2.6668703214594562 0.4963666347948935 -0.44330832151733324 -0.4285499322612361
Ni 4.862322822393995 4.259164536460685 11.524397577975066 0.6316663106718734 1.233020857734083 0.23191916157494252
Ni 5.715855022267995 7.775875897201875 12.479261420621148 -0.8704274348693138 0.463974334507117 0.879127533746473
Ni 1.9912882943839014 6.488897276073583 0.29866425835661525 1.0038648607265745 0.643322406853563 0.2804003970047816
Ni 2.736884617896074 1.2854930988285818 0.5500753204882606 0.07183070878905695 0.7001075341634072 -1.103639861334383
Ni 0.6802822558640874 -0.14391269020320852 4.72917654563856 -0.6106436856736193 1.1691484845601543 -0.8476191787255467
Ni 8.682895957928224 2.3870531743772663 1.47479211851304 0.9845975278565301 -0.6710080456942895 -0.02950983653365885
Ni 6.932370972850914 0.7009989513010741 4.6869650671698 -0.45841586658273314 -0.25258106079966824 -0.07574675601401147
Ni 0.896570679476684 7.371696076864422 2.6156967956533017 -0.4007707052654388 -0.009482742679454637 -0.4312853289145282
Ni 7.548554753095093 3.9876943942515584 3.8308286742399065 0.6062933791247236 -0.9246067491251946 -0.6758651166762747
Ni 7.555176197004165 4.328793865228171 12.69836599595923 0.932249610382433 -1.2759125148912864 -0.4513756719065001
Ni 7.909083768784371 8.971531129149238 6.835497708590522 -0.0797543345115078 0.02452215351108035 0.5371335322996105
Ni 6.859661902730373 0.7635457807628104 0.7072816236613094 0.5352298875189943 -0.10805909499347197 -2.0525147389783234
Ni 1.7077799867094454 6.677277808189807 9.017066916666739 2.054801221019655 0.4892343946254865 0.6736125731966722
Ni 0.4929651403209492 4.832231937762073 1.1447434841562185 -1.149395470302943 -0.4666701361717253 0.8097709975295216
Ni 6.31762742459243 2.1146953420134356 6.891178526447503 -0.6215130242879554 -1.7427793404548502 0.17522942219238208
Ni 3.742646621239096 4.337489605519154 0.653016581020454 -0.42338484312052893 0.2022198347382969 -1.1277218419842514
Ni 6.193405151310617 5.762150781254677 4.673627975498505 -1.062104718205074 0.396808121073265 1.377298568739957
Ni 5.347318679060771 2.846813268074585 9.617640031476043 -1.4159869864490904 -0.858037031624761 -1.6985630509489522
P 0.23887289159958414 5.798328684090286 12.377497708253358 0.3226600770049411 -1.1956748129854569 -0.45382516188825706
P 4.110576074238512 6.123250454900551 12.414339567092437 -0.8399950865213857 -0.05052963331843556 0.737413212592401
P 2.4831048723414164 8.377421847956231 1.562794821870349 0.08564344630243315 0.19005671701320173 -1.3850519874331306
P 6.242726303273535 7.649715198480196 6.006261044767017 0.2682092542552284 1.0396636155927383 -0.9651576739643636
P 4.790972461693919 0.8851946584022616 12.798804513738926 0.3897697261692449 0.4932162620913699 -1.302020524832248
P 3.826877547245191 6.027832821332617 8.121756213725968 0.8647758930104913 0.9800829278156281 0.8396693277508508
P 4.903238092075631 1.0456265377394969 3.749893071481582 -0.7100121948716288 -0.9606885824494166 1.2559473846232694
P 0.33475520378931606 5.606324926852822 3.6081180840999068 -0.7120546792229543 -1.122680937126234 -0.3358354380446345
Ni 1.6443282567736786 1.09720314734039 2.668460917287682 -0.9546390338212268 0.2889390306034121 -0.08914888835253035
Ni 1.592479905288692 6.5057543309501655 5.041016662148575 1.7850847860912804 -0.496625544883235 -0.9095981915315045
Ni 5.78924344709877 5.273178435017337 9.225724828173998 -1.2373562518846433 1.8626796510576242 -0.08680635626228275
Ni 8.702841812220665 2.434227565455849 10.109211135931595 -0.04000122298328594 -0.024870280879118457 -0.05152336469027256
Ni 2.215710858393688 5.0237465596081705 7.040337646626272 -0.5282316018242903 1.3403448743337434 0.22603699176255262
Ni 0.6261014532073009 9.137592594518605 9.082081162436042 -0.9012148525638157 -0.12372842609961271 0.14972742126653568
Ni 1.4479494552023116 1.116795737183511 11.174587873806987 0.037743280187044675 -0.08708712072749517 1.2795547396295641
Ni 4.222814530431815 6.765023262563507 1.6932870862244735 -1.235002664050802 0.9715453226582622 0.2054167444090398
Ni 5.633317954006081 7.837271446881337 8.233873291877709 -0.5257456021776429 0.08152479614836927 -0.03901289092808765
Ni 5.119961302702777 3.110710869780313 4.688383559804766 1.3801913169067197 -0.8220243609755779 0.4714978965776718
Ni 0.7539107193591452 7.4980832271561795 6.876754467239836 -0.424298870294366 0.4924834976904035 1.1093474532421217
Ni 4.931381493204885 4.144489461373346 7.046555100934325 -0.3119879420030756 1.7913176543748701 0.6137290094671625
Ni 8.302357681506882 7.198261348373327 9.346632756276156 -0.8116522737126344 0.07514203255047704 -0.4360678379048361
Ni 4.7967877380135135 0.37297932301214864 10.387390585258983 -0.6238252173608998 -0.07288640374708091 0.3465625946541515
Ni 8.189702554424636 7.307510643841605 4.8611806006745235 -1.2639694835967972 -0.1274917497967869 -0.10046868424072374
Ni 7.1242660333347425 6.122380880871451 7.229361301201515 0.660849617104049 -0.7941608017960904 0.19552673898883746
Ni 2.5522722399059443 5.163050507457158 2.5126069828911373 -1.2659965413291552 -0.04792150627162715 1.0361872270083639
Ni 2.1645509196817385 5.564630663770118 11.162788841199658 1.1632840553595774 -1.0161997281428432 0.6174902762818076
Ni 0.9621111986948474 3.4714391628512598 3.69129465159572 0.440404517606977 -0.4084547041732578 0.24409719169837313
Ni 3.8787440148557835 2.562335747680196 2.530079986038331 -0.6239812833227899 0.518857616808558 -0.7250618901158997
Ni 0.894859611413177 3.3093632451152604 8.137519054615934 -0.0037733509995031794 0.4644942115663291 0.6030915843579743
Ni 3.513839954832605 2.366609126630653 7.099782995384224 0.32623159640628335 0.3837546303234165 -1.3110494678037357
Ni 4.112804357688076 6.85000600778226 6.142918226664937 -0.32363529643401684 -0.14169426654941406 -0.9583288239679881
Ni 0.8403862333278502 7.55656208061304 11.303966902242609 -0.14412627302967437 0.8504985571558706 -0.11886672713193724
P 0.2579383021875644 5.654957666042704 7.993570132161514 -1.9987336886021256 -1.319671662255108 -0.5654483200839036
P 8.407603313216185 1.7490304047147962 7.9465995474960005 -0.03219458245467358 -1.1288397576387785 0.28903056187595383
P 1.9939151325968023 3.363358357484583 10.46571565431745 -1.2798812697310473 -0.47617987543437346 -0.39314995549538745
P 4.05920780008209 5.959263285913095 3.8459692262153 0.3738787659706012 0.8329991148195266 0.5761399954697948
P 6.9324343792905365 3.9895422390633923 10.458795294335877 0.6643388612042301 -0.0005450738701926097 1.3127104004459265
P 6.2809150960514355 7.757669190967629 10.388425016031096 0.6021143080463696 0.6123167025006679 -1.6932218412416966
P 2.420522716434748 8.661102258823947 5.76545335095269 1.7867464900644194 -0.7569731370021995 0.981084372496949
P 7.206640056466202 3.906706254728976 1.519469201676806 -0.9864322670724237 1.2336145254540238 0.4387811230709411
Ni 5.54588953183049 2.858914839979536 0.342573217794678 -0.22316841196550596 0.3190731309846311 0.13284041570320992
Ni 1.4075052047864376 0.9691764876812711 7.050161115736242 -0.869845851334231 1.3834447908470109 -0.897092602865326
Ni 6.968322424116447 0.7283570183852992 9.295989127143981 -0.05090835681409297 -0.2946502220555764 -0.40087714893631604
Ni 2.70072483118607 1.5915559828827752 9.134766478924034 0.012906423649022933 0.4092998257823725 1.2619180003844073
Ni 6.247934689385322 2.222767089317309 2.652194448105862 1.9819711244318057 -0.5179523313854693 -0.48547132803862836
Ni 4.0048231910122345 7.09489979372707 10.306387952835914 0.8767029834653806 -1.3550487562028213 -0.5764295016857557
Ni 8.16099755340159 7.091267510543023 0.37863246000756795 -0.25715351066169906 0.46463690779178046 0.22309076465003513
Ni 7.368507638757729 3.6744303502688944 8.308048862366075 1.1817476613814033 0.8899423649737899 -0.2522103077238108
Ni 3.114995333486183 8.39225895482772 12.316036034715435 0.23735678765074605 -0.2120501905651574 0.16203683476150804
Ni 9.025544357644167 4.835320737177932 10.285786294796527 0.43978745284826837 0.11722327799124328 -0.5324759789229411
Ni 8.441969603491176 2.5222447617136434 5.812079729231685 1.2816147074823865 -0.054412770422925645 -0.012890482809422961
Ni 3.5973100035632393 2.308700931130388 11.556905153762857 0.14327986586897906 -0.23226368939855482 0.25679792709449323
Ni 1.0937791996008155 3.3481498700381658 12.433046278393414 0.2121208959020927 0.36859874851858454 0.6551402254240976
Ni 3.2023965814733657 8.57738764239763 7.91919619009776 -0.18293938924213013 -1.0406498907654076 0.38496176325764025
Ni 5.480599015145692 7.897878945096927 3.554319531693411 0.4025733056918163 0.2553012879443087 1.3581723894334676
Ni 3.011688127216744 8.153542767714631 3.724796802679293 0.8078637532044797 -0.10044657275353668 -0.05156115990674346
Ni 3.340586387597571 4.206002765869248 9.1260961012089 0.6427786185349511 -0.08072235485173195 0.040276331021543536
Ni 7.263397877990472 6.138531406849393 11.27572839145392 -0.255591822601534 -0.10732144549649902 0.6663882875340911
Ni 0.5121446825002486 9.08496524963255 0.31253215250817257 0.3752033983192958 0.34736040796509854 -0.28777457798166567
Ni 4.728970021806649 0.24366551262870823 1.5552775355500499 -0.9946130031110032 -0.6794813732726233 1.2320903755000137
Ni 5.893855014411857 5.676289403944022 0.6176847012506536 0.9953640223444147 -0.3559694897903482 -1.350837803445267
Ni 7.871085195325336 8.793232220932873 11.672416288046923 0.03468469586637898 0.44561665793553573 -0.34722362527691814
Ni -0.3398893137861173 5.059824823752947 5.691053140506806 0.942150671546229 -0.3059718177159827 0.9108053244657281
Ni 8.174638995983068 -0.13677312510179931 2.3693346977281085 -0.09440010944914065 0.09773688713185749 1.3187746043621353
P 8.73739832181452 1.5833674941087663 3.771820829915344 -0.2521421734900367 0.25783870965418176 -0.8507590099061091
P 2.0086888330286707 3.151943171660058 1.5146167974331817 -0.8491016768083441 0.10068619956816852 0.052718156329322106
P 4.770618994575337 1.14142460994516 8.282700779417858 1.1695991989443277 -0.8128308674017678 0.022156481492381197
P 8.669372270163183 1.7780252637475424 12.173386944273258 -1.442139733585058 -1.5229608187981838 2.0547726817745646
P 6.330118493197915 7.7336834406650015 1.5527847566666348 0.6115566844061919 0.2709150832221657 -0.5661435463787153
P 1.781105005100599 3.1240805704777 6.1594500970868875 -1.4836962168706058 -0.8643909988672467 -1.8210162098805671
P 6.757006876982757 4.05655378768078 6.023694192437878 0.46752965595854323 0.3280606791952221 -0.6551754495374071
P 2.490360380646705 8.57336586251305 10.081834952721763 -0.5824291709126163 0.6113204000256698 0.437033287141899
