# total energy = -340874.38399947685 ev
CRYSTAL
PRIMVEC
9.15571331179252 0.00000000000000 0.00000000000000

0.00000000000000 9.15571331179252 0.00000000000000

0.00000000000000 0.00000000000000 13.40031190549092

PRIMCOORD
 96 1
Ni 2.4477799937706597 6.002174450706027 7.448081343304635 -0.13738406920983437 -0.322807915436715 0.1021285884416499
Ni 4.784052553301062 2.815079750681442 12.868587824411835 0.17613033674009665 -0.24636284780409828 0.1546621395639917
Ni 2.490253348515758 6.174411732332411 4.884815757794958 0.656648691648824 -0.33402178187466347 -0.034575938202656586
Ni 3.699301933880975 8.682628590658448 7.571135963361774 -0.14330686245217253 -0.6700299980517364 0.2662791271120511
Ni 1.2391983497919488 6.568134878291341 10.918145270265724 0.3726112121120873 0.5652205203438136 -0.8307440002367629
Ni 4.143454749582522 3.994582848708346 10.215473560424998 0.028567270114731442 0.8202538993387164 0.7994960979660747
Ni 3.366848822402365 9.30742363294348 4.14481071074608 0.8467123506405612 -0.8019252762328577 0.2520102758978628
Ni 7.366467313514203 5.500798425873878 7.23402442487426 0.7770172001372683 -0.779406012084419 -0.757751924149753
Ni 6.080254375100552 2.888911424030111 8.204917338408677 1.433957454884582 -0.21096441370014635 2.122474198886596
Ni 2.000852996890462 2.8906784767280636 7.391102591723438 -0.04807551535098817 0.18750104047088353 -1.2261932932892883
Ni 0.28915574252203097 2.0334381810977917 1.2626031001120384 0.05190825883351705 -1.1819242961685839 -0.4928326534997061
Ni 0.325158754564314 5.876558062022529 0.45687284841277 -0.45436149400770137 -0.9896787990341793 0.47567748187665815
Ni 0.21467950694571505 5.696657448229375 5.843219362597366 0.7183698228077048 -2.1324439085047984 2.0120682009275024
Ni 0.277094005608646 2.3517182481389343 12.161720966663326 -0.36842211373140415 -1.0822901920140136 0.8712131639954027
Ni 4.498549940449929 8.551363126769576 10.180337594447462 0.02851096295549928 1.2246740284312843 0.4930576250263185
Ni 4.596424517346912 1.8691205916150837 2.6575502071586423 -0.12945273017789963 0.23237218995196107 -1.4147454007325055
Ni 5.994767478516162 8.903226350785287 2.420940935331388 1.2425254547904085 0.16365303020869235 0.6980033433362108
Ni 1.8348232889905658 4.385843107746294 9.554958417643624 -0.2692232973420396 -0.2972789179276751 0.06335018212187155
Ni 8.256594931896014 7.614834352567941 6.778601841473696 -0.7302963990419616 0.8121297275696853 0.26321514347474667
Ni 7.254346446472066 2.04465393008739 6.331084301075271 0.27126963834810697 -0.1635774397757505 -0.9725989607337572
Ni 5.230183003110162 1.8777544294087092 10.633174604366669 -0.8187868278748867 -0.30022977302588294 -0.28156973472253444
Ni 4.3300024113482865 6.491382532348645 9.279099517780852 -2.150611837663077 -0.9030645041780447 -1.6329796086211874
Ni 6.657238281692784 7.048388672169201 8.800226405492893 0.5920954903577867 1.1819716044667514 0.13154740792339925
Ni 4.661704754323103 1.767895023591413 6.641784352942137 -1.2665063910860381 0.520225443690362 1.3974457331117933
P 2.2642079388796863 7.571427115049831 9.09208491462858 0.582690652104119 0.9714525058341399 -0.13328213122631885
P 5.847845744609157 4.928593801708234 9.046738496999454 0.13284967167459058 0.19200227077534676 0.05114978340093771
P 3.9998290725214396 3.73203360950368 1.3615653757681756 -0.3247526978679117 -1.7408592406140018 -0.045765893381205056
P 0.5805537192706355 4.538789301110568 7.799289933807891 -0.4825572397156269 1.250065986141828 -0.5936522933219454
P 8.167409127073423 7.636606639177953 10.410460958859018 0.09384552249725128 -0.31584022586963023 -0.24234755599711813
P 9.056950779793738 7.45886677376157 4.747945166125325 1.1568951211140976 1.7983763609938639 -0.672970311626983
P 6.416699377648113 2.669613775214719 3.8339495183223025 -0.6304280673893982 0.3966091176885815 0.033053588020859205
P 1.4474633638869598 0.37635475752360853 13.001090225189275 -0.7202953219651917 -0.10679076980400963 -0.4419430657386904
Ni 4.130215587918066 5.771432160064516 1.4851702542043157 -0.28768793180513036 3.270937387183257 2.76006715945555
Ni 7.355736817338033 4.296703081491006 2.882366920048262 1.8682764284191113 0.7421664110066702 -0.8704027522789655
Ni 3.5120218150383384 0.7311487254181521 12.386404006136418 2.480478459718786 -1.5131181216761491 0.4038999949230399
Ni 6.231753965738005 4.249157461488571 11.285314100474015 0.6093100544638603 -0.324173428325674 1.0788210025184903
Ni 7.028758822509039 0.42377128196624503 9.509491144596812 -0.32356407687644917 -0.7443644470992534 -1.9064403410833421
Ni 4.565414115854855 7.36438896655858 3.4083965345165668 2.611322670927574 -1.468779961880406 1.609320574441351
Ni 5.969662512206384 4.023130363279421 6.273101167727414 -0.3018379980532672 -0.31300609885494485 -2.3079597515893475
Ni -0.03317481215421211 4.584577024128512 11.472476110613005 0.42290096150557493 0.38836513251223437 -0.194222161244801
Ni 1.1012492150766222 0.035932513048634124 3.6479402125080385 -1.4444233874129124 -1.635433983698951 0.06416599315494756
Ni 8.73942148125639 2.6037384168635698 8.103288918992728 0.635442489884854 -0.39604116100025344 0.5933275629926749
Ni 0.22209929713442553 6.648384706776096 8.750229800996976 0.751013576984655 0.788131821993191 -0.7778967745287442
Ni 6.601699723838986 8.646719882464811 11.65531021499903 -0.32953057887252923 -0.0317963185749904 -0.5534659509110469
Ni 8.055599554288955 4.891128622226246 9.349464838013226 -0.3217007984154653 -0.8163455654232458 0.7413408297815813
Ni 6.52145905106769 7.375897698378927 0.2880652970488382 -1.2463381436682794 -1.7325746320077064 -0.6369203599819612
Ni 0.41928772908444406 5.752955930300426 3.5268952715555653 0.1634699676636088 -0.06000389135745796 -1.6409564561790775
Ni 3.190912632537779 1.9523277155477106 9.231984216311078 0.8453368104492731 0.023614296984830297 -0.000775958934076083
Ni 5.404040846019124 4.750799002011087 4.03577165685488 -1.397583544241238 0.20719774756886253 -0.3079862770428502
Ni 8.026136468371792 9.416468180262758 4.650765507880023 -1.5439191662174054 -2.2316411822322664 0.010986066697858498
Ni 5.987442907747445 4.516879678798643 0.7579108758643522 2.295706902363924 -0.03773453843629631 1.1226266868495312
Ni 4.475752213932297 5.328149137141755 12.823508753615766 -1.0912144910868367 0.4529674418736521 -4.232495002501189
Ni 6.8676091098838015 1.9984084213964022 1.7026971880363695 0.3010191016963977 0.7666407419989506 -0.31704195948721525
Ni 5.646749654154028 0.4798115729176999 0.23128522444974292 -1.875435665171712 0.8221120355933778 -0.3181020253206135
Ni 2.44900685937442 2.7392612875117583 11.535792447051834 1.1021949013577403 0.20192852875012318 -1.4394027942698695
Ni 7.894623800219475 0.11299981553438371 0.1915155518896471 1.7959222430264166 1.738468371784322 0.2384294518896345
P 6.818305592896873 1.6451352175077136 12.049064490383726 0.7151526014219877 0.4045551120085355 0.8407152525168617
P 2.660091833215387 5.109117004016729 11.521977391010687 0.09374499236364502 -0.9051033889849444 0.6822890179247475
P 2.6641020357112595 7.40575447997491 3.0826216004363345 -4.735964052668818 -0.2067958841447535 -1.7986409275091606
P 2.6162725885915368 0.924214339596729 6.113062043144982 -0.4689833576859343 -0.1097277409451465 0.4688725431396828
P 8.261392525749525 0.49660223583363783 7.556007062438989 0.7543904638766878 -0.16982290646483011 -0.10396049944406612
P 4.539356955345144 7.800429820133773 -0.8248281544073521 -0.19486570836607084 0.10524476547312843 -0.41080623512456993
P 2.147628239382092 1.5416115654053577 2.6789773233711784 1.3747981709156065 1.0240143390912557 0.3394648072671057
P 5.626579617399672 8.048751080620205 5.1261951563353385 0.18521687242239712 -1.748964900440272 0.5988613483267106
Ni 6.2466594672523446 8.845288996004735 7.000617821615628 -0.35013719937928733 0.08938980071874282 0.4382900423671355
Ni 2.5990690029985126 2.034591800993865 0.5690513964497113 1.1867728825101367 -1.3701316186778725 1.4433334967828433
Ni 8.198099078594348 7.273838960430315 1.9049349959600723 -0.26311332778955976 0.39307745038623915 1.1271790821069039
Ni 5.844824359167061 6.499778321592287 10.945549236225531 0.6956854938363115 0.39619876962404027 1.7830245611281421
Ni 9.336081016076088 7.755374554192701 12.558008627962652 -0.5515602492479017 0.7248199493084226 -1.0699861778356798
Ni 0.5044450199842417 1.5604723351348044 5.563702755206967 1.9934295027803925 -0.1708156093954026 4.078905270065769
Ni 3.6603993073856262 8.774094168132804 1.5293777010789078 -0.4308176452494903 0.3348699888075717 -0.5551253408913407
Ni 1.503926648800308 3.7575322714922765 4.810041961531163 0.27652394476851083 0.22210011860199166 0.4863791845648785
Ni 8.245974304281376 3.7828935977789597 0.09810072301946696 -1.3441861024567043 0.33850655711889444 1.1122754255221943
Ni 1.5471233049088173 0.6309238768757571 8.127839049066775 -1.3265835588835928 -0.681036376464569 0.416604844084218
Ni 8.911356624338563 2.127952611154626 3.667424486324172 -0.8808180340750186 2.4942598297735947 -2.919290693137979
Ni 8.747551754809665 0.5669382577829364 10.898661912020934 0.9672562083646052 -1.0950983995222754 1.1753479285026467
Ni 3.5811566073815677 2.3754315460026563 4.649519415277996 -0.9836552185479188 1.9344401687303783 0.2143634120793663
Ni 1.2471546647894678 8.051873178910371 1.2657279451162422 0.12597634159352497 0.20964775177125183 1.3228865696479797
Ni 7.296810645503704 6.334874766448081 4.671523341438569 -2.0848790142416416 -0.21290611080754945 -0.46736510535622094
Ni 2.4766754254532493 4.602705336781087 2.744557867748887 -0.3658345555098861 -0.14581960157169727 -0.28731280785389873
Ni 1.8853262044408705 3.98890630636259 0.0034947358280241663 -0.8045920244317434 2.77647234028645 0.6242954721290991
Ni 2.5024212917052897 6.718334357617346 13.172640828306092 0.6624190184736979 0.17510163836526615 -0.6264012056181922
Ni 7.503345229754605 2.7212794662745576 10.215942332954194 1.84767932099405 -0.931741303287447 0.6917866730025377
Ni 1.3814415141204355 7.975505372933034 6.442414114474387 1.0070543141981494 0.5722440028494984 -0.6650160897769128
Ni 5.690257604520208 0.9410516966513175 4.847053933196836 0.08003715585924925 0.050285635628429526 -1.7197070320164187
Ni 2.203432312926256 9.418573994358765 10.724939573671195 -2.0069355076866273 -1.0038468630044453 -1.719668465469
Ni 4.103581617460318 4.028596324215576 7.809031612930285 -0.9519550592311606 0.9933109964701279 -0.44155740026449763
Ni 5.114280826408675 6.197392573119261 6.806594519809041 -0.7970440368811563 1.1201604846972255 -0.6694281028016794
P 8.533655976936203 3.6138791272908115 5.415870027810603 -0.0579395526292615 -0.011703404479857264 -0.12047418082837318
P 3.8217412899935432 4.49825695761918 5.605015165485224 -0.5054585697938327 0.002024229518880385 0.4763721939508377
P 8.23652560798973 0.3350450939593899 2.3002704630594653 0.24684621519842004 -0.2053144145032206 1.0049830334914176
P 7.551110586880102 5.773071032774015 12.494478047828839 0.2028176162232959 -0.7629514660728215 0.29514464519349165
P 5.234541122717549 0.8989381614452322 8.540045749360562 -2.026331395714736 -0.1773536676242365 0.9257197796837153
P 6.142613939482717 6.526888389150001 2.2976574224377253 1.1805520984114055 -1.8836950769670266 0.10153466361139286
P 0.7730562570713673 2.131532495117836 10.003064670417585 0.9822526817734374 0.3056830828309703 -0.7950064376258373
P 0.32702560453899077 4.0452322555740245 1.97805984822956 0.34574446962823036 1.2918939779212075 0.18932240995033847
