# total energy = -340887.5705325588 ev
CRYSTAL
PRIMVEC
9.13287711030526 0.00000000000000 0.00000000000000

0.00000000000000 9.13287711030526 0.00000000000000

0.00000000000000 0.00000000000000 13.36688881629566

PRIMCOORD
 96 1
Ni 6.376939909728442 1.623058336671202 11.605399553917609 0.6133348593525373 1.1545075947185277 -0.5534142717375049
Ni 4.9477634150365395 0.32536604295944593 6.090595909551272 -0.2855467170924114 -1.1696141113426632 -0.3316687082614546
Ni 2.92351606548359 2.2637570441173227 4.575953953592128 0.03969114794203487 -1.3695549202387962 1.359283363109459
Ni 3.3873931448473145 4.70123967107558 4.778007893748592 -0.21783080180267647 -0.5388363739233302 0.08641811968492859
Ni 5.184122267098541 4.90913134609441 2.773816341689004 -0.9358748658398462 -1.319416351711192 -1.0537535180269013
Ni 7.344823929196249 5.769576202669737 3.0106245312904747 -0.21066488018185656 2.580514427297466 -1.3382206289018888
Ni 4.917250473586031 4.601015480869691 12.003919940192999 0.29353436328357835 -0.01137790281963847 -1.6117479529359209
Ni 5.608298730932376 7.882019743658649 12.561961545993558 -0.5607452581812794 -0.060951085762075675 -0.38405904893771275
Ni 1.4470495346256493 6.972677464597235 0.43964755716432385 0.34770647845060765 -1.024914225197706 -0.6672712043596766
Ni 2.793226444791298 1.534268508242037 0.5030443348874147 0.15994447100885356 0.32488228146724046 -0.45316413126549054
Ni 0.8912354374811153 0.21271474726666492 4.70999718665681 -0.7658460140117972 -0.9463127733437187 1.4984096118213808
Ni 8.852698423432907 2.708427683531805 1.423025502154664 -0.07608588452098508 -1.4579563889023408 0.7105292437173634
Ni 7.053622151839336 1.242400030877375 4.826743664314994 -0.8271976776464012 -0.5850830635956956 -1.5722861473958727
Ni 1.081907986546403 7.515398669534812 2.817993893435307 -0.5819445179667139 -0.06863405622863018 0.496477449341145
Ni 7.432252958979461 3.7736499041308633 3.9188370734894438 0.5738013200342893 -1.9374457883259213 1.1079773123674725
Ni 7.633961676392188 3.9796236750178156 12.606552817059738 0.27430328296810824 -1.300023034786245 0.3301275890265798
Ni 7.515955775020738 9.037757906405563 6.7178638083481514 0.5487870573781387 -0.05603847895180672 0.7116656713146517
Ni 6.974750627635028 0.6580566531273048 0.24779047397568055 -0.4329061523474029 -0.9060595822506265 1.4400252583452169
Ni 2.0212517659564906 6.15634440305512 9.437664663381998 0.5299113035195583 1.7927968100235576 -0.15127034027362335
Ni 0.08039580134530894 5.0282514584377145 1.5760495931111733 0.6716850171566562 0.49262747946743546 -0.2831036548685576
Ni 6.0108302767064385 2.2498202740923374 7.273432231106269 1.8382698547546923 -0.7307124035334577 1.3360166792720347
Ni 3.5513465494924867 4.305548650038552 0.4628350181187371 -0.8904550429441503 0.628408208745892 0.216786162588246
Ni 5.767429976617397 5.4523639921338205 5.075715019263303 0.9506147431531821 1.06823885612727 -0.7340224417432971
Ni 5.210114434523906 2.413764545860691 9.686208599695203 -0.08744193296375262 0.6091802137542154 -0.32051783385095767
P 0.06096743248937785 5.543683627441701 12.650530358803715 0.14919391736056886 0.5684719374015759 -0.5569976182133891
P 3.5213176505133577 6.346637024444759 12.76785129441378 0.9978351095927267 -0.4751730314364139 0.03406326023229617
P 2.4496202202500044 8.581050135344338 1.5815832031754842 0.6857047284745158 1.0383801208946246 -0.5894194861875204
P 6.248632123305758 7.5174261681885115 5.802245416337086 0.6144342630643032 0.3246179720622603 -0.024402854324396685
P 4.789435862511544 0.8553733700780294 12.915314376675523 -0.3230413716037598 0.938611548044719 -0.08018525140133932
P 4.054887712878826 6.059426314257517 8.206467019210157 0.45082494160935255 0.1192343948840011 2.0187661817729685
P 4.892491244531159 1.2369842349240225 3.9800310013239195 0.25609730148304277 -0.8865888751205246 -1.2074029000556625
P 0.21646927292673793 5.70199291421306 3.740724056624915 -0.2068889580791921 0.10659202352964223 0.5130335539276132
Ni 1.5640964839311597 1.2102249058459054 2.794388146722608 1.4695407513058305 0.5895290151821911 -2.4116274023833437
Ni 1.8376535432747896 6.64077958813722 4.9469652016026044 0.38154219605313 -0.37437370332914877 -0.14307957693271486
Ni 6.0025467574320865 5.360962160934573 9.029827829464086 -0.17855180169739573 -0.28528420745964417 -0.15217588280702823
Ni 8.596311172508 2.517934138852159 10.238649012142993 0.300881804787585 -0.5194471707634409 0.3348712743591523
Ni 2.284835723814351 5.309635393214773 7.291303444464651 -0.8727997917562323 -0.319098842016244 -1.88500119737296
Ni 0.6760666862133274 9.485040548590128 9.33959217895454 -1.073803494699241 -1.1329866899276166 -0.7110092686775755
Ni 1.5655851428525704 1.0843190660264792 11.293149235357166 -0.1771443798269078 0.96321134887127 1.7002985455828201
Ni 4.505832638667598 7.213401831778466 1.2574163069423034 -0.9917567646091309 -0.29267818593087014 0.9853462330970966
Ni 5.769000831430173 7.718276395180302 8.201481381754954 -0.7472237709249195 0.279705427820286 -0.09366760215849029
Ni 5.186725136991805 2.884747003389185 5.214757589098417 -0.5048314777327951 0.5479442497618693 -1.3119966622083534
Ni 0.4460716227184356 7.740688474892827 6.902433769123339 0.2281949186458199 -0.676881216645615 0.20816859612256408
Ni 4.5644383092117184 4.310343410368249 7.001161994106361 0.6915362475546284 0.837124706952126 0.1407846102509511
Ni 8.235836524482993 7.2467642307963365 9.236225365835415 -0.47777087407057717 0.8279618095059355 0.5529152206138993
Ni 4.52706657727054 0.119670824815457 10.609767114812245 0.2841259254854849 -0.18442754375188236 -0.0713861650524706
Ni 8.129767293113282 7.561958075555371 4.561745023837952 0.5026650662090957 -0.07401743202773059 0.5112672060558098
Ni 7.6140154734206495 6.191579041820777 7.061406102751716 -1.9111734848929536 0.32249244107882524 -0.25518764518457987
Ni 2.6552834733251287 5.542304563042112 2.4434272164793995 -0.3997075541082471 0.22511705105144456 0.2803068088497108
Ni 2.3022521199071733 5.058901393040499 11.394590838042959 0.5420245418433246 0.24629085691558225 2.0696313440539513
Ni 1.1283577980451411 3.6229300379956544 3.8975574705024085 -0.7829394791589741 0.6499296277574356 -0.17354663517332045
Ni 3.782819312456607 2.6233184044604836 2.405719394671301 0.8613010470880134 1.1670818318391125 0.32531088436422684
Ni 1.2741459106983766 3.055860583460038 8.364196368303542 -0.8881374505545672 0.30366656662157376 -0.2576962705390465
Ni 3.640894406697585 2.2285224053516655 7.253569137313779 -0.6845505602654146 -0.03312840712285262 -1.1708523546251384
Ni 4.178565130754546 6.79161818167107 6.190593604412064 -0.8655677927841673 1.5119102174109769 -0.4332005436593701
Ni 0.7004742995106884 7.266756098151967 11.209914022608997 0.3590458147228268 -0.14447388617708024 0.5477609301064695
P 0.32917262601738423 5.795915419414204 8.193541258648978 -0.6620112415123179 -0.5761145415484982 -0.7270439535429349
P 8.41139781556444 1.5034450489797009 7.977519496686344 0.6395901935046405 0.9489288708103271 0.025138704049156704
P 1.7114371856435353 3.2361070403493604 10.533429050637382 -0.34359245628223406 -0.7922062491728807 -0.5684307997509952
P 4.159970593552141 6.538856682843096 3.7551202103538697 -0.8551720513721401 -0.12572463059403508 -0.130615125917117
P 6.819920966931507 3.8350411021046185 10.415506258444982 -0.12896884856294563 -0.7195723277562381 -0.22666999736086124
P 6.474616027301978 7.91603970980745 10.521826643927199 0.3692785481944285 -0.6649530977494612 0.10198229267177274
P 2.4226143034977885 8.354664384768105 6.0686742653239 -0.36121736845284885 1.0915333078788363 -1.369684503838125
P 6.978239386579683 3.9431013006207545 1.60259612615942 -0.049747246626456264 0.37892069926988287 0.18046650222160532
Ni 5.469807786857098 2.9457180890292904 0.3146495253006534 -0.005123694379810531 -0.9117311787141071 0.20178531830403956
Ni 1.424171678195382 0.8512553559205813 7.237448696441497 -0.12761824807232214 0.8048805022064396 -1.863245036642791
Ni 7.001920936169976 0.6139886959028237 9.393072479028135 -0.9008232735523518 -0.2619146794957683 -1.0343044081633541
Ni 2.85153073040041 1.4140798493109727 9.197368628123554 0.15341335475855514 -0.6266796560905594 1.6275931474982939
Ni 6.773178903374578 1.834320043236048 2.328886328572877 -0.685286924210807 0.07342659252126708 1.0102620225021697
Ni 4.222576464142753 6.635308994922957 10.450313478575534 0.6391942436178024 0.5298755651856165 0.4627029239938612
Ni 7.986865169534685 7.4719809731398055 12.891895853937601 0.45100748993380385 -0.4139244690385775 0.7636855160253686
Ni 7.997358844999106 3.925091267534732 8.113647765528684 -0.18497338895302337 -0.29568200575420045 0.0432374705323965
Ni 2.991282011476637 8.55137741856113 12.544089419347493 0.7087325568282569 -0.49602390674349406 0.3733249503496603
Ni 9.233795107314021 4.954393883606748 10.320574570355394 -0.7998822776608998 -0.5202948634757169 0.12280360029249819
Ni 8.58139718466344 2.4842977535297344 5.934711401575219 1.4038863465308145 0.4191183545346911 0.8235996758824977
Ni 3.4638627224483636 2.5261263293583265 11.529770200983858 1.1867888233497366 0.42984628247515655 0.7858525390407111
Ni 1.1181563746389103 3.440089844089886 13.05601456365319 0.3352250581541453 0.02247324140185162 -1.258242351305033
Ni 2.8760890361652756 8.160809941419263 8.085429916022658 1.250032561800731 -0.345423853064018 1.4688799777933799
Ni 5.887362914997544 7.932241433283416 3.492607538946816 -0.3650961346819647 0.4477414175880224 0.4032032259663314
Ni 3.191693860381141 8.626084350936214 3.7310724324031566 0.6055644713784991 -0.24503307324908125 1.1455059054405496
Ni 3.5005312228745202 4.064404170523672 9.22431609446413 -0.08578125743187807 -0.15501515202803623 0.5891358935088304
Ni 6.981262368806598 5.82429126768919 11.22340054180683 0.011753798101818468 1.4862938023944532 0.571481413651861
Ni 0.7817404640167975 9.3049402177299 0.13926997846789346 0.018538425123819684 -1.0851837115117244 0.4804386507107274
Ni 4.5857909752133015 0.46652835350412636 1.938359036089012 0.41408464876552564 -0.5409649902305587 -1.0553812834383116
Ni 6.179030469072199 5.674448157728554 0.47091030780162824 0.6303571049421466 0.13789083364292382 0.0744527197929363
Ni 8.46016737777507 0.08402429330528703 11.236767420318344 -1.1128256415987092 -0.03489784031844958 0.6978033115102628
Ni 0.057791017931914004 5.000012603315006 5.910503798280182 0.9188803881643788 -0.7823021026852914 -0.4713138055913238
Ni 8.479967454717512 -0.14235141110644522 2.2351044696747366 -0.4128410061664115 0.534531318790073 0.2625104040982382
P 8.894490467754226 1.7917517043851596 3.5852002972831913 -2.6826635845644056 0.14084991627124774 1.0118584204550123
P 1.929667277220874 3.5474285453373633 1.7949728700390342 -0.14431859154613857 -0.7880983976520943 -0.5009149162872083
P 4.7531235442813085 0.5992628453207227 8.36259263513422 0.5730343599612777 0.7077761064522585 -0.0860854189358582
P 8.663035970543742 1.618747618812884 12.7802820530514 -0.23812991837134476 2.0992095719317008 -1.376608741761784
P 6.757598215522269 7.863050758506687 1.4341603055717427 -0.40875012392648963 -0.8403373003521527 -0.4237895347581153
P 1.9843823422403275 3.3726070172782117 6.267106106534159 -0.15978789082633124 0.006493835254459783 -1.214379845594128
P 6.757506886754084 3.9766006927909023 6.157377331423289 2.11000897654005 0.3295416346161228 1.2027003523736706
P 2.4434463955207186 8.405086997682877 10.389346959373839 -0.3628641600276525 -0.7047931125645346 -0.6566018975712886
