# total energy = -381165.60763415333 ev
CRYSTAL
PRIMVEC
9.27036168021799 0.00000000000000 0.00000000000000

0.00000000000000 9.27036168021799 0.00000000000000

0.00000000000000 0.00000000000000 13.56811138152635

PRIMCOORD
 96 1
Ni 7.229009606352544 -0.07082000208614234 6.761723113283044 -0.5842888498291744 -0.5860888791523906 -0.37754104531353694
Ni 7.1005872840629225 5.062998837519249 0.8423968515285947 1.1653962166065737 -0.46995754867374545 0.7410726637218592
Ni 0.3239064419836392 7.247911874103106 2.7247484542188904 -1.0038795160145937 0.8280535978887932 1.027688188398417
Ni 8.851118976856643 2.77506427003201 12.47445379966627 -1.4207653816743402 -1.3738612609236338 -0.49411357709465864
Ni 7.827569057971251 5.4948401021707625 8.702301858563473 -1.020073866386269 1.9628459735665809 1.1220240202685257
Ni 4.543626816565231 7.788763323393589 9.66404998334102 -0.9035465860207857 -1.6610563122527457 -2.4191399087103047
Ni 4.391370394036917 5.996088565767081 5.896307953355898 0.5137619474532056 0.11503244098751157 1.8373545420292745
Ni 2.0759955555630847 8.821361115415101 3.740850564418259 0.9106713699910253 0.35473870270704067 -2.139801377311134
Ni 0.28476326623573656 9.092732416965962 10.528664184006933 0.03344465281169078 0.520519063671381 1.8406944050357845
Ni 2.8499966046214134 3.2564463482485078 10.900105333257754 0.530840500202047 0.10029333500512405 0.6043658230847075
Ni 4.816750216500033 4.7437183060836885 2.8397241166888985 -0.8120505375923176 0.6931033349314322 -0.8716091138822408
Ni 4.189869809521852 2.9765555841852556 1.3017154686139802 1.0607816285182763 -1.3080657025850635 2.0667090282008345
Ni 0.729523707119316 6.913205460599405 5.480322715560963 -0.6227055019341599 0.7241810301728431 0.47523550924323316
Ni 7.565505199687465 1.90070228391258 10.46562757770469 -0.257237328624757 -0.5836273049857754 -0.17443932219091893
Ni 2.2563040929580986 4.731286750883343 2.182321970455224 0.012413800283320557 -0.08841972349598964 -0.32351985390207505
Ni 1.2623544393633122 4.847008677479844 9.861276004020976 2.4141429697163455 0.9211470727113683 -1.0821829770121878
Ni 2.5678902240832304 7.825427604390879 7.651750156805564 1.232251583668226 2.651994694725639 0.5012784702742141
Ni 1.167843100610502 3.8126124352652924 6.13373582510358 -0.057091088586037154 -0.26269063842984436 -0.4617017364228564
Ni 5.149769424152531 4.7996185878570525 10.561839100815252 3.193906365140183 -2.3602775871564576 -0.7206475630982879
Ni 6.693405181852065 8.4975195659642 4.352202188312101 -0.03152043920578442 -0.11069061907904808 -0.6177754116223941
Ni 4.548753326651577 0.40760297663747685 0.22358722155072702 0.32886106360933043 2.199562813640483 -0.7171904577876229
Ni 7.0483766062938376 6.714328388479342 6.239730361042571 -0.9996119989874912 0.10650383469121014 -0.4868085587928132
Ni 5.1924687106945075 3.286871675741075 5.725770377318949 -1.0510980826819254 -1.3649423611674492 -0.3126001216657778
Ni 6.097608298055657 7.606591443272797 0.4954285304458513 0.9394319870634854 -0.015138655413651348 0.48795861323685635
P 4.673699263258776 9.020043509936949 11.417620500739268 -0.015171308423799679 1.3483672304175873 0.6613106159008675
Ni 4.513498140650897 8.964616016616393 2.32136812739033 -0.8649540704595685 -0.3557995398713873 1.151854473366397
P 9.182682737703432 5.278312261145809 1.9390732385208937 -0.5919368532927354 -0.5935494491954939 -0.8484717565338291
Ni 5.173705498371242 5.45605290831674 13.211731237411662 0.4558817873069697 1.3137555538809889 2.221449586411245
P 0.9060972157371344 1.1499513022982975 12.527546088844419 -1.9826139002221275 -0.7545136197181134 0.48942491336973776
P 6.554238510213302 2.834079393376825 1.0745378359304465 0.012143577341069408 1.5768352002191361 -1.667913444383895
P 3.2809479145382263 3.909765827136744 6.766064423723254 0.2137563746229867 0.06424081225694098 0.5012041653928528
Ni 1.3356181088251526 7.092420095299683 9.477774114042603 -0.261660140282801 0.8527917240654216 1.0082984710178957
Ni 6.513708488337158 3.6740483371448156 12.376479053737583 0.9127423935874409 -0.29010579721800356 -0.16889242423076076
Ni 6.954885007341204 8.834840221501082 11.32965774557596 -0.16151618637134765 0.1915099045199605 0.1947942316981871
Ni 6.856100031789468 4.250590679441509 6.819672145018583 0.6450846409603084 1.923285180554823 0.8678943840348151
Ni 3.313375640183869 4.520107908628411 4.56486892363911 -0.32964859250763234 -2.1498775306002136 0.01516513777621259
Ni 2.4141783547492084 5.713323989539692 0.06396364248422191 0.8970661205027648 -0.4985219905749995 -0.7122272002450767
Ni 2.399132557515681 3.061286691218182 8.716263023464084 -0.44546187752522637 -0.017522582264795628 -1.510620809175592
Ni 6.939162473694831 2.1100826759744713 7.513707980055542 0.14837065012832512 -0.38881250446229815 0.4599906672690207
Ni 3.8375775196460005 1.671909754200038 7.386181174717714 -1.1708292146966868 -2.5581918525408653 -1.6111555707675604
Ni 4.157729465092622 3.6516604133500103 12.842787523635096 -1.1646953338848072 -1.6190956515502437 -1.968638926099274
Ni 8.714334788205568 4.825278949374245 10.89275115522611 -2.323438306840921 -0.18068530310063075 1.599893110479864
Ni 2.3682251712084845 7.31375925410911 1.67209330736407 0.6333696665162253 0.8467475747538709 0.5464725503123492
Ni 2.215393986247343 6.259811818816611 3.8907374824654335 0.3594507634707293 1.6171945778727892 -0.12727603424155498
Ni 2.6437217837691533 8.06870043926594 11.321069682386101 -0.36141251518279044 -0.3907354325166238 -1.0426090713743075
Ni 1.1620583948349497 0.46967268420191466 8.477586433979278 -0.19650632929328737 0.17877960143748564 -0.7494650015506125
Ni 3.6658996891052156 5.540301956535036 9.113591658096682 -3.7505802814655667 -0.06269763613953719 -0.18462500447466915
Ni 1.2738867694671374 2.655949391009463 2.452341653252758 0.14353003420657218 0.48531449074579003 3.0860740414455368
Ni 2.0950554194645834 2.9426538710102648 0.35000807272345413 -0.5370941944212427 -0.6310621014289712 -1.5011650630793307
Ni 8.071500088535517 8.937231367800718 13.49027130975777 0.883154138407363 1.1073021406773187 0.5476151485572246
Ni 8.898008466941166 3.769885337637857 8.117190920836741 1.9103224497465683 -3.1881064706289544 -0.13343151231998954
Ni 8.06143247559922 3.10345756713643 5.172055373967318 -0.4164654902928763 0.7480043578446859 0.48176379728005414
Ni 3.3616278734559026 0.41652013767193774 9.548328056744518 -0.9984190071206546 1.6568972957790495 -0.1993466269555599
Ni 8.932633268338101 1.9735673278161692 1.1988496797891703 -2.5635181498497848 -0.22544383826324396 -2.1634136174134353
Ni 1.2756574085747183 7.995047414607668 13.200591970648997 1.6548496692214016 1.426753480936975 -1.9441332276484258
Ni 9.734065318021203 4.564911567303481 13.302135805878303 -0.9945492397526033 0.3849170260626339 1.7473672169358487
P 4.433096292587814 6.651503146426591 1.7243169636397035 0.8780602688242233 -0.3222492147197676 -0.51418669369545
Ni 1.7257983674585067 5.922704381601583 7.5383745587856525 -1.0625423199631248 -3.507470393381127 -0.5284583731231157
P 8.818403869994585 5.429864136175818 6.65762807448093 0.4844575420621334 -0.35624922581429613 -0.6736956198287817
Ni 5.203500441260063 6.91118452172269 11.566638785883926 3.472653285701942 1.9849574607536395 -0.21518050866402297
P 0.8252216521850604 6.213515631888554 12.085035564774502 0.06933236784723543 0.3203838793762547 -1.9999215382626396
P 8.01127981815413 -0.10312999413667404 9.021559214094484 -0.5596602526472169 0.17507181356859525 -0.3469678005123702
P 2.90715765560227 1.3445825487048946 2.382573837233163 1.1696372512711146 -0.8368220881100427 -0.421053623884191
Ni 1.6388609143124686 -0.027755463288466394 5.881410481911488 0.11402508276891975 1.8102003502119859 2.65273980042178
Ni 1.39182431253857 0.36922738684825324 1.107355843808703 0.6556374767754902 0.5894374839096493 0.8594434250539844
Ni 3.519038617156023 5.674388469896552 11.566624880341196 -5.004308289840013 -0.3834664096590364 -0.04344393011624775
Ni 8.908966034612163 6.929122671843994 0.3998946707843173 -1.6976757632479924 -2.67764247720073 1.755977584312679
Ni 2.944962191103394 2.1046038921389725 5.16054992791277 -1.552977933985564 0.20760475319929408 0.29851279033477623
Ni 8.279035678595271 1.706108118953262 3.4374399653820045 -0.15211829009621544 -0.7917095120421204 -0.6432774125482404
Ni 0.5375020675649911 2.7938831045261936 10.337422181881653 0.40021714675481396 -1.956656042705785 -0.2472074551925807
Ni 4.96752338113718 3.0234636149934184 8.528196120262084 0.5734740186018574 2.077569367954106 1.6278821394936223
Ni 4.60380073513752 1.9332505242618805 3.5980322972586785 1.076356857248714 0.9375255140693919 -1.1220101363114547
Ni 6.436050667372735 5.034603719265217 4.645463595228044 -0.5804645909870777 0.9336937990281274 1.9324133681083366
Ni 6.627029391222332 6.443198116335796 2.9623394843345996 0.8117844284151244 1.122394773344383 -1.5558506275476687
Ni 6.4840247897901735 0.985226243122359 1.9866561516695376 -0.3639910745432441 -1.1202944391719285 0.033304270579084576
Ni 0.231640384863583 5.087472592723508 4.044450278835637 -1.1014960755185028 -1.2693999105837492 0.1858971863188734
Ni 8.720277090132056 7.50552595871339 7.568061965477364 1.6883765973342535 0.9787418404067014 1.3171082724033059
Ni 6.851288714004994 7.302430871965321 9.643521694127266 0.28551252142036637 0.07193818090119869 -0.7366969032516668
Ni 4.789625137815313 8.287351193147627 7.10652865895323 0.814212578240643 -1.1389213102444966 1.0314404563519977
Ni 6.505328081252062 1.257348443980623 12.908783229430215 0.3489444646227668 1.3702329201424273 0.5927248964116695
Ni 5.702236636803217 0.3847190884853128 8.901278123555008 1.0524553680407682 0.900595730922578 -0.020053319106449335
Ni 6.814346322153112 3.653143671241178 3.0879260029435454 1.1928561125897392 -1.9303102057224044 -1.655596574689755
Ni 4.97295581316358 1.9196787145577006 11.186541899801965 0.07961909448522417 0.21040057077687635 -0.773057701268888
Ni 4.486957094760824 7.161475020495337 3.8409148499011265 0.24623326420476951 -0.05227566947526481 0.6476238624423942
Ni 2.881988623261526 1.094866812365075 12.26960290638953 1.4571264368018777 0.39213256997446655 -0.561714306962768
Ni 9.055002044359396 9.087893288096028 4.583403158025425 -0.6365035841595168 -0.7568258127910579 -0.23081847231159602
Ni 5.487794627187719 5.684168701616437 8.114355117156066 1.6882025336502344 0.8634664301704484 -0.6575130965316482
Ni 3.8983725524602164 7.66430871596284 13.28174286394712 -1.5243170757157618 -1.021045229160603 0.6642015642954174
P 8.047999721322338 8.79659997899443 2.4454213281542816 0.33541377712618364 -0.21718596912982596 0.09211928383476393
Ni 7.443349641988026 6.333381410218504 12.270050664865426 -0.3893048707176844 0.27556106663460933 -0.5687920397451559
P 0.7908675453532638 2.084858021462809 4.620172194111279 -0.055683666715549265 -0.18100900498863665 0.8526004339902219
Ni 4.547650153595022 9.4537295765906 5.23950281842342 -2.2943683860581583 -0.7942682739082321 -0.6088698816026482
P 2.965588746152438 7.696606656543007 5.47257547418816 1.224455227552259 -1.1660204804541339 0.1548364603583269
P 6.218577249442162 1.2549010684601971 4.958507027231247 2.5755064325599126 2.016861765661404 0.4858775623381115
P 6.834917255031236 3.6276409058749213 9.42013656646421 0.29949289485985836 0.4282930790554237 -0.07217112284761118
Ni -0.18752458703554228 1.4733386040200278 6.583410484787833 0.6700834769974912 0.001625194308248814 0.4593352930732089
