# total energy = -340858.9542165087 ev
CRYSTAL
PRIMVEC
9.40056267290383 0.00000000000000 0.00000000000000
0.00000000000000 9.40056267290383 0.00000000000000
0.00000000000000 0.00000000000000 13.75867369523454
PRIMCOORD
 96 1
Ni 4.724845018750458 6.4423372240271375 5.484702842155584 -2.087873063872959 -0.7442184084396924 -0.844092653629527
Ni 7.328189849201837 2.490594481465392 5.0949743138696935 2.063661242513446 -0.9194331753440553 0.021367409932182557
Ni 2.4396904344619648 2.9344138475089423 6.983627264449217 1.061746820645023 2.62727122383703 -1.0787775508750646
Ni 2.9391611316708497 0.9999848568771202 8.015596595846091 0.6303568478318305 -0.7830351241965741 0.682347896187141
Ni 7.68630428513823 5.659392558694825 10.064524440125512 -0.8927438389783271 -0.7340370970313165 0.010538437637478625
Ni 9.130052104682719 6.527233705742365 0.8102138176033266 2.5275885258327113 2.124111477379703 -1.969607974880763
Ni 3.3602029342999393 0.444528168470892 12.690863046933378 0.8902737801712797 1.2464751834667758 0.5317545273758842
Ni 4.7861272869712055 8.676587761312204 0.8598140065607015 -0.7853262342235959 1.2054668593752143 0.1923789373884751
Ni 6.386450878794381 7.853690704518291 12.897008926368809 -1.0548943164995639 -1.1316093499641156 -0.30031616209210216
Ni 5.79432823564537 5.804612451235721 0.767619868023912 0.2893725185964049 -0.5199763037940336 0.6020022079485374
Ni 5.754695463315462 8.87178104514954 8.000888475450603 0.31155573956166344 0.823692235596304 3.2228976101662106
Ni 4.4656809057610785 2.358826794143685 0.6896205791593617 2.9291344187012784 1.2021321385750265 0.2509584375945807
Ni 7.286065927757264 1.1100842471825947 7.151373725380568 -0.6924345909991817 0.26766083795092616 -0.42598294286500826
Ni 4.849045253101203 0.13544518744871373 3.4224976431231364 -0.0193776331956634 -1.054020398535043 -0.546806022392368
Ni 7.414035787749445 8.158259535333443 9.400751648157401 1.8735831853440057 -1.0134926136243256 -0.46925280929723706
Ni 7.321938475008433 0.4259723977635853 2.900823756880568 -0.8084615346894786 2.4145677159585897 -3.143952916040192
Ni 4.353692002353538 4.4365861642143365 3.596572562862004 1.8002905472974415 0.6545352448502469 2.090353921313284
Ni 3.50155919557243 4.551639651061049 1.7374448996007374 -1.282903601497139 0.1779830736781193 -3.57501841563443
Ni 1.8310416020918965 3.7177439359118254 3.848644891352883 -1.136182571157095 1.3754139501227347 -0.3590990365582654
Ni 8.411538896074598 6.720152053407063 12.06974154797713 -0.13921160933687637 1.4858253473984668 0.09458034378074678
Ni 2.3979895383387504 8.40699842429202 1.4685596647265475 -1.5713294399095583 1.4832609291054004 -1.0309540036338825
Ni 1.9113788108991527 8.34462569079844 7.032718882964693 0.4583508176727526 0.6200860620334419 -0.03119082378050757
Ni 3.9705344673927434 8.959074670352463 9.986829729492339 -0.025556251202549535 -0.6861862960966247 0.14920831553827207
Ni 5.664732078306635 6.5568360776747365 8.331867247106278 0.5427740184148394 -1.233283624477166 0.7870236765306768
P 6.068514447824312 6.586664063111833 3.203170294674185 -0.8186065935432806 0.15679435541564607 0.09778008166496709
P 8.232110355879875 8.107985326030706 7.057195128058474 -0.034708864236095066 0.3173363507991825 2.4800981935612323
P 0.3809888251466322 2.806058564446191 13.441797856226655 -1.4967998441320995 -0.9454465686886815 -1.5209612718696515
P 8.041814765207597 4.470926419745919 6.44430100157451 -0.3297956596084578 -0.7924492184216223 -0.3562319994231155
P 7.662878082897687 0.4922661059580214 11.64924873820954 0.017081895182951227 -0.8275013249297491 -0.8077408544733702
P 1.8903779538343959 8.868293436389008 9.604902728188561 1.1085869209270134 1.2424411226067185 -1.8232430423285568
P 4.172317545680568 2.4039306939631584 12.127665935202565 -0.12681760654789773 -0.07598535438737881 0.3974321278105091
P 3.7142657277139914 6.999602580696239 7.8168799811099765 -1.5947789291817502 0.6323085722415626 -1.1814542985107008
Ni 0.8206597228720632 0.6327490549559756 13.323362986977886 0.9197874733596804 0.8838272532149876 0.2296352506367723
Ni -0.058004292008356245 7.280077769319372 5.323024444445048 1.051197327263951 -1.8498310772297302 1.4991308062581215
Ni 0.9399885856333021 4.799128265180946 9.307907930738258 -0.14885838839802107 -0.11066002295142877 1.1690212149536705
Ni 5.817754437885913 7.553775152238078 10.645814814878946 -1.7304938382192778 -1.2864280697106298 0.41511488980225286
Ni 1.380124811212227 8.798804476933915 3.98074159836898 -0.9336521471569146 0.22011882650590475 -0.8472720797987731
Ni 3.3922776542215813 6.831934144435273 2.6909214125914755 2.2619773713219624 -0.35944047905808413 -0.06853198343312714
Ni 7.724959398947666 5.63824129262692 2.0235848673049905 -2.2100554856416905 -0.3358405802509571 3.5016386171906984
Ni 2.0976697618625737 4.811499405689997 13.302339568562658 -0.22877984461501247 1.3059142034596993 -1.1047783458142004
Ni 3.035535700438927 2.020556946060336 3.65010688730801 2.130937242052285 -1.8418357177290796 -0.6525305557153923
Ni 8.772182083376443 0.3324396190987648 8.8968532859183 1.8066154610742047 1.3257911448892843 -0.8408983150619452
Ni 9.37308485208431 4.647290376501469 12.150655951333974 -0.3650244009037649 -1.828962204200521 -0.7256987523689502
Ni 0.10031152442551704 2.474585323192662 7.140820653697087 -1.742441240389141 -0.14304615259161815 -1.3418705669496505
Ni 8.273078008112735 8.940461556212705 13.57509219493033 0.3667814928041877 -0.3823551788727286 -0.4098448996525651
Ni 1.9707527648924394 8.093743473544981 12.450499119281423 0.03986983961174424 -2.694654952598327 0.5957228026977288
Ni 0.484034973260662 9.076581704063052 11.077342005140098 -2.3286990410192283 0.06601873009297017 0.7012439617606956
Ni 0.46390272818909406 2.061157976348019 11.18697136731073 -0.37337688663351826 1.1115544881957695 -0.4151925371177237
Ni 2.080523135503524 6.399038232245459 4.4045368258119755 -0.40191381773094653 -0.6109517038323414 1.170113676686901
Ni 0.4295784536140959 4.848142799082306 5.263202083611122 -0.5048528178890338 -0.04851080311619388 1.816685443715697
Ni 2.1053970243993816 1.1780503154808 5.628150728628124 -0.3148405809605223 -1.2897216528602369 0.08218299855765845
Ni 4.9964272750623735 8.78590690491384 6.131855439275669 -1.4499839122198253 -1.9849597747464844 -3.3032039605264463
Ni 1.1759257883113123 3.6608799321585965 1.4530120740822319 -0.31727952941931814 1.5285228862669935 2.252437035931695
Ni 6.250405935445609 0.8879310895869714 13.357676920933917 -0.762186819992655 -0.06438376559270846 0.21381139623063825
Ni 1.5957925206032952 6.102798299979714 7.440401545945293 1.0737068212203766 -1.0275254375683078 -0.9265972971926623
Ni 8.379990607663979 4.0684601290058 0.6651490343469291 -0.8451221233353058 0.25927004278406957 -2.1146626732619773
P 0.3403755741274432 1.5189523211192666 4.286872802704348 0.7177848968385122 1.553141970367254 -0.9240711883366988
P 1.8995435024638219 6.2604739380939325 1.026319593216068 0.5796343817762984 0.36772097389932157 1.0486853594753747
P 3.2525382897329482 1.056472838122475 1.706639255643169 0.8076711775776995 -1.5506899092823359 0.0004142047192831576
P 9.045606849976942 8.866714141855939 1.85709056132486 0.8502720429673615 -0.03632428835233099 0.30947288889070573
P 6.508893207920815 3.6062626628899146 1.7125973322804309 -0.4968805983168346 -0.9258493632830442 0.5806620517098644
P 5.333869873628401 1.9729618971261986 7.991147612384131 -0.4915581576626567 -0.4315511809814052 0.030073422346612724
P 3.3173269678396187 4.363130167301173 5.379366716968603 -0.38357465310212646 0.6625290616890009 1.3557804921625232
P 6.8203150489419695 5.2068776721566925 12.58906247337668 0.39808930177853374 0.11254567000991585 0.3472454796537891
Ni 2.8139268354234517 1.7632447439222345 10.366733729703755 -0.18381690675107695 -0.3662747283710982 -0.04150043323663175
Ni 2.4082549528037083 2.5842522876140808 -0.10265038442449262 1.1808161507060695 -1.5746788159977656 -1.2346717630739448
Ni 6.612393403213104 3.8368114630300916 7.992565217238815 0.23157386242038183 -0.02824253978546104 1.234228504888939
Ni 7.922164403202126 7.88726951447143 3.74024042250165 -0.5943626891254086 -1.5373142593063782 -0.33003142976834776
Ni 3.9806588734172474 3.827768121715725 9.053758077891377 0.5774255470504378 -0.5804062269453166 -1.2160258658379832
Ni 5.434155076478367 2.3469632840202643 3.6221082513717198 1.5486834203752684 1.6355915923227382 -2.209446648413098
Ni 3.8175121078134646 6.69222298163473 13.795272174415885 -1.2740721192484379 -0.1151226867084727 0.6187264626817538
Ni 8.28847612981017 1.777110573900084 1.3149300287970525 -0.11516331013842103 -0.3351857202757776 -1.3337471665115674
Ni 1.1988819624170133 1.2988287450098928 2.0741204122507013 -1.3971078901564002 -0.4947085303661803 0.7705845571380471
Ni 7.641256788694938 2.5083615449624337 12.36072374552653 0.7394361565597006 1.4573688918299867 -0.3721594692866494
Ni 5.6637262180980725 3.514249955213174 11.066073550635387 1.32459866724308 0.25665317398651283 -0.6713857407486824
Ni 9.145807447762635 0.09769910805206321 5.818901306534928 0.31798478301645877 1.883869140651046 -0.19351433654449898
Ni 7.533958766073124 5.378757560505846 4.437764054720251 0.3561119289054835 0.6497501647567777 -0.24254141717547903
Ni 0.5272258585713264 7.308852891734422 9.210895063763067 -0.2659374275019162 0.01981343518150136 1.0399770330680993
Ni 8.537346626646505 3.4606855489665387 3.1206051525077765 0.31667146352167397 -0.9998642242076135 0.2753870029505902
Ni 4.884175155899322 1.451681894460628 5.589970343234878 -0.37808483363214884 2.187092963308246 1.6523179039384837
Ni 3.0609924242219897 6.254795998225036 10.132025180570222 0.053547079988520686 1.027315892660663 -0.7203341456229272
Ni 6.866133391526404 7.903729899753609 1.4124383054263696 0.4379128615333749 -0.2073340160364107 1.3416365965619734
Ni 5.985432274709577 4.1463719926372695 5.635648617435129 -2.3238476264641976 0.5024357238071088 0.41686581105508846
Ni 3.0100883772185623 4.0487659501559055 11.125868649837491 -1.0459479059395533 0.061706218760545335 0.5592324210811789
Ni 6.762492187793662 6.8050861373730775 6.326417005299776 0.845140378167751 -0.26926546343388463 -0.6573071511684293
Ni 5.937583410582624 0.9907347031834226 10.070963825572852 0.49543718100208867 0.31222062683917196 0.04063294303001389
Ni 8.515076693617672 6.026052106122654 7.862160611508151 -0.27906573735375806 -0.20708693302261108 -0.47504601894024634
Ni 4.519621334515588 4.72523044182103 12.864043033103504 0.5669444450134559 -1.2595068198397534 -0.28134733429908315
P 1.114229895331904 6.298254799572561 11.26049786844412 -0.2770957581115809 -0.12693844839647814 -0.020569853731551672
P 5.104674754516569 5.423071813058784 10.126590715275174 0.14356860075399144 -0.3654589173380222 0.03132220715204928
P 4.2153533217067345 7.929919867427025 12.16650624009713 0.4269267948355164 0.8331387257211845 -0.7596722811009176
P 6.887914495294997 0.36680807631843815 4.796851448895769 -1.5461344287011693 -0.32639846100145076 3.341658150737587
P 0.21777437549143178 5.391504723522771 3.1485210634923337 0.3822451356574255 0.2623268273325224 0.4749611725359239
P 1.3073362542505393 2.7308916651222006 8.782395794746567 1.162406023629998 -0.5844626564028773 2.119866071839788
P 3.371963038233695 8.558479091589016 4.6193650649542155 -0.12866520127959777 -1.0580729713378616 0.6230613426116819
P 8.024527130408096 3.4243053713297398 10.151699618238455 0.12056519788028268 0.15691905391896843 0.4288854612237839
