# total energy = -340887.8038505832 ev
CRYSTAL
PRIMVEC
9.09346049248696 0.00000000000000 0.00000000000000

0.00000000000000 9.09346049248696 0.00000000000000

0.00000000000000 0.00000000000000 13.30919861183068

PRIMCOORD
 96 1
Ni 6.61778408393777 2.0970883989563873 11.257705039207544 0.3715578311469085 0.8186297334717321 -0.11434775621566112
Ni 4.911350749132312 0.5997537328453446 5.8088398384467075 -0.5517086019003079 -1.4900455561274015 -0.1894702483821124
Ni 2.811888956978918 1.634558622816424 4.648743430671058 1.21601943808008 -1.6105071385502845 1.1804122303994313
Ni 3.529199310106328 4.1719341934688 4.942810485164354 -0.08458235202777045 0.8522991006997191 -0.5168647547482453
Ni 3.5361467139473737 2.7804619574047647 2.6262777874743395 1.9327113589647296 -0.14003873322386207 0.1482940312541188
Ni 5.387202444941296 4.468335539278844 2.7157156091212213 -0.42127833830048733 0.21161721679279683 -0.9807223611718401
Ni 5.275489282392549 4.972213280425658 11.515558296506365 0.64077701472389 -0.9033915485001603 -0.5066371634829662
Ni 5.4333790374868824 7.813746918715843 12.143073454988263 1.8977163309467835 1.254605268773078 0.5048044811496015
Ni 2.1549228078949327 6.652848467721895 0.5190810977984415 -0.6780014462929872 -1.0388542323175658 -0.39817363396222394
Ni 3.0013693939368533 1.6573559283524197 0.2623527015665549 0.9871298073600806 0.34077272744525183 0.7993598294985266
Ni 8.256734848187735 9.272237958848601 6.725777111785769 -0.582326583896481 -0.22651984493624217 2.0634203301472334
Ni 8.908044864825214 2.3963450913712596 1.2750050123528558 -0.7314042873941596 0.04435718595913651 -0.26252763048941885
Ni 7.261601089102709 0.8766459684452077 4.833355228863947 -2.0181375470500345 -0.6800076780897385 -2.2223569287168625
Ni 0.7838635720172571 7.834098083370632 2.532527846846537 0.30682825217900705 -0.9142107506028513 -0.416674778090205
Ni 7.8125011146239265 3.8396227720458125 3.634462481104743 0.40952659708119793 -0.05652467455960588 0.08765147787139743
Ni 7.976983628598834 4.0372327627130336 12.289195362817287 0.36446698573839814 -0.559052700970205 1.0880661752658423
Ni 8.334429374912723 7.5362145034950245 8.809518129383667 0.43371322162973047 0.2316599943762849 0.4285005670805394
Ni 6.9711377730154425 0.7927851661382646 0.26011389158531745 0.9005167980555264 -0.7724869163670824 -1.2596950245911596
Ni 1.7931303874501272 6.7259962641844195 9.188218020982472 0.27119790456990717 0.4000500250493304 -0.2244933014245166
Ni 0.26176526401664446 4.804602616030175 1.338532836926059 -0.017668878034672795 0.4761821894272185 -0.6279965751297701
Ni 6.293865926579293 2.339483682708882 6.665739357362034 0.885921673850171 -1.296447915840477 1.761215949893483
Ni 3.7965197691576513 4.439000035625425 0.25801512089616396 0.03253962449891815 0.44254701787127654 -0.2665020417561345
Ni 6.222400420313879 5.981005417219127 4.782420937771717 0.32069369730718966 -0.5844073776849096 -1.0568727803821734
Ni 5.457949567825239 2.8823632760471134 9.022665206703781 0.8655477381795093 0.6674817777085859 0.5926122820932052
P 0.34511501384208665 5.8373287409252566 12.474551915427167 1.0236214745282113 -0.8922458162959859 -0.4084343924582837
P 3.9841087663264014 6.432513919202877 12.425827335242495 -1.7248034727027197 -1.3586542141658924 1.124695396453102
P 2.5592362497543037 8.69116583130567 1.2097448835496538 -0.25623691238470064 0.6848187263251367 2.494490971947794
P 6.532814788792839 7.9773928343224565 5.709819328098656 0.03893112984755876 0.5117832264602798 -0.11522295973176284
P 5.0072685707492575 1.0762110531252886 12.25683992092354 -0.4081839670103744 -1.9067172488938129 1.2816411898449476
P 3.7188525228142373 6.041404182025701 7.956278728329624 0.7062470714022417 1.7364600831050416 0.9381119827004811
P 4.821380050698669 1.0776751002698022 3.6037447714515345 -1.0621101175217127 -1.0409849055073233 0.32951746624640665
P 0.2841733694421733 5.527050774354171 3.3920626506219866 0.41030101335337726 1.1466137937927479 0.7849595949127965
Ni 0.6189400252068913 9.25186860727276 4.771387842116821 0.5510599125727155 1.0483030364352914 -0.7153590610058389
Ni 1.8789999351870272 6.5954596383490705 4.59155374808373 0.7694154765306104 -0.15123383060873308 -0.5345359467757632
Ni 5.622241119129122 5.772155909343093 8.990323405000819 0.8794095837632662 -0.9018288319987307 1.0049714635271918
Ni 8.787747475540936 2.7255556427552468 10.166976276354207 0.19300345834635146 -1.0243478111712747 0.699589199766092
Ni 2.2463302730915142 5.460232026416996 6.568515714813708 -0.8599069949539642 -0.08494179224971823 1.1385014490982586
Ni 0.5365887373470862 0.33225140458352276 9.30418146698057 0.3671882413243031 0.297736574290384 0.1623718495034236
Ni 1.76988750234841 1.4329293225971842 11.719081764552946 -0.7027807101201962 -0.6098749258283948 -2.4775990812884623
Ni 4.5367820166499815 6.964372238384896 1.4711318596084615 0.09537661442979704 -0.07814868058728476 -0.2837034932360856
Ni 5.502516617857913 7.9456748440115055 7.827711746043976 0.4073169910243888 0.5812940288669086 0.3646544191588559
Ni 5.469916561876045 2.912562658450401 4.415499805590852 0.008527577855036926 -0.08601908447429701 0.9121469260952871
Ni 0.828960770798535 7.629595249625515 6.902709482565355 0.5510619694552445 -0.4344722112829421 -0.4709877897104727
Ni 5.119381845561101 4.558479013462461 6.9684697516974285 -0.0824118267390129 0.3305201964793082 -0.5555218049988111
Ni 0.5790570166906074 7.8653432137342865 11.360838521751019 0.9208519100684527 -0.5960506183507929 -0.07826823688428455
Ni 4.820188807369903 0.27167622664276403 10.277722804049153 0.21474059291312694 0.5537559713476399 -0.6269367664066879
Ni 8.712653678526074 7.315879954976007 4.656782049775096 -2.745776710974807 -1.0304963472711737 -0.261152347408447
Ni 7.244587224460567 6.385837186328419 6.98070136544951 -0.008922756410926568 -0.08176288030110435 0.16077442310931667
Ni 2.780971191194161 5.09910342859051 2.434758596666715 -1.2333062501849856 0.33207160012682807 0.3893012711732586
Ni 2.9001955521364984 5.230640335083601 10.947188823970704 -0.6839306672932286 -0.10158094346829603 0.42183626768648635
Ni 1.4083678857193522 3.232115954756914 3.9190396001942234 -1.6609976911006685 2.012617131452437 -0.6507009587058212
Ni 1.622991741028715 1.344295362860706 2.5220003475968267 -0.054106037815784234 -1.6146877522905352 -0.9381659758668682
Ni 0.9656982273658326 3.678141100044132 8.30331609972668 1.3878529472170356 -0.6184248722809349 -1.151280346030482
Ni 3.776341380252835 2.507758169722684 6.914967467352959 -0.7106750252666083 0.005852345015718953 -0.7116672139765486
Ni 4.305408007053701 6.948758766663593 5.794985041990927 -1.2202535307660856 0.5308587550344922 0.13137720089412214
Ni 0.6555693935473559 0.19603500330430373 0.3340991957621883 0.48371269347630885 1.223127509879771 0.14268259860461233
P 0.2671313150724048 5.796053523602606 7.966540698532007 -0.6544784234703825 -0.5490181995523383 -0.37776935927425903
P 8.593811242925785 1.9781277483692727 8.058652906919269 -0.07992248465825591 -0.5405261029209272 -0.6937047159608568
P 2.2443569921576048 3.2705540123957864 10.355035405432096 -2.5899215795439785 -0.15235483158705374 -0.10008918941411794
P 4.2755359892293106 6.135430563853462 3.577126393802964 -0.0967855789621817 0.8760692065361235 1.02585833427853
P 7.001437183484504 4.1782996158362495 10.323292862777727 -0.034767228277856256 0.07534977768590893 -0.878049727301262
P 6.5701161638660945 7.558429827557425 9.897452471817692 -1.8733934379307027 0.6786653051292312 0.2695485418919423
P 2.4984919334477813 8.639114863260978 5.567756741047961 1.3482906115433813 -0.7169145784184169 0.7283932684819778
P 7.140303419160688 3.900485303339159 1.4958078740889071 -0.09034290866063151 0.22995149632561043 -1.5060059361113998
Ni 5.552394248837147 2.7001212336670215 0.09975344326636072 0.0015843137679843681 2.27713222468553 1.3357076326720478
Ni 1.5185624403604359 0.9437102398165554 6.968563414340835 -0.235337186117556 1.6790779456411469 -0.19710462499891862
Ni 6.988042516131284 0.9764285107852482 9.174456887170097 0.5158265432917181 -0.9548786606358586 -0.9758267236424356
Ni 2.699039111864555 1.6649035005881103 8.924603147095056 0.35307777006484997 -0.5214832273568633 1.5815403190042892
Ni 6.33797830358572 1.8604674626372228 2.3418470730993106 2.599464228927091 2.5313559632949434 1.0024412409061703
Ni 3.9449705122271093 7.2115324954524525 10.118025269002462 0.33564517641069935 -0.2929630641611406 0.2717185529600675
Ni 8.521281801778954 7.470205073544569 0.2129206501530435 -0.897996345626518 -1.0444296695228141 0.4968116927521122
Ni 7.724603725189969 4.203015641543005 7.999427198520411 -0.6837306354672806 -0.6713751992257212 0.40884499763314097
Ni 2.99601334568767 8.504504367110462 12.541989928026087 1.4744775264858154 -0.294251443955261 -1.9047632104912355
Ni 0.34865873540865133 5.021081537286624 10.218030601125363 -0.08225293256364544 0.7099903404947578 0.8361471735302052
Ni 8.703251040343298 2.4977462696847375 5.672912609212182 0.9320693760508271 1.1506283142687797 1.2292747604280894
Ni 4.013844382242918 2.7387775343584924 11.357870416235684 0.5459591010110404 0.625933007732522 -0.021346841106892268
Ni 1.5106056624011235 3.5928990010834525 12.467285331121696 -0.9132296176365046 1.5971029493292366 0.268922221161853
Ni 3.1236218772339917 8.539677872420885 8.04285483794931 0.1311046639590258 -0.4722566291205673 -0.380976296247331
Ni 6.079487594704103 8.178512900752299 3.3079217697308754 -2.20970684405302 -0.3877210711703323 1.6674164501428186
Ni 3.0591583355727736 8.237483992256461 3.2557098474348933 1.5800776184158336 0.30153537921118395 0.6093679042849892
Ni 3.4795490156402185 3.9945753393905945 8.824491421484014 -0.11718831098824979 1.751944809004202 -0.7061218586782871
Ni 7.58069061892245 6.294402440750263 11.425814025239792 -0.6196404898555908 0.06134806409017821 -0.8154053129971635
Ni 7.892769090677471 -0.04116063972003639 2.345427168507975 2.463583740845977 1.362820172618124 0.4165356814091794
Ni 4.8490514510760265 0.5994718355690718 1.4392829234659517 -2.0805312787959074 -2.433778998779718 -0.8396310183137474
Ni 6.491194019970241 5.735963936453878 0.24160597137893047 -0.4168485846639079 -0.22899196062581853 0.11352474609373352
Ni 7.528303192838337 8.896869001840077 11.34772847971223 0.02351736639564982 -0.3436719033699178 -0.17574261438337474
Ni -0.19637782676609356 5.1478352835436025 5.7449555502209275 0.39053745757320485 -1.1208138020105085 -0.4145407624663377
Ni 7.233920595264826 6.104803788805504 2.4858783943536533 1.3567436274067406 0.034433499087521344 0.43776965108729127
P 8.824094037259075 1.716954468632801 3.5605835704160143 -0.37888444671530874 0.527861105858749 -0.9761121160933381
P 2.0276598278485585 3.298634618496766 1.2624396685995094 -1.0310344791628308 0.515042356827526 0.1981227818507878
P 4.90459430796229 1.0076645476883777 8.172313888712456 -0.5016394531580587 -0.08919696798164638 -1.0240338794752817
P 8.736396703956663 1.461555536329659 12.104902745088822 -0.9068692226361156 0.8970861751074228 0.3903145429291213
P 6.648892812393551 7.852666929762536 1.1878696549108858 -1.7369539920223247 -0.9331219856850576 -0.9840748225838407
P 1.699676893635437 3.4430660520142053 6.046501975995977 0.6807180738932019 -1.1132182490514375 0.30423606597179864
P 6.817149112486303 4.0669865655506 5.719614803776109 1.6141017978800782 1.6277654114101001 -0.11461695071664776
P 2.42876327814263 8.836088311691455 10.478664638652708 -0.4612952450130572 -0.501174340596182 -2.619670785781953
