# total energy = -340861.8416824383 ev
CRYSTAL
PRIMVEC
9.34464533148406 0.00000000000000 0.00000000000000
0.00000000000000 9.34464533148406 0.00000000000000
0.00000000000000 0.00000000000000 13.67683301385479
PRIMCOORD
 96 1
Ni 1.9280432387989987 6.951060958855545 10.747528600904277 0.1282525392222114 0.9211617279993877 -0.18883852833538448
Ni 2.8023656101675587 7.034349780368178 0.5257484209518396 -0.4637964141683561 -0.5684272002065694 0.671638737299753
Ni 2.9082591281055317 3.892063361119105 6.432433157447364 -0.4136401050289392 0.28236163449621043 0.44710069868023
Ni 7.086287317669559 2.4531936024663312 3.0820601817702302 0.628980279199278 -0.3218087847482393 -0.36263507473598194
Ni 2.6970234262887405 8.149035112238021 8.475492156702078 0.07751156122391813 0.7305069723908709 -0.3080608390345275
Ni 5.561998158428098 4.10740136212181 2.170321851539718 0.15778577279463796 -0.002137872278609221 -0.10507584399543193
Ni 1.6926983527005293 3.243741230778597 4.347974577137179 0.7602417804511423 -1.2084886769206735 0.7663566350996286
Ni 6.711763287892289 5.781466492551927 9.820362261662504 -0.8875057305078392 0.6822309109933025 -0.2542319661395299
Ni 8.654505653387055 4.413653415014609 9.061175262206563 -1.6493994447401077 2.533127967593702 -2.3727584932322876
Ni 4.2329279793527315 4.318627719293532 4.51877039294723 -0.8269364535652145 -1.2551284882663998 -2.541335700215475
Ni 9.169087223479746 0.9301454120902212 0.9108515234133298 0.056108670068109816 1.2131418594219687 -0.969559145466169
Ni 0.5344987465957788 9.04950380051361 12.145341726975666 -1.9860846323795474 -1.3652460084507971 0.6998550518329688
Ni 4.942906077867855 1.9322857076609683 5.9459892481262075 -0.39182249493321547 -0.36960070742053763 -0.5431468283732258
Ni 7.761437924007237 6.681636152185262 13.353430524182361 -2.668087229412128 -0.9895399594634698 0.1537979917914835
Ni 2.563385657136697 4.005694245175384 12.251186652759271 1.1044816405093882 -0.7593470365510148 -1.438478739793703
Ni 8.04140349031695 8.125552019176062 6.022852691688421 1.3750678796372255 -1.2829046299384033 -0.02596197128140045
Ni 0.9892147825093454 9.389966599009208 9.898552644824719 1.646958182288467 1.0780769252636142 -1.2646407986322092
Ni 1.9535821537764502 0.7471819339339781 2.0878918029090565 -0.8989157721169938 -0.6030069950639679 1.4214845192285521
Ni 5.570417683636544 7.446813069131344 11.846257016851878 1.8146815259117908 -1.4947483609197094 1.7287208054792549
Ni 3.30018288700392 4.806829356352433 9.844885413720803 -2.181068354380721 -0.1905017749704203 0.38118481271371124
Ni 8.706144162046183 6.5789104689261615 11.203336091362068 0.7144841146000533 0.5640265000357125 -0.8185433444055129
Ni 4.310927731755508 2.5540223227761385 8.199329860936023 -0.29059250704643497 0.9761380842352673 1.3358297600722093
Ni 4.687451515577847 0.23046417797819016 12.272864360393626 -0.25013157081791115 0.0967488121869753 -0.013435042458983314
Ni 0.8349636607964678 0.16978565967794 4.397976838444476 0.4289926762256096 1.7382156323435678 -1.1090250369056964
P 5.6788436003886 7.876349024438163 8.576235840741743 0.9381104400385845 -0.00970437177195748 -1.2391287704040337
P 4.183214467578109 5.870249965365966 5.802409711083747 -1.3885564010419635 1.9957288403375304 0.9682995620274549
P 0.26757643587535396 7.642583383356594 3.5594229650119544 0.11737805840155269 -0.9298690259653987 0.47477399622578237
P 4.989134037031212 2.505224586218417 3.719592050447927 1.1967001689261776 -1.0957442606363903 1.0641204630835222
P 6.859632951486579 2.455539108379006 6.904420900844584 -0.05962002565547796 -0.8501141772332584 -2.3770519784013193
P 1.8784792413455034 4.923618730442514 8.121877704734374 -0.5011787114715562 0.24554035190280293 -0.086117043504742
P 7.063224733635769 5.2560731681127635 11.840335315270753 -0.478746350609969 -0.017361116986266877 1.4978596528551817
P 3.6549056138769753 8.537594798911059 3.1997494451805917 0.22559733312197275 -3.1166156616778196 -3.0178464766267057
Ni 7.9016823572240655 -0.3609359813803759 8.14690640209098 -0.8726318987198004 0.5613116722077108 1.0184674411310977
Ni 6.235616242974227 0.23810155639424255 10.421240694515996 -0.002548734563782707 -1.3564129835401995 -0.4225217237892852
Ni 8.766529258491222 8.017312995325414 1.3565471734404222 1.9898538696139922 -0.40544548503328887 -0.19170813657369565
Ni 1.9084381734412623 2.4636782942353403 8.109596037718324 -0.7850642388114609 -0.17310389120894704 -0.9285587917944071
Ni 4.905536842231255 6.448833009545947 0.8080650999612705 2.5083715865846283 0.5557647742475524 -0.17246291519083845
Ni 8.995547819877018 4.444518777682199 3.1165811695893675 -1.9312622852230288 -0.6744324979948063 1.1701995515324881
Ni -0.011919094787317753 3.2738403325504124 5.87715378914399 -0.466891508153912 0.1626112192077393 0.1764679225851735
Ni 6.853269248193624 2.2738698635650163 8.908405266737345 -1.8230476384882992 1.3549032317638923 2.748961536460692
Ni 0.6904459213889372 2.6193787703986398 11.987019143405606 -0.8308784689320982 -0.9495585339745259 -0.7156567947519159
Ni 5.487596094377432 6.171670836757358 3.6453413696474026 -1.9902099674018305 0.42273923911673 -0.4312087100403219
Ni 6.139824286357375 6.5634357366895495 6.078996253735998 1.421469092609584 -0.8239295484180907 -0.2299530389875072
Ni 5.625261405554825 0.6680365280455686 8.147590430110135 -1.0387758136711465 -1.533612899195391 -1.5381701795487703
Ni 0.9099619132026261 6.063618705808119 2.176804231825067 0.5005819584278218 2.4913979348447675 -0.388056343022564
Ni 8.083342257392985 0.2132261112167907 3.0216367722804027 1.2202051940266534 1.2846905181942327 0.15243145046126005
Ni 8.742728447496868 1.9127367101736545 7.90782178903533 2.498051178495227 -0.3299388700545415 -0.20773330835735834
Ni 0.6326137819771362 5.840356445785699 5.927252300295514 -0.9060546971546203 -1.1996967896606565 0.45308571261907127
Ni 3.4988687304911408 0.7676420343156577 4.221532184689357 -1.3194328067714245 4.150177021027562 2.9474514718429106
Ni 7.728498050134014 6.560959405745888 7.820262464725516 0.013566425830525022 -0.4837869983576701 -0.07167464282716689
Ni 1.9296224838158993 2.4732191768522367 0.482307969412989 0.26479894302209883 0.18453578719497252 -0.4686611984598252
Ni 4.826135393067917 4.501474389386395 11.618797142263825 1.2238345632491245 1.8700008673093858 0.24451730995492724
Ni 5.478064556405606 0.5684842862523808 2.6915044789101517 -0.13385600145191787 -0.8219461994394749 2.3941541852992443
Ni 6.724677587379606 7.796265416184684 2.16061089638254 -1.7545354525495138 -0.21661724111054953 0.657036671115862
Ni 0.9644701623628794 -0.030211237512660367 7.050488916869296 -2.625905710948071 -0.1823089547469828 3.774022571648907
Ni 3.9771743884204698 4.478168844580773 0.374720267323749 -0.9687327929101317 -1.6386802585503908 -0.29276123256297965
P 8.156314590747877 2.080557190993286 12.953971243499188 -1.080126094483159 -0.3492961915352307 -0.21106880048849455
P 9.246133822085339 2.249919538249536 3.502595374945223 0.35609110296987706 -0.5110118955118941 0.18445145501128232
P 0.9344280629259937 4.265138970910461 -0.17398607763709276 -1.4324464175566944 0.8316140615465419 1.3351167931655845
P 7.895692439733928 4.843693981155231 6.38025639723218 -0.016615239959177838 1.1803962895598314 0.3006694316664628
P 8.349066584615382 8.527016660691347 10.292855550358036 -0.17022399855799072 -1.9310218870774485 0.013380020851331794
P 0.26657936224634043 2.837118345184442 9.683580019444268 2.038566504328347 -2.9438516703067945 1.7562910017880398
P 5.215237069155038 4.2961912264794595 9.393262455325543 1.2394074779867172 -1.6457348514043268 -0.836230991493263
P 3.748464200321997 5.477840284923915 2.2902949462052895 -1.478217196033906 -0.746465038382024 1.1128654936977092
Ni 6.031734776827854 1.096678200819149 0.6055591655692629 0.8635283937566354 -0.4977627438114718 -0.19340095089508627
Ni 7.924287053649405 3.6432341521840232 0.9556207834811938 1.4041817662840463 0.2511080757985676 0.7345328057208124
Ni 5.076403677343842 2.2110738486918096 11.090940569384099 -0.6713039796681535 0.3160754818088879 -0.6184382420173736
Ni 0.9469302635657053 4.779720541003151 10.63654131693842 0.26712270605926897 -0.2759559880801828 0.30949885703263474
Ni 7.358982750114488 9.295174519414891 12.641400341609772 1.0596107481386268 0.12991527163661498 -0.7675048897714588
Ni 1.6933898564357401 4.039082662011987 2.282184728748674 2.1225893843082217 -0.6354070086612283 -1.7432655360626492
Ni 2.4082832382579045 0.6063525259357415 12.813099784598133 1.1925231547303528 1.0574721045290691 -0.6045812815296233
Ni 8.40316273492803 1.1825835229514985 10.619705069915048 -0.16166659590628288 2.7231350623158908 0.8759416798193237
Ni 3.884933396930377 -0.0023221442999987944 0.9905996589087813 0.15773615050362513 -0.95056640641375 0.11887264066920816
Ni 0.5287284282647958 6.457729111652984 13.525498146186496 2.3348766305848496 -0.5247001916322641 -0.7845392195459263
Ni 3.696358459409348 2.393369184725518 2.062329526318929 0.0632463095541556 0.13043771979898827 -0.5067181532325467
Ni 8.419357004835064 0.9811596984586454 5.73124930440801 -1.2492648303967713 1.6511051145773048 -0.5204136484417683
Ni 2.514812192060666 2.047000570545416 10.33232733113548 0.4661751988131778 -0.4113127424473433 0.680876453847937
Ni 9.717029176473826 7.576983974962262 8.67551615336338 -0.09144796879935217 -2.075770109961838 -0.2120141951208994
Ni 6.888246254692198 4.392085974192085 4.496121776690059 -0.11272179057646392 -0.21960897674902177 0.5038603720687774
Ni 1.5925798254160743 7.830952738686073 5.708477338835909 1.5977740072543323 -1.5194054973467574 -0.9335266773226438
Ni 2.9297705010576336 6.6392488421458475 3.9888075370686327 -0.10791022812043351 -0.6415231488612951 0.2057018797496264
Ni 4.626272124301823 8.184283113443637 6.580457942149822 -0.863967538176583 0.5544239439489419 0.3297416664420708
Ni 3.8571143885557437 6.159298526684125 8.002328856955 0.4338500043179109 -0.4698135668967134 -1.2825246208911654
Ni 7.2643962527117205 3.3339731235785504 10.852525967379998 0.1765697382703604 0.8526096899616027 1.6512107869172337
Ni 7.6003268983481655 6.712314621951443 4.068119277639296 2.616405741877436 0.14251907644355455 0.5964774214755663
Ni 4.374190978882235 7.289402522920159 10.111624569397847 -1.614025693226504 -0.4287988150472486 -0.8021667028197024
Ni 6.198275041272837 3.188206005125105 13.273557170442965 1.1043407440561497 1.7666903427444927 -1.7997650138112746
Ni 5.446591791808439 4.172178441749946 6.6861935355861055 0.8482717247078809 0.5725965010929106 0.6967810408933355
P 7.214860289193436 5.556849258994297 2.167928687937184 0.55168854729565 -0.4549276509238165 0.09470324251185626
P 4.378153108392093 2.324087986173441 13.476056563583425 -2.5147219542826886 -1.1379054673854725 -0.2885171125746451
P 3.0994225323110665 6.081457633247546 12.307946026916987 1.1371310511132933 -0.2987063944028211 -0.35650196525505057
P 1.4067802474809596 8.567123877333579 0.5504491212664747 -0.7213679862040803 0.9562809403000242 -0.48884410116560323
P 6.1546635827291984 7.9946989542550035 0.16474142026892852 -0.8740174662134174 2.8326931104523925 -0.3007743326754433
P 1.9989410609482576 1.2271107567120387 6.0189961566678605 2.468480149706329 3.2803386258924982 -1.5842584892664007
P 6.7952203130161895 8.794637950863038 4.462873529529514 -1.4788802835392014 -0.4736072296111908 0.29839117715524743
P 3.0454385177392638 8.997687743598144 10.580001541939858 -0.0873984813203269 1.0383698364819793 0.7828700593736195
