# total energy = -340898.29889697937 ev
CRYSTAL
PRIMVEC
9.02834274878979 0.00000000000000 0.00000000000000

0.00000000000000 9.02834274878979 0.00000000000000

0.00000000000000 0.00000000000000 13.21389221172821

PRIMCOORD
 96 1
Ni 6.364665557614142 1.8711330370743067 11.379209285611115 0.08406787428519716 0.2799957053671952 0.012406086973836699
Ni 4.637038026541235 0.3566384931499147 5.914683030079297 -0.8503787437485548 0.012265961851546617 0.29140934652077555
Ni 2.734874575869772 1.6925795050082681 4.756168813127562 0.24015697610370254 -0.35472353319838906 0.4371656989547052
Ni 3.18385405453914 4.293708213252702 4.730005579038765 0.4093165379529209 0.5574987262195238 0.440510447057222
Ni 5.1645911710634 4.594333965931822 2.8591424894089017 -0.09378098780790302 0.7910459103161924 -0.7035643823637561
Ni 7.2020894776619455 6.216645880300965 2.684719424093139 0.5670655439723524 -0.6982794798157329 -0.5525303264706549
Ni 5.1273312010559895 4.59282623271369 11.39443197410869 0.24075321492680476 -0.13695109543747383 0.20383525885453282
Ni 5.659019326499741 7.6403162002666605 12.297944264995175 -0.02885754766164063 0.21098241142227536 0.1844311432963082
Ni 1.7415492353984279 6.675854471162821 0.31562182977684394 0.618762715236328 -0.7898102381368785 -0.37585980095637206
Ni 2.8288235092104808 1.7507852299023245 0.398479444204516 -0.24997293375285987 -1.2893565562113343 -0.039312424446377454
Ni 0.6323893562326169 -0.0577651417740268 4.630015781648635 0.346597561657145 0.6828538892892819 0.12988724661215698
Ni 8.470047972399197 2.2396970679956745 1.3714305238772841 0.9037178214913274 0.5756448010009312 -0.14979838371378718
Ni 6.693595164418106 0.8004970958832031 4.737523479941397 1.0174282012333058 0.011846614925940888 0.09623459155471814
Ni 0.6387922568212419 7.442360759902604 2.4016646318279813 -0.0032388186522718412 -0.5833005177739761 0.8762399277860329
Ni 7.685737792005764 3.782604708990655 3.7797941859319426 -0.18151628364235836 0.5301930964260353 0.07355977566502171
Ni 7.605927243213542 3.816298483661761 12.612276847445374 -0.8749800872370028 -0.48749812866067005 0.021351469092582582
Ni 8.00131448006949 8.9339513014253 6.748414357994067 -0.1740531424960938 -0.5027105747350503 -0.06326687837944589
Ni 6.86749007169039 0.6738872302675232 0.37775217520935944 -0.8885768520848311 -0.6905144911583334 -0.6828004103435273
Ni 1.7934441487986197 6.482142351831834 9.23401278269045 0.4995722862163848 0.30351435731442566 -0.3602074391310958
Ni -0.04764166119023507 4.7911066934121935 1.3102896847963101 0.2926894987847798 -0.06262255992722762 1.096563414103576
Ni 6.293937521501215 2.126933068627478 7.060869948012829 -0.0559978555218584 -0.5524426518528551 -0.09403115614549613
Ni 3.5632159832382797 4.075068839938082 0.35941109716960834 -0.174533424566622 1.3151056401509804 0.03498268672277201
Ni 5.988319095351271 5.667524025251129 4.803434895264658 0.05846071524005416 0.3836828965452166 0.1726331222201156
Ni 5.2291889625349315 2.9344370612208217 9.159434158448576 0.26855635318200205 -0.3077546206480184 0.5443084527814949
P 0.18758638886090495 5.377831595489135 12.420873275323233 0.7800176775264889 1.297991606178513 0.037481798995541896
P 3.9806233477530775 6.064256485157988 12.657983734811381 0.2641425403850225 0.6802555324344864 0.6858196567858253
P 2.3561807445247753 8.470995948374668 1.5027631155193453 0.761462797342437 0.4085405790188448 -0.5751799455493707
P 6.254962166395331 7.8773733925333325 5.820653744489238 0.9091166239093957 -0.814878493959416 -0.2901142818584358
P 4.6699824487745865 1.045590415919101 12.598969973252519 0.9717522964627459 -0.19423964474629773 -0.36988558565080815
P 4.04656636227552 6.208294663374177 8.21035943367806 -0.4629507783386092 -0.06096522682946275 -0.2711786212961975
P 4.719150802702464 1.1453806869372496 3.7634357319323244 -0.36372316559383816 -0.03773093889187051 -0.18331657007589072
P 0.21235474401436452 5.558741524979921 3.5612098855073255 -0.08131293724787932 0.13168239083936675 0.028197802590454665
Ni 1.5565584950417952 1.2763729100624028 2.5342927906365227 -0.16823499315241996 -0.14810119851702236 -0.11377208621784922
Ni 1.7667383113181454 6.549295164265834 4.837011301481658 0.5971137695079844 -0.0027114853938921043 -0.4426321213859151
Ni 6.0556344179524935 5.5580102292274125 9.220891892355636 -0.3304492340320567 0.14301915600842466 -0.1916106917638829
Ni 8.677754022796693 2.2623943213512905 10.157056087174468 -0.26052679800930617 0.13851664015238083 0.2746393261512883
Ni 2.3061005279919184 5.182061014039977 7.12545871114174 -0.3338014383337412 0.2120298788501832 -0.8369010209770942
Ni 0.6259422167651367 9.077547090852935 9.353717771867634 -0.5729649401759228 0.026013393344626167 -1.0500742694031011
Ni 1.5105410326895374 1.1008890144883727 11.430228449776822 0.007719994352077026 0.048890812163431926 0.5562620255989452
Ni 4.1786690715433705 6.792834706536218 1.6931094687202708 -0.27423180630022453 0.5199122833253175 -0.40615896616054564
Ni 5.7082689355112315 7.751581494759347 7.962902493543315 -0.6596468550451995 0.6123915216026614 0.160001292388718
Ni 5.296251491542695 3.0419104518116153 4.7901812882932795 -0.02895216425797594 -0.09168631006240338 0.47995759730925086
Ni 0.9302623672458151 7.5310551978364035 7.040308800521947 -0.4912033454263992 -0.43701168987534417 0.009780219315215414
Ni 5.008825175779212 4.705770798934356 6.924330711179765 -0.5927927735351275 -0.8594354546341844 0.5023056259871479
Ni 8.102106897118853 7.326165990337457 8.916284640579528 0.27959152795024106 -0.5071012476035783 0.10698617364426737
Ni 4.5475220094286914 0.2145152264041811 10.442238859796 0.2701445236047283 -0.55364438547044 0.1448947757645827
Ni 8.12358532422029 7.2498042684274315 4.740668954511444 -0.22971726882761728 -0.39640291521504634 0.11185327192858156
Ni 7.179852669780131 6.080588756963998 6.912781655295714 0.7732613326392618 0.1593088943073837 0.45004126936579264
Ni 2.4682134481404643 5.183081216756439 2.398136355530696 -0.955147083805897 0.4116683260145491 0.7386244592916827
Ni 2.5877577328189503 5.050680572182011 11.42922359524282 -1.6238395939931323 -0.08524441109180157 0.49465685119263836
Ni 1.079175850478724 3.354543900180063 3.776411265950897 -0.34889098567701204 0.5343284587506475 -0.331359661661468
Ni 3.708879263126709 2.8963825970625394 2.701302683824084 -0.683261666250662 -1.338196974752805 -0.43104775898242537
Ni 1.1978353575801015 3.214099002328048 8.254612757881675 -0.8154407942207891 0.3201632787250164 0.1540497027909734
Ni 3.4531785433423963 2.8503290213397876 7.171218865729226 0.6083708304790426 -0.5975043200781839 -0.06426318085444416
Ni 4.10790492205995 6.804084021445166 6.059230406819455 -0.07237038334261084 0.7835634858962182 -0.4968263480401315
Ni 0.5800881674143654 7.267788726933552 11.20138975780037 0.5786362795290874 -0.5025974461959538 0.7961431223334418
P 0.1895933894261211 5.546679659234852 8.003680808671124 0.020437956139377704 0.21392323921815415 0.3269875007357014
P 8.387276127226448 1.5589871192075313 8.00414305981345 0.3889390027378334 0.7928130295189443 0.5304391509985703
P 1.9298082357847879 3.166817572008493 10.411820567828718 -0.7487569197399944 -0.8545878967338959 -0.22597194285257213
P 3.9344524035762194 6.237022849602328 3.9020758640938906 -0.27163473499700963 -0.23443601445952528 -0.6331884037433546
P 6.964319046328012 3.837090756723807 10.448409731979199 -0.08044647548252598 0.2439418970674315 -0.6236640091926873
P 6.30852732318088 7.616878622815913 10.150779583382572 -0.3034912173859741 -0.0774879070748343 0.4184686367658341
P 2.5125787237926116 8.509890048396942 5.825859486845981 -0.9782481885997345 0.42564972789530564 -0.5387875229632656
P 6.82969742946819 3.91923964625553 1.6976019720097517 1.1586555554486302 0.6705146509976389 -0.5336206340503454
Ni 5.465018300204801 2.7862458453977976 0.46414167727136596 -0.2225264075061329 -0.023995848693965125 -0.3321266217344796
Ni 1.4744276621953194 1.0799974296574675 7.025113197052242 -0.5546113773693996 0.22140232120401868 -0.23070174422807369
Ni 6.740208497383518 0.6176894087729454 9.30701957248156 -0.020137137069507254 0.559347092282172 -1.2777801642276443
Ni 2.7962763340525663 1.3634873880370806 9.335139248416883 -0.3716794443264373 0.7324571541387064 -0.9800150506921702
Ni 6.4191786903751655 1.993449022938224 2.6099421763135484 -0.7249518469005967 -0.30033955913086985 0.24787517068356665
Ni 4.059476892227203 6.694470913652591 10.354722620574572 0.4486796131315756 1.1280378305627734 0.3019855793747251
Ni 8.15718881546516 7.09966293059772 0.32346565384818815 -0.34577275176300454 0.011070141771232549 -0.17009287229676512
Ni 7.627188990092013 3.880977530216906 8.310164150044406 0.7840190853763982 -0.3771319828005763 -0.4216251801169449
Ni 3.288438375490396 8.404059816163636 12.538939620314242 -0.744891266137001 -0.45547606722811884 0.2580549394300459
Ni 0.3651061756965465 4.711693391695408 10.306571760860368 -0.8593140985649717 -0.11282823424734117 -0.48686409462109703
Ni 8.390472160515186 2.3384400512694907 5.73581982586127 0.9641204909491009 0.10901580247978644 0.21664655168658817
Ni 3.746076034735754 2.663180507096125 11.384058408434225 0.3606684379279143 -0.4079140011784394 0.10081681160876185
Ni 0.857251966117654 3.2311083998308248 12.610836826796918 1.486191472488634 0.04066482470921384 -0.34087017225506455
Ni 3.2193354410497093 8.348147290295962 7.874383205456412 -0.13392182169284678 -0.3187319455951285 1.1877889824794767
Ni 5.611701782809693 7.886329508415899 3.664595242558174 -0.8460052972712075 0.05444156677833205 -0.3116182173684827
Ni 3.028602674784496 8.518376690463084 3.6199717563069926 0.7339743621141811 -0.5673229113987972 -0.08564164653022024
Ni 3.4042088129522363 4.430045215211 9.240223379581192 0.09348968181972932 -0.41764408398200975 0.007559814625128915
Ni 7.396162730697875 5.964005768666039 11.332604078154063 -0.5286159817469026 0.18063516658898568 -0.15600836917924102
Ni 0.5664815522464064 9.03691954904694 0.3733318986608671 -0.004293228058715187 0.08010297610017818 -0.07491500414133549
Ni 4.67242912962557 0.3552941729332674 1.6276214826660553 -0.678832941055347 -0.2481443651845533 -0.07588790957756608
Ni 6.028946637157266 5.543438484232996 0.4592835261056312 -0.33793448666550835 0.11869214922728591 -0.30308781129996837
Ni 7.8624585705192205 8.768940283294594 11.275651487216155 0.0763872178114878 -0.11707466822852096 0.4260994138382146
Ni 0.08706662775877314 4.900358667499828 5.8085097208262955 -0.17998467748918034 -0.44712229594678476 -0.06597810666302185
Ni 7.691669413109439 8.846791681737503 2.4516392167521426 0.5822983017617068 -0.41829174486833764 0.5948434854165691
P 8.560168888467517 1.5241196599953635 3.5011524475411786 -0.19522849102212828 0.6955307134260023 1.0369472451028399
P 1.8176671920576166 3.314954617775776 1.4928265216278611 -0.5417738592850992 -0.3352978203736096 0.2745742772413078
P 4.58985590799054 1.0552868558967987 8.063870060439575 0.9096136181504721 0.39240227869608546 0.7671163960837886
P 8.484854454301825 1.485252645000961 12.384469192196534 0.010924103111671508 0.8155701207098018 -0.14539691221198184
P 6.213142883363026 7.687543460530475 1.2991035682857262 0.3147937868829869 -0.1307436810751813 0.2955097418423943
P 1.6520783599990025 3.2334106271998313 5.956003045764519 -0.00709598761483294 -0.3528468850009665 0.43474629087993516
P 6.865160759293513 4.057174664858197 6.082592146192165 0.883785858454091 -0.511131451808894 -0.8737559850219145
P 2.3524430106786243 8.333124128170368 10.370777722262039 1.0400397679852347 0.22284625273939687 0.18961654415198956
