# total energy = -381161.93398181914 ev
CRYSTAL
PRIMVEC
9.32353642426127 0.00000000000000 0.00000000000000
0.00000000000000 9.32353642426127 0.00000000000000
0.00000000000000 0.00000000000000 13.64593799441547
PRIMCOORD
 96 1
Ni 6.601082270708516 7.805272911067765 6.103746203177445 0.6609102951386553 -1.2320559227176524 1.1929381307805842
Ni 8.30511700983437 3.609075595005906 1.7957913882016352 0.560514373117396 0.3798383259881458 2.2386757204815444
Ni 4.030070548200349 7.009499773580522 -0.12484028489797047 -1.7640788732635746 -0.11194068943606528 1.4982149793120714
Ni 0.5221581179339054 2.689663044082168 3.256493953324393 -3.7926157612700617 -3.2863146409702755 -0.5847917576075219
Ni 8.613446351689804 9.002312399168074 10.139326961267017 -0.6108360041900835 1.7849284630190745 -0.9003429914818235
Ni -0.3656131482164792 0.49709831735818627 12.284918780304215 1.6894304925200647 0.8558302537814292 1.0784114257848976
Ni 2.2233184108518973 8.489312790835156 12.734497830754794 0.713565716550842 0.9607706006402615 0.877031827559709
Ni 1.8084956386162774 7.480580763196114 5.2823426646995575 0.575592350496441 -0.9065555480504388 2.0961777270839126
Ni 9.611260518448509 5.061980886811648 11.069707720166525 -1.3854492228715494 0.5797377401233822 1.0332885653043302
Ni 3.8492032696199576 3.2104664522074375 1.225865064943807 -0.23690761592846943 1.9141497939124583 1.3124208942299656
Ni 7.747411045462842 2.1382318195675705 0.29799326963345185 2.079059065125755 -1.580620635403497 0.322311949636903
Ni 8.753625718330156 8.348891012253823 5.316634630812176 -0.7492171472058646 -1.1960720484238756 0.02156332799307254
Ni 4.349410986298035 7.96232787821487 6.039446435832238 -1.8477885928784046 -0.6498062148056939 -0.7333971494544724
Ni 5.81433431625472 2.7395159920985273 10.578767598462875 -0.8909574365018655 -0.5258983257054233 1.5451921193925582
Ni 5.733489933937561 5.134089115717301 6.675361018839567 -0.5720349721624858 -0.5826328022829901 -2.574612202880418
Ni 2.568876632720295 1.6490258755955534 2.7636164008001334 -1.80346714525321 0.989344298512896 -2.466733599328868
Ni 5.547587945813717 8.306403657828808 2.580146923268673 2.325261218982273 -2.038727198275928 -1.8567092924068023
Ni 1.071339573165476 3.28984703934252 1.013988637343851 1.3904477045274055 -0.046928803341054655 0.0032069369730718966
Ni 3.735372216257001 2.513671974929971 4.187529224464551 6.129210402987282 1.6954730991697187 0.8291015795373333
Ni 5.184305681645132 6.121153245247117 4.039320428456012 2.9638923910077537 1.7768487713347334 0.6872450763784422
Ni 0.5751176682092981 0.3764732031724275 6.569673141986333 2.2250632719044323 1.2991493739320399 0.5519446291705139
Ni 5.644608663423262 1.835160952124186 13.324767177629022 -2.680042859112107 1.0666655981028792 -0.8465112903733487
Ni 7.497400422485718 4.994776837942766 5.032676080207905 0.45508988753329366 0.6910582794769453 -0.16581198553322413
Ni 8.1580941676294 1.6135218497780301 7.938756114015327 0.16523708686636057 0.09816060493283739 0.38267296722346356
P 2.2606405262267777 5.712167006667425 10.812208432920327 0.4282259732629142 0.6132160743864858 0.7544395719470683
Ni 0.5955986801613341 8.149460573116002 8.337613262876491 -0.17618047325174174 -1.786493493513349 -0.16334552627060256
P 3.022065756384252 6.7740991318156 7.361177964605071 -0.4068230821071058 0.68386150461819 -0.2138515054399543
Ni 7.0372932349676125 4.896394884049251 10.93566324034023 -0.9525590113637468 0.1342079854746979 1.134453247170814
P 4.666336628522101 8.401746138923869 12.223389967915145 -0.3423511276759652 1.9390316447558027 -1.4599826753037501
P 1.6995687652900895 7.125745622817099 0.8772766938131462 0.7429004609592174 0.6309667135016875 -0.003743783313148391
P 7.113018995915596 7.544204574167432 3.975088722925004 0.19078742453163916 -1.310342157324066 -0.4599109630710209
Ni 1.9645623109270756 5.046037639924053 13.170335853566227 -0.1747715087193571 0.5857672341469137 -1.1648655409140842
Ni 8.221400978370205 1.6466949915476594 5.466848919455522 -0.4619475338850754 0.47958607290244504 -0.6563602138741277
Ni 6.1227475699358775 3.436627469606508 1.3423001819650713 -0.19289187246915168 1.3373428542826258 0.4161459021699284
Ni 7.218589396212816 5.407268726130491 2.7124031488534235 0.9757575609673971 1.0259177267615558 0.16518977856819295
Ni 4.407235557758192 0.20893298722427517 10.34873824589792 -1.2358192464148263 1.3590144257187886 0.3419616055470304
Ni 0.9606039338181225 0.8292334441715719 0.7701408717893603 0.9566293247783783 0.606720182249497 -0.5995650592619545
Ni 7.683852499244864 7.935849035430794 12.083518277969116 0.5892603349018368 -0.9938200748960626 0.8547205656570184
Ni 0.624689977786291 5.563465927947972 1.950004541517548 -0.6519304602375482 -0.0030701542848914866 -1.2794076725287384
Ni 3.239257531967026 7.166974299856249 3.099578839220161 -0.2691888445596783 -0.8563457599652671 1.3049852638875266
Ni 1.9055070326896304 2.5864981161223746 5.073109459609914 -2.9567997458270305 -1.1361509465882111 4.006391676277074
Ni 4.6026009351164845 4.637797284239686 13.269254843144376 0.5198657463580982 0.04362519288911841 -1.2814164754286512
Ni 7.22854693286542 1.4596462084722526 3.1023768324312537 0.8554463880794493 0.11635450223304479 -0.09739827284551612
Ni 6.063804174132731 8.934110731926692 0.13921997476623885 -0.24196291896418973 -0.5845752707213416 0.675079901770818
Ni 8.189094925466392 4.477982550379874 9.073456574431518 1.2226006908420235 0.19088666911366478 -0.8976829281511571
Ni 6.587395319579281 0.6843326388038056 9.488361393785624 1.1043798248242012 -0.9256557592149992 -1.3981936670214112
Ni 0.6233874797803277 3.092579660601145 12.377820359624321 -0.7000208879868718 -0.9424000685528737 -0.3987441617537133
Ni 2.9953445016591944 9.111621537478117 7.91213275642028 0.2847944123074192 -0.49128613494819257 -1.9006039369072238
Ni 5.939297671830419 7.844888616345774 10.544393585231768 0.5886764373739087 -0.6522117389233929 -2.4778590198180677
Ni 1.1684162319921703 7.966756557905868 10.78400287123357 -1.5516036793458567 -0.22818077757843283 0.1294252193740739
Ni 4.336246153195529 4.949063539995466 10.675763142524701 -0.11771024492999083 -0.30858431563816535 -0.2805598054007813
Ni 0.08086862351125756 6.475074679079359 4.068740846908532 -0.632199300357208 -2.4087662787854645 1.43202629930014
Ni 5.625597973128637 6.0688668542847575 1.2453885497289678 -0.6398735290730141 -0.44035643797786095 0.1495235327858457
Ni 3.5470927264043057 5.35562565916535 5.426579634290485 -0.36364294717520596 -0.1980489911900589 0.6041143691955337
Ni 5.9074950898809515 6.5656155390357585 12.316919021220944 0.3403700926901944 -2.340475979049498 1.4609036444561228
Ni 1.222222359353758 5.508074799433817 8.741341959397754 -0.4691450800747791 1.278598803474198 0.3446903173321031
P 7.364223031525241 3.0865100385404287 12.212035765541042 -0.3806173702460155 0.9713278073308176 -1.4750740224192338
Ni 6.730017452701826 0.562620400298109 11.650492233673063 -0.6393906758993246 1.451163020129591 0.9723220529232868
P 0.12891280550645107 3.8695099314452115 5.117703933214225 -1.0063205213559185 0.7883994738322809 0.6664001146086329
Ni 8.21001694068029 4.757101253347099 -0.16035456660530434 -0.010457704998214247 0.4729883650802693 -0.9101579206897165
P 3.0097120709304135 0.9492665138091656 5.976797866746558 0.30898155107658404 -0.8244944197826253 0.11554717584040101
P 3.9093680486642004 4.761725727298121 3.2898442422816623 -0.11915366224473672 -1.8611357036092724 -0.31256412622151974
P 9.17397734752738 0.454147583184451 3.8306195972829076 -0.2972382944977268 1.606781610069581 -1.2340076471273844
Ni 4.741223271212844 7.846054058369719 8.477825261893512 1.9916024768739828 -0.7012452473122761 -0.7771578394801906
Ni 8.528928496113164 6.286431571315194 7.251205922871808 -0.6467872254737119 0.028844177925201935 0.06411919907741216
Ni 8.284213641692855 2.302540497871722 10.352285851418813 0.13854929316252912 -0.4822759610297823 0.7574464770941923
Ni 3.2345491461902793 5.520885338161042 1.4339011279864524 -0.9047714595668225 -0.6379287466418175 0.31025938934774305
Ni 2.4225437321935024 2.6265706746737707 7.66080192071843 -0.05245101871086451 -0.26069520526637036 -0.5701295276096568
Ni 3.1293796579492974 7.499638071171697 10.014084831959188 0.9891627786297094 -0.45993744543358206 -0.2191747174250806
Ni 2.0306941531339273 1.0750130464249572 11.150218319888024 -0.45523746885475147 -0.1467302863114247 0.4857490071800473
Ni 1.8063325782198314 4.276482286207523 3.592020050250655 2.1168175148214514 3.6878433074476615 -0.2052401096218594
Ni 2.9502092629557723 9.004922989301717 1.9141704625188432 0.859888483011203 -1.3244935091237835 -3.586693795089829
Ni 3.5030017237543407 4.753847339216239 8.001295597727564 0.41120552744551764 1.0381412654109412 -0.2751450621431132
Ni 5.655843524534112 0.5213469702852384 5.659557088999216 0.7337267648797492 2.3700007279814925 0.8690626933113031
Ni 6.032253327660436 3.5377225725317714 3.7605205904265397 -0.657038470888075 -0.063784955666445 0.28982143320836534
Ni 1.8349465107917797 3.6693709035568314 10.093667739829627 2.161703319590548 -1.9143963627056255 -0.035659143964506326
Ni 8.22113059582065 9.430383916331925 1.3046871722610134 -1.472639187725496 -0.4189964842448462 0.05818046499547399
Ni 1.9384377625182785 9.128944667722067 3.8680498656776106 -1.0246751126037064 0.8510253761936183 1.5892829390641854
Ni 5.060256032616207 1.251563527748649 8.12683794490076 -2.0330964823527116 0.475177145201472 -1.691126906385881
Ni 5.13083520158644 1.3098729230907682 2.0713438385755816 -0.5290533263946372 0.09363109249360003 -0.6094980021049503
Ni 6.080735715856633 5.809346224392226 8.639270682233233 0.9653600197831569 1.7259964645695562 2.600088492774651
Ni 3.0584461946037838 3.0106817186943373 12.071101192469174 0.8500496425439102 -0.25052263560874277 1.1056250100852119
Ni 7.527767179861683 7.170461302391898 0.7935998212009858 1.3676898420055994 -0.2637154801499329 0.0680622428855602
Ni 5.987519001013252 3.5332845693045813 8.47175284277194 1.018166622061227 -0.32826302501401533 -1.5583651664394065
Ni 0.2928326923514143 7.063753430679306 12.81492731571143 0.10924283088892799 -0.9369254185915477 0.8116887833775247
Ni 7.839965789236621 3.5873797262881078 6.864725768304962 0.20404608931375826 0.9723881302745317 -0.755288293100609
Ni 1.491905643695107 0.8742940945854609 8.916842610546274 -2.182891780742705 1.1989910218428834 2.020161005237966
Ni 4.394266518915709 9.333325904577613 3.915660503239896 -2.5722123351896733 1.365145735427507 1.5509416202818256
P 0.3993736727661776 2.809181454521987 8.829344952802806 -0.17589302391830997 0.6008917484931781 -1.2224363973500172
Ni 0.16880075804125347 8.002521642736756 2.5240341530532895 0.7919905336176489 0.506924612816398 -1.3122170057492757
P 4.079746349029069 3.012248072774522 9.082981499004832 -1.0433811736536416 -0.9092942871378406 1.72807494436514
Ni 8.2340250463736 6.815859250417671 10.108255344554967 0.1300314854995051 -1.401539957785825 -1.2993861725331943
P 5.752761683245549 2.8835273321136174 5.931533963243693 1.236786238313786 0.24201485524804772 0.1316862474941087
P 7.824292924898581 8.864911446312814 7.7708289713152245 0.2608641267440669 -1.5665582437731602 -0.31881242112407676
P 3.140940842826852 1.5005392382085068 0.571243738921698 -1.2512396947349547 -2.218274274007057 -1.5542488302781878
Ni 1.4452972862734161 5.3597746327706 6.462060887263157 -1.053470953789476 -0.8292044236637849 -0.8541837193169419
