# total energy = -340862.2746932441 ev
CRYSTAL
PRIMVEC
9.29480391239398 0.00000000000000 0.00000000000000

0.00000000000000 9.29480391239398 0.00000000000000

0.00000000000000 0.00000000000000 13.60388505896892

PRIMCOORD
 96 1
Ni 8.691087877381358 6.1057939175350615 5.981423863321706 -0.4680693305120971 -0.12173607825993228 1.3005010028639281
Ni 0.6180328950697767 3.383987171548266 1.1939984367798966 -0.5491351847461768 0.542633379071917 1.3575995476491327
Ni 1.661139483943032 0.7985891098973273 10.279707441665822 1.212958282656253 0.25566715592415973 1.023064830693793
Ni 7.985993341817117 2.1082288504674467 -0.0021842789366798487 0.09130372991200404 -0.08248381762752892 2.0295442462250786
Ni 8.000744195742696 3.8494895447686925 10.974308143530015 1.2258014571675082 -1.198347988942246 0.287537265159879
Ni 1.5008041151867453 4.961733674130058 12.960421859231078 1.1287636529852043 -0.34349861101684714 -0.12162397816210022
Ni 0.26438976989772184 8.268350897299928 11.157662094357313 -0.4361012622459328 -1.0312633073441853 -0.46109084231173497
Ni 3.265385472688543 0.13643006238502337 6.007244828794458 2.4518528255622933 1.747678063308048 1.3452099157355284
Ni 8.198342433678343 8.654838141836459 6.339695800878726 0.6182734343047351 0.3043579362616436 -0.5040336644218482
Ni 5.2895335262997945 8.828827577647992 8.145516344705038 -1.0779676533792597 -0.7871512032474766 0.4151889375732979
Ni 7.925921023656429 2.853811552194145 3.902655823567879 -0.9435516656588137 -0.9824077192940628 -0.628856352026904
Ni 2.91762967636114 0.9144274635320505 8.221005024756694 1.0375877069003163 1.3822579696277615 -0.1806531643111147
Ni 6.830862986864941 0.23713461616995027 4.134492401465882 -0.4361745386860294 1.1501187216222128 0.21946422364104137
Ni 5.647941167995008 9.191548008392648 10.453674569947788 -0.9349006748520351 -1.0964068339210535 0.42927112669797685
Ni 3.8414960133408433 1.5359198846453685 11.6128611773594 -0.7634073226633175 -2.5742676750568054 3.3320352829358426
Ni 0.24441430665168498 3.6615950821942964 6.122170432677769 0.069659412169351 1.189740706889209 -0.6626547886335877
Ni 8.411871965645773 7.785811148373399 4.103952464009503 0.7792473750193676 -0.7221159201136983 0.10203834272068878
Ni 7.678019306549245 4.426873473567056 13.623202729130037 -0.36340074925741284 0.8825350167661252 -0.25105536818376123
Ni 6.608317495031215 1.6288679245040856 9.331979483893589 -0.6537461732900482 1.2661032421103486 -1.4678877890834396
Ni 8.998485634802107 1.777556903866075 9.31851131291806 -0.1755919477381234 0.17314837129363728 -0.06089092194810158
Ni 2.3114876240304887 2.295751520882408 13.424082931781903 0.11445728521033192 0.2467837373916008 -0.45332353966149025
Ni 1.7126884668486766 5.54549383846273 9.001350293390553 0.42182906859763486 -0.6830775752643139 -0.08953841048146516
Ni 2.958127137327583 3.147322872460001 1.981446794619758 -1.7024235623456228 0.4545720673566107 -0.5025326543962894
Ni 6.808267318375287 6.919907209049592 7.274391513982367 0.4512628004777196 -0.641902643687901 0.1726395499780188
P 8.111017750231078 1.59884570762972 5.640565741032218 0.3801419732714937 -0.8062262176010567 -0.6494076938156944
P 0.6739671664959553 8.672433205781715 7.518282523169648 0.9539584628144343 0.3668719956354649 0.005354065223061746
P 2.950737768158815 1.6577375856842032 4.296760159970832 0.9392928903824597 0.8269966173791886 0.42601996675053083
P 8.320541221680598 6.471330673887438 12.926779316204216 -1.481638563010629 0.5391593044803876 -0.46883937590890223
P 6.342755650350874 7.016944962662093 9.440429397839944 -1.6382097466718755 0.8350189734630328 -0.09416639617177977
P 6.746745010792802 6.76683108220627 4.898528077545732 -0.5885501962086896 -0.687844400525338 -0.40333743755135054
P 1.6211160579798687 2.611784151206032 8.78778358220718 0.17221454662545824 -0.38097963868144064 -0.6778947455117937
P 0.20263695117638747 3.3401342863429235 12.679392531237848 -0.7361171194887968 -1.5078962111555771 -0.012335124526585207
Ni 4.694312868652543 8.74163302145653 12.782210723449163 -0.27225822751362144 -2.5732430904470327 0.19171610699349562
Ni 8.074061609583252 5.971995214158438 9.959676186667476 0.7779561670117698 0.7192877066362837 1.6404010978962393
Ni 4.849833528944148 4.420311341953031 2.013592874204895 0.7547509325399001 1.0339038302908259 0.21773361410317987
Ni 8.430591700873318 5.024882572410069 4.059236091513874 0.8318210353510256 0.09719798390925197 -0.9154772760201009
Ni 2.3861434896450104 -0.05027745372037719 12.6707399982074 -1.8117761793395377 -0.5317673828916907 0.5301684138356869
Ni 4.212628241692714 9.288083842589911 3.577604444936764 0.07125246768808374 -1.3716899643039282 1.2261498416458625
Ni 1.02928800378746 7.14972123760027 13.339766046904469 -0.16017792717589832 1.780938625133391 0.5327762837721792
Ni 5.888918256132717 4.294004250589021 4.2632812054941205 0.7123385290119604 0.9256279913008574 -1.6565206291659211
Ni 5.945913994174083 3.862297784661224 8.768669747290632 -0.5354754278708972 1.1969336250932225 -0.14043699710354524
Ni 7.167595145665101 8.257001941633177 2.1941165572184955 -1.2238384199038665 -1.4015443286611993 -0.547247995025793
Ni 1.0657979938439641 3.46964808508206 10.740784558708574 1.247515194695516 0.6039091951632632 -0.3383623182315463
Ni 8.975648301408821 0.7944501336824187 2.893016105926153 -1.7574683099255926 -1.1558947048740416 -0.5117492878985509
Ni 0.726393578897866 1.5509216982785656 6.940797281007838 -0.34337854049921507 -0.902590906975736 0.69262330997122
Ni 6.186008075933134 0.5667023400578002 6.384439128305915 0.24939160732809304 0.9381492636963198 0.40943223759517866
Ni 5.070036730173435 7.812208391693274 5.872307511929566 -0.5383974866136986 -0.8313656929811617 -1.1659009241571339
Ni 4.2937811752933595 6.780382906417672 10.281244802245086 0.9789375013572754 -0.6093108257948087 -1.0323575688496285
Ni 3.579986703198343 3.934834434966967 11.701993700181916 0.36712987728254187 0.4753841190059555 -1.0983120213635664
Ni 8.661223672174753 6.145612857810535 1.4249250533676832 0.8085245267169301 0.828904890145495 0.3172800436399504
Ni 6.840529583010247 5.955050786492194 2.692753047687757 -1.4024912659555009 -0.16935573702042445 0.16888059715621884
Ni 4.759608866653291 1.8319222123794385 2.4790906000233286 1.2737149930193354 0.5629654057610498 -0.6115625979434629
Ni 7.643554173369633 2.594663122264056 7.470423577446395 -0.366642139012846 -2.6597278017038386 -1.1603013185821696
Ni 6.191705790776473 1.089778588127513 12.789148365144218 1.25445305946593 -2.426390676735447 -2.9690271411311575
Ni 3.178943795619937 3.964931010273219 4.214198134085928 0.7438707952922867 -0.05531239941905958 0.3724813714024424
Ni 2.565040581961083 6.907740310632086 6.627336522947105 -0.2701722915188702 -0.7204776131793269 1.2312802208938924
P 3.5584692319710496 8.640347542422486 10.884182935641807 -2.077028150738655 0.9766265938359117 -0.3559898015053224
P 0.7788172028585811 6.075743816248738 10.937591808825024 0.7173868900691451 -0.08983485867596142 -0.019298700328611928
P 6.069878794933652 3.0734105911643494 11.263799461071981 -0.30477856873882997 -0.5055963809232776 1.5122999966502277
P 3.5863350543206933 4.662980084416169 9.630312948467315 1.3025931095062664 0.632813279792123 -0.23718375240799153
P 2.6352628260743436 4.5909546483296495 6.303986093445404 -0.9956931235490593 4.829136460358444 -0.644610015316735
P 1.3135231096754165 5.463671678975101 1.955558906558308 0.015947781578508017 -0.6767585750248215 0.8974240180628158
P 6.984403853907555 3.750258217415526 2.0635728941977245 -0.26661054230954084 0.7777437938906476 0.11554589028882035
P 4.961650020894185 1.8637383264230774 7.805392511930434 -0.44853691690612424 -0.4451528309252398 -0.849413294511492
Ni 0.8986541811680263 2.2779333816414917 3.979761799513076 1.148627481788667 1.6267703944866823 1.2588558165193158
Ni 6.24349643858575 5.2423716908754825 11.048286417933966 -2.3137588747696283 0.7259262949987239 0.7787305832839492
Ni 4.541524880732784 2.483878353556451 9.989046837782432 -1.0885706257060865 1.5052027234838143 -3.927404301838578
Ni 2.21969213986602 8.157659076632182 8.92278782166077 0.2810863673282126 -1.599814948943761 0.6649826654358161
Ni 3.0120462952496245 6.391097925881392 1.1182690213050068 0.9103127011000257 -4.570873004462018 -0.9411973064940242
Ni 4.652839453267583 6.284746778675049 7.939391053592754 -1.1163565375701032 0.559572578029417 2.208928571126099
Ni 6.717419904217376 7.807365798816636 12.079352517723922 0.9316338311753053 -1.423037979758601 -0.7251480220718027
Ni 5.370017234013458 2.4984804906182556 5.420399719018875 -1.181239097176101 -0.3893611778769165 0.6281492986575504
Ni -0.034330358521817116 1.1082008896275106 12.008448964478498 0.838778440505465 0.5774957381667409 -0.07550378676526996
Ni 1.140853536029878 7.863487825283329 2.9722719700332823 0.0998657605494022 -0.1716473612680786 -0.0638137520218514
Ni 3.3885044462854004 6.576148178436113 12.359918964478657 -1.0689816478305654 0.2599590984312942 0.11097035510299598
Ni 1.221987880022552 9.310326308528103 5.179365932576851 -2.319120396191858 -0.9861314480025533 -1.0193447015297283
Ni 8.157724140260083 8.727532803809963 0.073211453075117 1.0651028816014496 0.5748989239738421 -0.20959838659055519
Ni -0.09022559177125515 6.810005446720645 8.290520863767028 1.3793155991699857 -0.4122319118275029 -2.064971476684437
Ni 5.34418697373672 5.810776839023494 13.380428025901459 0.9935619361386696 0.059652164444994035 0.25154104957092804
Ni 8.585768453417446 4.239053369424547 8.551729022260387 1.413579148338546 0.9050437393916025 0.1788071122413114
Ni 2.8873193205632126 2.68651437525244 6.3566197799762 0.6943284655877848 -3.590900376972009 0.2966690522578181
Ni 4.634287024511783 6.794157805924733 3.210380681660952 -0.44177928646731657 0.2959254892235742 0.6167004333906605
Ni 2.0476453180875347 0.8988279940025621 2.4004872311560077 0.40701102974819586 1.9117715234882688 -0.11061734263895143
Ni 3.0030861042072443 8.325448878185139 1.706838317219969 1.573867890060696 3.1555131100739655 -0.8974471579912673
Ni 7.966976172862024 8.58821298686573 8.905402820285596 -0.892993750205604 1.0351191907551658 0.016850495898435496
Ni 4.935457263261998 5.107996709651735 6.127693405206173 -0.4969821568917054 -0.675675883483604 -0.7702420861969638
Ni 1.2645952614937879 6.275238194197502 4.574224930635479 0.6243875176222731 -1.3771417314471186 0.17722639801775283
Ni 5.5843275295157015 2.752228639432553 13.852020354693432 -1.2860053803509142 3.0221900983073824 1.3930946552319492
P 2.9146181598697174 7.818277898696049 4.759726910663912 0.2820713569493013 -1.295672728237349 -2.1935194356598804
P 7.712893411104235 0.5745136933275268 10.606377975151275 1.942065803596436 -1.6654464709006414 3.0305112165785677
P 0.7023702285159821 9.071459140895186 1.252405126066317 -0.15705917904125855 -0.7833338863839154 -1.9359602049193305
P 6.984766351263004 4.446597047625076 6.979636548943202 -0.0842751051999968 2.632495705460763 -1.3145248279468458
P 4.111166161382938 0.9324454410586628 0.4734940456874788 -1.3252198457668467 1.7392643853230563 1.2258153411245791
P 3.694861185659731 4.37231297416999 0.08927566280389906 -0.16448118253694252 0.07704773421362214 2.1932636108953325
P 5.0182089031482136 7.587627337786643 1.085298492606323 1.2416199122570037 -0.7564961973657811 0.7768675619332814
P 6.952717867119718 0.9349364485268764 1.7318153144908033 -0.32287296434669555 1.2643692901383774 -0.11645760346981233
