# total energy = -381165.066953752 ev
CRYSTAL
PRIMVEC
9.24970715123037 0.00000000000000 0.00000000000000
0.00000000000000 9.24970715123037 0.00000000000000
0.00000000000000 0.00000000000000 13.53788139056048
PRIMCOORD
 96 1
Ni 6.36878399085856 8.81699643300119 10.685571362702044 -0.5458256607569696 -0.47344499300171367 -0.0900433751423417
Ni 4.472122325928122 8.91849346763785 1.6065806795168092 0.8598913112246803 0.015317861303992975 -0.9474911099225359
Ni 1.974368453227401 0.372956509968221 9.530830544177638 -0.9160177219046031 -0.9911736384121511 -1.465239038606683
Ni 0.3410607454063333 7.638842756181668 8.375087982387841 1.5433432391092776 0.7305982465530966 0.5946511669001049
Ni 9.053844429803004 8.008257553349162 4.244206771152065 0.8766505329608901 -0.4622203279304878 1.0330653935499305
Ni 5.328312202361893 5.761235487619727 7.499349775233109 1.5117919466655576 -1.8659148701654704 0.2685496683137827
Ni 8.175982489926811 6.73067877625538 6.870555620043402 -0.40992383251961656 1.1573041836270583 -3.4004500240648143
Ni 2.5653969798088867 1.1048959975775328 11.50297536784825 -0.9403658117316643 0.6758304067835974 0.2306966020217511
Ni 1.2779487653727815 1.4832367619759004 5.380590621213888 -0.6363793998768266 -0.9527361603715591 1.155210020102191
Ni 7.85718208932651 6.757854415347926 10.026412269454811 -0.7708370394684854 0.4182356948194217 0.5861847813003065
Ni 0.8246770497406476 9.161261276903662 2.002266494434694 0.5922178748682639 0.16165476883174093 0.954143325131731
Ni 9.133946892206492 0.8660620886881863 11.985478932433473 2.071910884116748 0.131350975641877 0.15539927484033236
Ni 4.723843851545734 0.7710102498717057 8.960316942696002 0.49104419414071565 -0.46730776975572424 -0.28667183183579015
Ni 5.3585772435840875 6.624131401610372 9.960414685217499 0.6478030683327359 -0.15882295580990066 -0.5111419933318552
Ni 6.285897366655598 2.7930137690496517 7.52148432402428 0.964472732082197 0.6582471464841955 0.363864833378025
Ni 9.026206305361708 3.445710092033453 11.840067988962309 -0.45118978114793906 -0.5937785344871644 2.553895024937724
Ni 1.7393241492857117 3.716920750247387 5.475166100121156 -0.5346724723536276 2.3036685804131616 -0.7783006948353821
Ni 3.4955105143868455 8.164457355035964 5.877173164785755 -0.4968309760258218 -1.3024799809671699 -0.9105088762712319
Ni 2.3541521719138685 0.11261888230339794 3.8411165658006934 -0.8208025727533347 -1.3586285031342795 0.2659515685693033
Ni 1.9910549246102984 4.395876991333209 11.599919696711815 -0.36823365186968193 -1.237362165421914 0.5475130757617216
Ni 4.136209967424073 3.931976437416105 1.4038243277127473 -0.09838249113565636 -1.0698661073180478 0.23114500241307934
Ni 5.206234569705861 0.805198091821998 6.677059149892011 0.7652379481141531 -0.779590103070767 1.2176757427365803
Ni 3.889224291777661 1.4550899036509797 13.285345803454211 0.5931650692728816 1.5534451034299699 0.7548905434415579
Ni 1.017245774282446 5.6845739162109385 6.962112919564728 1.1911797533285808 -0.980080356712467 0.6238180182720482
P 6.698896783089285 5.898195898798531 2.5626803408703296 0.7653227945184755 0.9621150304832979 -0.6250621750917945
Ni 0.8250969864373126 2.3719486081337657 10.102413411785585 -1.0973925948730907 -2.448399062685738 0.14142687182064032
P 6.753220312153452 3.2792246161904535 11.704865947079451 -0.6522935000039217 0.6489451523569792 1.2920906673130457
Ni 5.263592002657828 3.9621212324476245 10.19222436663003 1.0331420124241368 0.34317413779789285 -1.6502198837588744
P 3.4953532693682705 5.922078642207977 6.415561608972523 -0.8058462085538186 -0.11133802285505986 -0.688786195613317
P 7.730118864610954 5.416027173605805 8.254370981627833 -1.29184332718893 -1.553805314982866 0.9246309174949108
P 7.052799821659707 0.9250169460347348 8.277899461260136 0.5566672314571638 -0.39806436207786927 -0.047783952252498346
Ni 7.672039954514937 4.478439875792047 6.246391868165379 -0.17174712007073648 -0.6687925261002095 -0.004542110844727661
Ni 6.356250637907437 5.995123578189542 4.67186882308252 -0.1637828709183373 -2.5817567843449987 -1.5141673888762697
Ni 8.664524263225312 3.025329409433717 8.100404984175492 0.08641040637544473 1.2078788112508165 1.0292280220817114
Ni 4.587355175422655 3.764196002596605 12.314761100977842 -0.4206167934570885 0.16980825117681078 1.3269810514323275
Ni 0.597354401181687 6.022104973435614 12.530784307496145 -1.4026445037039132 0.9640916945936945 0.3052843047306549
Ni 3.527190760776216 2.559477167344887 6.147632746793319 0.5970782882843588 -1.258282203404033 -2.22189952946447
Ni 7.200332647910934 8.344826641048435 2.578168050229267 0.5290736381096114 -1.1831735951946525 -1.5111615121704103
Ni 8.591016841894998 8.512884567077185 0.5047500348307911 -0.657844511729138 -0.2134866659013678 -0.541611622675622
Ni 6.949073607642073 4.456434822898525 0.8233053181962553 -3.429417100721126 -0.31337248105542803 0.845820177843595
Ni 4.665598446724168 8.311684940957015 12.791700041846905 0.05365300943876566 0.2912031440472404 -0.3364077656083368
Ni 3.300434194284125 5.04481793328516 9.17784415156844 -0.2523704874507589 1.7425831652836439 -2.2606499107597906
Ni 5.862612276065712 2.193429263516293 0.26036075193226055 0.8461600776815168 2.358249758093151 0.21879033750246832
Ni 2.6463596649610492 6.874058484074833 13.134059446112527 1.5995169580873678 -1.0479453959855565 1.9937179805550889
Ni 4.844931765555441 1.4969540774198233 11.107858409909326 1.3654900061408033 0.780019734409018 0.5795449073862857
Ni 8.985230103462465 4.599472291559903 0.4351857635839191 2.196636384022307 0.02957000034763295 0.7403072463107443
Ni 3.7662864363729547 5.2496804433674304 3.6213019043933388 -0.602155188586634 -1.13748457779797 0.8849690801289145
Ni 4.45561159897775 7.26248142907595 3.0928781695307364 2.4059740607523077 1.1980535976302786 0.9979541516690942
Ni 8.465812808281417 0.8896617910641977 3.7602278783043306 -1.1336099253339122 1.1591774893903712 -0.1387953477350642
Ni 8.176176733773287 4.408854330219133 10.048357199252996 -0.6102186823210588 0.06224049399746056 -0.327732606431842
Ni 5.269132577135852 4.031725277434489 5.657994883218281 -0.775460911393742 0.9386668267626865 -0.31346786898271173
Ni 7.02912057180371 0.6319316557956267 12.746334853988024 -0.7365914880220541 -1.3713791179317285 -0.6212772541280654
Ni 2.2461155944458846 6.987940876351016 2.753375074778993 0.6813587928009943 2.444994407879564 1.5119032754324413
Ni 2.5572294885499627 0.5456189401291248 7.312080207817288 1.2017199907382723 -0.08648393992585751 -0.5768208235869035
Ni 1.0487040277044162 4.729874660493433 3.35038168697842 2.9787058018715027 0.37234073205952006 -1.1348782505233743
Ni 6.103335900090051 7.599124514431024 5.874898661840603 -4.837923462522455 -0.5395426559617353 2.0936192223281167
P 1.359688425910844 6.170377776244841 1.288180791228525 -1.4035711292832407 -2.847331172080542 -4.305988700814964
Ni 1.524841943949444 8.009302770237337 11.574279508977119 -0.6779135145648713 1.4381136431448005 -1.1975242074893697
P 9.027177524594082 3.3021268906605497 4.5543864448516675 -1.1079338607240468 -0.1266527988352593 1.0307639991102635
Ni 1.5996535739632327 3.5962953215864304 1.5314591843193581 1.0912872533063014 -0.25586153132315287 -3.096693725942912
P 4.654471049233245 5.467945778856472 0.16002455552096326 -0.9792771440848812 0.4585014843180039 -2.0164570740238177
P 1.61652503948563 2.1228077507621785 13.146379130832528 -0.9221274343467668 0.4076990569541559 0.5380791840423313
P 1.1573140870048497 4.202641362918513 9.363082483332553 0.4748524148722016 1.157285414573981 -1.0195799574689859
Ni 8.529672785236809 2.1112456170434304 0.5225917946148658 0.6837620029258482 -0.8830201839326599 -0.5977123223239319
Ni 6.176075595741439 2.04677515942769 4.792558999692301 0.3128358918256677 0.08161889852407234 -0.45241645446618856
Ni 3.853538922268116 8.558485622463929 10.51442588448504 0.9202633845548345 -0.6051919185304286 1.2452629083262294
Ni 4.416633333785106 7.7391558283255275 7.9445973700644315 -1.8238583073150523 1.0230661162453734 1.0790264336610773
Ni 2.468608046022501 9.161002285108362 0.04859426056385264 -2.0706361311693824 -1.392606659851937 0.8315364142310712
Ni 4.208228185931413 2.851629162150218 8.130296337235897 -0.4259672591357245 0.949390640938094 1.0977072979000322
Ni 6.690544297690861 8.031418819614558 8.220729797359763 0.5106241731551722 0.5062381282723346 0.8421874661870141
Ni 1.7704771623775069 6.551151213577632 4.878213136222183 0.3659975634503116 0.0676017583093739 1.7238801895575018
Ni 3.064631414370486 3.025782645075492 10.060283771426558 0.41467471694104063 -1.9593227909046704 0.921814016871406
Ni 8.581831882868826 9.029887688737757 9.95263013182734 0.44835179747851167 0.7580393734831848 -0.1912571650792061
Ni 5.172103150968116 1.8589043610584934 2.5819585801476213 0.36276697232815586 -0.22653398600362923 0.0010338405811530582
Ni 2.9598692331716516 1.2776805238705065 2.0289759482957 -1.0991214046387392 0.3020583415941895 -1.5135690931706385
Ni 8.346436090062086 3.2816572891248783 2.414806200431724 -1.0629788932799114 0.7695347757172941 1.4628605110721773
Ni 0.29745300187270246 0.9154490491397964 7.641105234507753 -0.8952349808312968 -1.3561018800576838 0.404927921966922
Ni 3.642608604410248 5.875968852937611 11.257478895024812 0.7528647712607808 0.9237405444701575 1.1183401436590354
Ni 1.0612928788973892 2.299375407207927 3.1943715042846064 0.08720796257607562 -2.167547951296783 0.17118379136809872
Ni 3.2389421423143343 2.9529874511822527 3.440476607826999 0.7526955926727682 0.9328224521667675 1.9686607804761451
Ni 8.06335805779923 2.0692426976699614 6.131752849858641 0.7355285939751783 -0.2784209046809076 -1.4432782180648756
Ni 0.8775271004836971 6.166437401073491 10.226014471180399 0.8746059917270357 -0.4506434217261658 -0.9960070552450523
Ni 7.495944033124914 1.9722132715022263 10.237047521660177 -0.17870658210770513 -0.5655185112002068 -0.43479642739158025
Ni 5.903912217709081 4.078214304690833 3.128401669168219 -0.4067870866628478 -1.1001351906152343 0.7524917041920782
Ni 7.568221243427554 8.940600267308096 6.058770811884507 3.7532269750597944 3.5827839185124617 0.35804616981371884
Ni 4.299717037621124 0.7014358039471613 4.719928450583217 -0.31025707535489794 0.5466880087572649 -2.4098957644042174
Ni 1.8044883349245768 2.844340393053919 7.650161622606974 -0.31523061731008933 0.49595448695813943 1.167306289145093
Ni 8.800587452827541 6.673709830996364 2.2324371277712567 0.015720753169366473 -0.1978337898554593 -0.4281264715705724
P 8.184140731478761 7.714440611288332 12.098019192227584 -0.08386578557672009 0.4658710373091977 -1.094828176580024
Ni 8.633583993393943 5.554809777058684 4.319071124495611 -2.0516037971282794 0.7393099153944815 1.499569436457437
P 2.606918914419655 7.357836658281211 9.383809226722128 -0.8399436644581599 -0.5027915644846308 -0.4077023993882656
Ni 6.006898455168715 6.884843642407682 0.6747994227712577 1.1034058909467062 1.209461325246588 0.7916501195590947
P 6.906765447938429 0.9209026763722555 1.6216623267395442 0.9295491807321346 0.6201601098044868 -0.5989050570804524
P 6.074310319602505 8.805933783459091 4.1630748163622595 -1.3660746749996797 1.341522439581612 1.6432848472019375
P 0.828909715652407 8.211112877017856 6.335078983612362 0.19541181067752797 0.34509989406569597 -0.827815256625742
Ni 7.167949423791464 5.680087808328065 12.363551455329564 0.26105670237084716 -0.07909947453632829 -1.1348707943242067
