# total energy = -340871.08485320106 ev
CRYSTAL
PRIMVEC
9.25187000162061 0.00000000000000 0.00000000000000

0.00000000000000 9.25187000162061 0.00000000000000

0.00000000000000 0.00000000000000 13.54104694072455

PRIMCOORD
 96 1
Ni 1.3804899849962387 3.265410410988945 7.718816405533013 -0.7144923421301695 0.12447301757512111 -0.2545842072726261
Ni 6.536751270469851 7.9239858684936095 3.0399923059542338 -2.0477427715109764 -0.008676701838391507 0.6271792214347973
Ni 2.332461120067064 2.5834550937619607 5.661159871078026 0.7491636682601098 -0.8939761687235313 -0.4059602198861782
Ni 1.6818141299801708 6.3598092620318365 3.2949830873691424 -0.7740529753026217 1.0007486836950958 -0.6677190905303726
Ni 7.554790007227258 5.687984742150715 12.793486377113084 0.5602945437971061 0.5009285431339631 0.02579947756160718
Ni 0.8134863735072834 4.785603628791145 0.12424613406100037 -2.9016729800562158 0.12833558585432092 -1.7264746897575558
Ni 7.594027186719317 3.6426091395650424 0.6135516184355351 1.0857375271326655 -0.3835561411593652 -0.4000628805651368
Ni 0.9070940157960836 1.02582881106354 7.041357496991042 0.25070569815382626 0.02903161134565968 1.0816358462594662
Ni 5.132900314424933 0.36078128575396634 2.4326079838755494 -1.1506681663677796 1.2074262970944303 -1.6168395085262155
Ni 2.6242465873673573 8.947288919122975 6.136883610700299 0.12659134946970457 0.31391935469783355 0.5408762871714944
Ni 3.843208178882848 1.5435171813719908 0.17402119316670075 -0.7115746542627421 -0.5098343302640252 0.5579988057843938
Ni 3.6038715610379852 3.2976624288407055 8.43496200731857 0.8787207852263577 -0.60405883336725 -0.683033866510572
Ni 5.376853615261199 5.101860291506788 3.418951665338475 -1.3511679330911763 0.29248741007630275 -1.1025376294091398
Ni 2.0331723864220264 8.001877359685226 11.157118356395571 -0.5717428948433637 -0.31595258307777846 0.17409453725699048
Ni 3.048685362745259 4.849904123360777 4.321503013100934 0.05433872265188061 -0.9132355311737756 0.17856388588225375
Ni 8.53455375894372 8.950323532391874 13.484146778561731 0.14415301250255175 -0.6705326487197678 -0.12447918822270819
Ni 0.15733822168354109 6.699537918232825 1.2298658451701339 -0.7632219461253889 0.8414608724336347 0.01849497348039395
Ni 2.137246668927607 2.7717213907400082 11.882904406431711 -0.8449439458862287 -0.6407636449874514 -0.06233896724853779
Ni 9.074622402110291 6.371771929582705 10.413578893549408 0.18627436715263404 -0.4226723904345366 0.40274351272109354
Ni 4.098235967776645 5.054139147479426 10.27451311456731 0.29054057076257706 -0.6603392531265337 -2.3873096515735854
Ni 1.5805246602609875 6.0208300072783505 7.5489437507497685 0.14560491445772986 -0.8334889099717516 0.2098542113551031
Ni 7.511509760666576 8.294773051352188 5.409864286430184 -0.4615256158563084 0.6925127525352848 1.3253052063918014
Ni 6.315057968185318 2.9029961702290015 9.40381040313672 -1.1981908945390911 -0.4584840008165072 0.31334162781749264
Ni 8.712143398262292 4.545101275361279 6.911228098973663 1.8828083034866994 0.0803099499046617 -1.0132391028526226
P 6.791936341148927 4.088142177909671 11.437323258364525 0.742483942247089 0.5079360848000478 -0.9014385385388476
P 6.016740680861116 1.011488412994054 11.276143660372307 0.9509983517448461 -0.1855439167445127 -0.06470258238470791
P 2.3729195463624593 6.372327041766039 9.762201005754457 0.09581627307037692 0.5117426030303316 -2.685323647895072
P 2.9666397820483534 9.09009152828589 1.8577643379839606 0.5312359358682528 -1.08593447363482 -1.3776631511682274
P 5.500911936366838 6.731012779027917 4.729332831953454 0.49341243726257605 0.5587994473088183 1.581921870713424
P 5.52720575011747 2.1703035994452033 1.3701639731992363 1.508919510213769 2.011902621883916 0.7499211152514246
P 4.562864865227997 1.6397643820925485 4.409425381445412 0.09966135784807997 0.030827526903817872 -0.48303443646236166
P 6.8896268335461555 3.8279796013200262 7.439274862623144 -2.587564135055395 -0.5274597566552722 -0.28536828253301816
Ni 2.692451370959778 0.7131822279135195 3.815000153286683 -0.9899713905739336 1.278169172135947 0.6535543689942164
Ni 4.450177092011003 6.333395173974815 12.112844825386658 -0.07525258998641234 -0.251460831152296 0.2981016709392866
Ni 0.28481880939943977 6.395105145022217 5.3672779300986715 2.3680472037995477 1.4309343517875421 0.8369735260862424
Ni 4.1790232941913255 8.174989094058228 3.879266415938342 -1.354784446797841 -1.4492028110794268 -0.15402939107599925
Ni 8.313757888022245 8.543463309486246 10.918430294618238 -0.3379316584520309 0.8709426839428356 0.8258900145785713
Ni 1.925434363506435 1.8313706040403284 1.6385616390286564 -1.3869705446120821 -0.5485410028056037 -0.02368345965986889
Ni 6.523761645379814 6.962790619309702 11.14115333000286 -0.46363700577235634 0.14112913807456337 -0.5695505151777353
Ni 8.342975292605107 3.8782727651301725 9.145921010937831 1.2400088590161418 -0.40980941842893936 0.8775892427250758
Ni 7.647900824111972 7.678089675015672 8.872635582334148 1.2589573750941865 0.2717280660417643 -0.7957564284179843
Ni 4.153303096363473 8.667456867503828 10.529111616705995 2.5362166338213545 0.4675476536806722 0.010203937116195329
Ni 2.413692536228411 6.41083332355004 0.4272781741956598 1.2045237787356544 0.8399554915327018 0.45468699566792015
Ni 8.974119341317499 4.178477433877712 11.679450240117617 -0.012089841284998532 -1.2626739047138256 -0.8071960377134937
Ni 1.0685539454408866 8.001868107815502 8.778863256764291 -1.1484865853354285 0.49044075622876177 0.24451705284461114
Ni 4.131246638945631 8.181049068726303 13.194585460742667 -0.955205190737342 2.425466879369597 0.6587618813370849
Ni 6.088599952993825 7.261848056211683 7.0047025143384625 0.15518561616762952 -1.1379489190288983 -0.07697008689815131
Ni 5.228092801997154 4.708850117575367 0.23352921922020722 -1.0126608617516497 2.055119523591022 1.5367725278702953
Ni 1.0306767907979986 4.073663001794352 2.2818829986694724 -0.01989005405570768 -0.15829125167614677 0.8000686826400931
Ni 4.984315286685613 -0.26886118450250446 5.857382776017208 0.43514326920803764 0.5912606531613173 0.6763330574516287
Ni 0.3150437425950555 4.268849697324642 4.5253633364958326 0.18096143958015287 -0.003628597891522783 0.041690437760250776
Ni 2.259436112349351 0.8460159474507114 9.506396984990964 0.7615525288427658 0.4280974181048498 -1.205256543136621
Ni 0.7059472657907205 8.94504071478047 2.463780308530724 1.0572324777144373 0.6078573811777338 -0.5845431319318255
Ni 8.51657737607339 2.1827658679610726 2.7892120504499207 2.041870886111232 -2.4388600128470515 -0.30471891914548815
Ni 6.3121066217439195 0.3378533022082885 0.009208385934554569 -0.9417251539730361 0.39220276109076974 -0.2619532460431876
Ni 5.199208464724293 4.585874265227231 5.804775719589528 0.2964551364747991 -0.22911537357756023 0.8985586458878911
P 0.4103380007342216 7.1987503047059445 12.562150776204021 -0.9026564701063486 -0.6274607572309581 -0.16354581520686673
P 1.1853495488145598 2.429170914273734 3.8761651892074442 0.030145670345444856 -0.38845769222604065 -1.231689283406853
P 3.559222037758411 4.27521498369355 12.099819118004703 1.512178640581015 -0.16312775383284164 1.7626508825677967
P 0.553078622369998 2.5924294073925425 13.645583578532229 -0.69718187587618 0.36618756797393065 -0.15640457617639517
P 4.041623776946203 1.0464234730652666 7.588632421484273 -1.0927103589060732 -0.14554680752628482 0.7633654136817886
P 8.486527303215524 5.337200101631639 2.7182566859890755 0.13257019276095877 -0.5044751228346409 0.8998488254542245
P 7.825194403599434 -0.029813224992975625 1.9971150745535047 0.23430463108798355 1.2366155170638766 0.37065383127540036
P 3.01351900593099 0.5902480089791339 11.968998605319072 -0.015124257235948147 0.24333460250073577 -0.6823725787774892
Ni 4.238040971149553 5.858848272181212 7.862202807675403 0.19497369469884485 -2.0612009538984113 2.2882316770328006
Ni 5.930633529356144 0.5412704610434914 8.636533418144182 -0.2951796121964852 -0.48355045686683173 0.40472994702350296
Ni 6.64793098892212 1.1390254371152584 4.076491298368444 0.9548979439095682 -0.3571915351229074 0.31829023007201956
Ni 4.637508950147104 7.033641437642686 1.7016085052509229 -0.707331305605356 0.45176802224891227 0.023667518820268917
Ni 1.8835048899252023 5.7464473069256075 11.694413289019414 -0.045844569137940404 -1.4784331686994538 1.068234999472528
Ni 3.6296472700841713 6.656072634277699 5.95556916863155 -0.7950061805155212 1.2799702299004279 -1.939456648108363
Ni 8.192660165227725 1.780346542522124 12.28561516576691 -0.8571798258307882 0.3251597034983432 0.1194411115781685
Ni 5.478688945293995 2.0604006390146057 6.276342594145594 1.1106121788871584 1.0142585452560724 0.9661591186456843
Ni 7.470792282018958 5.686291649991544 4.875209837425072 -1.516645418103117 -0.5739221618828696 -0.2374128376996621
Ni 9.42608242911909 0.4697572088383945 4.8293325910333555 -0.6576259679604287 1.771956990460071 -1.3631711281996393
Ni 1.3275415345758068 4.381185899492191 9.749688777142088 0.9645390665437582 0.3551436514549432 0.23639519506842513
Ni 3.4071398032640796 7.96326930733428 8.31038373113454 0.5714086514323965 1.036721245134963 -0.38756449098780993
Ni 8.613490711413949 0.8181715203346304 8.86980543538611 -0.24205007936135736 0.17395029836964235 0.05605570534298733
Ni 3.6129846527144003 3.065819825470864 2.8287785965040912 1.0347939462052629 -0.3118794414496694 0.058368412636564
Ni 6.393754372042769 5.417876405609651 9.111973125365983 0.24926665171445456 -0.8800032514832071 0.04401137258394356
Ni 0.8711144196332289 0.6787976540907804 11.439868447725116 -0.8168793264395287 1.3271797977066948 0.07603626222997227
Ni 2.725563812695708 3.964435427853479 0.5832767251434192 2.624857472189215 -1.173125209819715 0.0705083904332076
Ni 6.824262373958465 6.1716724912299 1.4997114286110855 1.427117034923981 -2.0485277293061173 1.51844699008823
Ni 8.539031663889288 7.491174151017073 3.572006271340615 2.528317947799568 -1.1638782373001504 -0.9912800820830283
Ni 4.317699569458117 2.1510319548137584 10.569829095353612 -0.8774917979152629 -0.005562581689442033 0.5418594770203701
Ni 5.690510502584889 2.8347821347668583 12.871861741091172 0.33984353076276314 -2.476833149656715 -2.6326810819986917
Ni 6.9008308477798 3.5716935581440024 2.820153078362038 -1.4590300815824935 0.8384799354284397 -0.014527761302529819
Ni 7.636687558008607 3.1203595974835228 5.119368529769172 -0.7656205282645524 -0.7905915963875932 1.3358194756595638
Ni 1.5753343613468056 8.763241474738273 13.58654462227364 1.6136225442508147 0.4376714349465301 0.5467216902086777
P 5.574704849271497 7.413643482744625 9.145040232940273 -1.5694347939900068 0.6485761990533346 0.744347477818389
P 1.4734620238351204 8.178255004070182 4.534531014203609 0.7887458014281061 -2.443631980314398 -0.6094504366964665
P 2.9034402599756692 4.510379008293678 6.374027535420989 0.17648206365256058 0.597780456557706 2.5628064684947414
P 0.6396335643695277 2.3046037403333717 9.926454074868408 -0.3893565498912262 0.3941855958487534 -0.13490115488698057
P 8.374561175836865 6.5911337606972324 7.11502088371959 -0.3801859391355517 1.5828436111967448 0.6037775546814054
P 8.114805681514998 1.1391549632913698 6.365903468617883 -1.2534953235383508 -0.1586334655069139 0.5017883200310971
P 3.3946682828784875 5.374420373524248 2.214042738744108 -0.1792765956785622 -0.946905155512079 -0.4075339921312014
P 6.112923118493618 7.3149630402871155 13.541452859621343 -0.5098204463069543 0.9815019196503418 -2.505890729144304
