# total energy = -340867.86779387423 ev
CRYSTAL
PRIMVEC
9.28461569992538 0.00000000000000 0.00000000000000
0.00000000000000 9.28461569992538 0.00000000000000
0.00000000000000 0.00000000000000 13.58897358017982
PRIMCOORD
 96 1
Ni 4.600127859246081 1.985914313851095 0.16917219796060015 -0.23727656923211396 0.5709031725508877 -2.7919023016882756
Ni 1.1747824292126392 1.5744572828466903 1.3668337772725503 1.2085840648479573 0.8035563840783774 -0.7921172890035003
Ni 1.6346680159016493 3.6361619149595636 6.439610784461404 -0.4308708670849289 -0.7023479934581517 0.33759561526885085
Ni 4.39735185154827 5.089622085520637 10.792934059722871 -0.44626431882186374 -0.009298651693106567 -0.48064048230888834
Ni 2.508814587547662 6.310901870344569 8.51945755572453 -0.846996200429567 0.3425200491536617 0.5937510236833388
Ni 0.6772978626347529 7.6121407658962275 10.775757520609272 -0.383439670186159 -1.297287638132953 -0.12250483810515678
Ni 2.402784275830217 3.6347599379832642 0.9645425189237901 0.22153319035492816 0.6502008791409511 -0.43179106490635316
Ni 4.3755979968762935 7.8306263434211765 2.835108480703707 -0.8939550856776088 -0.019471478461050337 -0.7290946654243766
Ni 4.312833994493637 4.965208234643774 8.118026052793024 0.31852291490811596 -0.13464018791611004 1.0900117290279874
Ni 1.1894242682300133 4.991149451013174 3.7481789469042774 0.31186787148544354 1.763559767535311 0.49010445593526564
Ni 0.6191018911947401 4.904180455403953 11.743115135024546 0.07176848809255383 -0.009209177303093818 -1.2243562400805494
Ni 1.8960113796689566 1.4827717024430327 7.574480507543488 -0.8531164543946921 -1.0048123122415082 0.9071772407948377
Ni 5.053300668757183 6.936471424861758 9.2382056568559 0.8200404977763296 0.05449478861377066 1.1968392656072033
Ni 1.1421470048968057 0.5356935457206886 4.9196978336853325 -0.18082722799513373 -0.6390039819838672 2.1249671405117794
Ni 5.682955454198687 1.401057799340998 2.0138312964493448 3.1652665899163037 -0.387882536448861 0.5633693260676877
Ni 8.627822019838277 3.575338397265957 9.862754832103585 -1.1595312731853642 0.9367241012140191 -1.7643560381843613
Ni 5.248101191536843 6.422642220740318 1.0438656334735268 -0.32293441371225035 0.06172164537951306 -0.12856595669757212
Ni 4.7389700029783635 8.774983179270983 0.5525386240524714 0.25224501761648815 1.5029936316476373 2.44808744498259
Ni 0.7912479515759268 2.901999494781495 4.102823414213494 0.240505874802689 -2.402040015805224 0.8213615305805985
Ni 7.378149880090357 4.5376702491827485 11.710909588417339 -0.4679716285919682 0.4716313368317425 -0.9188935007905012
Ni 7.0422510519543025 5.543221987355644 2.3943909832038974 -0.441802169285452 -1.0276143977376881 0.026549468353754276
Ni 6.788233250003551 1.175450921545709 10.233883206192411 -1.3247339072693636 -0.18669525674013654 -0.1383934843109552
Ni 6.9536293947438805 7.013988681650633 7.5278698796202015 1.0344064809588573 -0.27165453249135146 0.7372584321820915
Ni 4.9936098741835 2.737801065471248 4.3029755895040065 0.2968914526812693 -0.17965197674010996 -0.42448193283944957
P 9.05365163600368 4.165914235070095 13.45445643614457 -0.14367195910107516 -1.6611619845926746 1.0895520157827492
P 3.4893257170776546 3.3672144509035884 11.945753730409448 1.57981022368706 1.9285970796860397 0.6129548503052992
P 2.584298513490116 5.8713217382725515 2.233674284795055 1.4316506611282762 0.24721285450921943 -0.998027685219507
P 9.132951539014075 8.582819487360654 0.7605669388727484 0.11877699563160835 1.7173994669291648 -0.3564443725442377
P 6.117317632226466 1.3711241982046545 5.818404070879068 -0.12120026036112029 -0.31524064461241835 0.6350131156569192
P 6.553592441096084 2.9268636957253933 8.801591959511878 -0.3364483890382851 -0.09877998368439117 0.08148108739462742
P 0.15449043509555668 1.870534394086411 6.275183953604025 -0.13039555370714317 0.7638827196378393 -0.9219320305065091
P 1.1103379113815721 5.06023627671278 9.63792507664549 1.8295725840910104 -1.1887521177236946 1.2693142928484784
Ni 3.1936292750831545 7.4174052354267275 10.863881522416188 0.021755903619852857 0.51187552906377 -0.33465118792854626
Ni 4.978643073615328 9.02777541194444 11.850699691416377 1.3705532795963236 0.5366915596661853 -0.9967012530985996
Ni 6.349804410282931 7.225752197381937 4.084342386588838 0.5060962033778316 0.4598659687656983 0.11939945970695567
Ni 8.584379302804482 2.12449648834274 11.7412804949549 0.29250283669527044 0.19404989733299483 0.60612625741924
Ni 1.0972744570395014 2.2434695543976737 10.086524284444506 0.2808063741939486 -2.0528849778335485 -0.9330314828537802
Ni 5.6359288754903805 8.511448646189725 6.314429095863085 0.7439052480746479 0.21060394503693405 -0.8779371129827978
Ni 3.76825414305099 5.532563248489478 3.8977801033526878 1.2879519625543239 -0.9288809510205164 -0.022911357380534736
Ni 4.436523645343007 4.23233637605316 6.028272596538433 -0.6363624305959621 -0.19163177480980545 -0.2456478240149447
Ni 6.348077471755834 5.01528945192958 4.714817003599926 0.08807879521680315 -0.8135893428343471 -0.44725085110484913
Ni 8.742644862658736 7.090252515315003 2.27596292409273 -0.9339460242482496 1.6866596146431467 -0.5365236666297534
Ni 0.5427090013716257 8.588083864483577 8.403217880542593 0.9413965669890239 1.4112579564045373 1.0057165692233325
Ni 0.4740241995334344 6.942172178924325 13.115261569421854 -0.21296935994531707 0.010656451272581647 -0.7182237841481438
Ni 8.33672146263363 1.4603586400537234 0.5708228178235016 0.19828733245311012 -2.0900901261289357 -0.2711711650970297
Ni 7.925412985481019 0.4795067651261797 7.075914283232231 -0.4924912109998873 0.009829327385595974 0.897932582268118
Ni 4.7288961949036326 3.6832442013622924 1.8602488967728745 1.3084151155046821 1.8345332705303956 1.0939920538319738
Ni 5.571242957650149 0.2659336777877191 4.045477913574998 -0.8650862251620586 0.23924294892986542 0.7135438621739711
Ni 5.55512486473058 3.0105737912108994 11.073423229601607 0.02650267427621887 0.06659517142173046 0.40532721428786966
Ni 5.350399087727983 1.0475831936146534 8.04741747857411 0.06588477561826718 1.484597902749269 -0.9183306863084959
Ni 3.5456090576758292 1.8508324394923288 2.365650455189768 -2.653856687635042 -1.2168499044011754 0.6599849551109085
Ni 1.1527036129898647 0.054280648983686494 12.57375492578818 -1.3840723971286808 -1.2679346388921326 0.9698039144871233
Ni 1.9044232415267501 2.128832403891956 12.267500018777472 -0.3948895638943135 0.9787199860298306 1.0755341042371025
Ni 3.6928723478816434 7.494755369132335 5.095566096515515 1.4350620008026704 0.889624576623055 2.396590305544563
Ni 1.803174506913901 7.408677696633872 3.9101732084385414 -1.6813983662442076 -0.3941650270234631 -0.9996096849946462
Ni 2.020815184406776 7.769709979570201 1.1645712088249993 1.1266988000363756 0.24214675284022164 0.2640682355036613
P 3.9318026492596414 7.38830724970672 12.933958092539186 -0.6763672531236739 -2.3668655247866206 -0.5830778602402087
P 2.9037635717715395 3.6914703709053445 4.621895640841664 -0.4905487425615358 -0.7020361186446876 -0.6983003057513393
P 6.807740227667154 3.4226343222382143 2.9489155865625296 -1.8497596005618466 0.57189124749577 -0.3464342966064034
P 9.180451633124973 4.620191913853909 7.715615022901255 -0.12753005923389005 -1.223989343659434 -1.5865292875784482
P 8.822845373395626 6.673661091807992 4.276612851580143 0.022016099259774987 0.551896806651714 1.8381364145006214
P 1.8452802392815555 0.09497047745143637 10.562450901742467 -0.10341336869134446 0.5263464689864354 -0.8840098015394388
P 1.8757523481306497 8.101904246027159 6.82108036355819 0.8304030719575763 -0.1834124722238067 -0.6921417423491112
P 3.538784865109076 2.8078256373603 7.6196640900279835 0.9608184231590614 0.4686393440829542 -0.16092740374741316
Ni 6.497634062048707 5.035427783463304 9.289150343405254 0.280367229774001 -0.08798263595857105 0.3259552028164451
Ni 8.97411961759986 6.37094548031626 8.846190611204939 -1.3161212258996884 1.292576862920845 -0.26191519371640054
Ni 7.6781172453239135 5.7953735815432434 13.58731557349588 -0.6096280999249114 0.09569388855989971 1.1159191929223684
Ni 8.820849181012154 3.6792796704425594 2.148729335416517 0.9021725884913945 1.5615505061459236 -2.0535714623776116
Ni 0.7257143483189002 5.447785422194206 1.4600541046575473 0.16169102138631508 0.18810987769947604 -1.955558695876548
Ni 2.709399425931523 5.582867296552973 12.552624068832161 0.39060610602761114 -0.10726359567537011 0.613496324631066
Ni 8.706239884353648 5.004435736132935 5.551354382279752 1.0485087246881941 -0.07828777726831034 -0.40351844321390506
Ni 7.8681826140776625 8.878060983184037 11.71410256776932 0.1587918454616491 -0.4252735755028096 0.37556540964440477
Ni 3.2929003865440056 0.6622902097573381 5.879690890897954 1.6795322595697462 -0.5330315943160949 -0.263477653107514
Ni 7.994657649648156 9.304670507071355 4.830282341829391 -0.16411171501266575 -0.2742336060724374 -1.2881581650278588
Ni 7.656985459906321 8.393236918625231 9.302861863925772 -0.5952569188049038 0.09077151155761787 0.6214009241901233
Ni 5.808186351260412 6.604472135335278 11.775661427029304 -0.6425297357489386 0.20684987731114057 1.7355203448995917
Ni 4.980797104466331 4.549183172696727 13.329451155245255 -0.13997419853451376 -0.3920544084383635 -1.7519849182135183
Ni 3.664832808355664 1.3368453969033578 10.63471677987045 -0.17595010240849052 -0.489093498172248 0.1638486911592662
Ni 0.6302397162329404 0.09016383188435044 2.861172254000836 -0.7220130759872468 -1.5159486491464085 -0.9043613686125974
Ni 9.051061228213035 7.509397208149708 6.451895259543133 0.08552568977764625 -0.4047590004892255 -1.5767269567760458
Ni 3.837656645685658 8.169496248593097 7.761233125402247 -0.7284454618761519 0.7118304790272902 -0.9848698076813103
Ni 1.8339158696193705 5.910957762854142 6.067966185737595 0.27280664381792374 1.2152452789182167 -0.3542969871839318
Ni 7.00910497377293 7.987870595544352 0.09893500837116923 0.13332558286974455 0.8358430120262251 1.4446840972734667
Ni 8.229512004717577 1.8749167327143124 3.0047662640673565 -0.4225469206002659 -4.242363924875468 -0.013384905947338238
Ni 7.615176835242252 2.8283167842920336 4.968916510169164 -0.08881747315504059 -0.2850816045305348 1.6508374627382152
Ni 7.043615890467653 3.211687852691773 0.18068697839772585 -1.3571395772935788 1.3078075638276703 0.5054837666048133
Ni 7.074468668561967 4.294171916862108 6.945147898268059 -1.1792452066745238 -0.27753130298710266 1.7290877019003705
Ni 3.1171983183355176 3.3414310730017194 9.718629742016903 -0.4618341482356627 1.6544832870209185 -1.1014415681314835
P 2.8878311711667117 0.6568847064752105 0.1708517849474378 -0.6963547519891943 0.5532072979330214 1.0665565833288406
P 8.567685563709215 1.1995166455362185 9.064049477167636 1.4883275449950304 0.172975850271515 0.4214331187107967
P 7.457208383091586 6.571103226376215 10.592985217517 1.6694671620242603 0.43167973613946947 -0.5687182490844269
P 4.661294907721959 9.04277935097556 9.58655886854167 0.47109757581545963 -0.6227106441404824 0.8242151979793096
P 2.9133917182908906 0.06572765172593152 3.620306576665353 0.3453215231581988 0.21019539674460574 -0.002356673157634651
P 6.6547761833987735 1.4303043389127976 12.533830149657165 -0.6793893277794493 -0.4977974537041491 -0.2777912415167087
P 6.771446664750912 8.633123535424149 2.4159424332528054 -0.8145257386056876 0.02165691614814335 -0.542075449685918
P 5.498070901026227 6.145385025599657 6.405951267029771 -1.4781084383701835 -0.050311089549726254 -0.8844286342444123
