# total energy = -381166.4376624512 ev
CRYSTAL
PRIMVEC
9.27099064369574 0.00000000000000 0.00000000000000

0.00000000000000 9.27099064369574 0.00000000000000

0.00000000000000 0.00000000000000 13.56903193314896

PRIMCOORD
 96 1
Ni 5.972761450309885 3.3259214805793778 11.234031861242809 0.1903189695356529 1.1295429543533901 0.1620769439708241
Ni 2.3593094709118785 0.5528477044416213 5.020717875086301 1.2433618346487747 -0.6008051023166427 0.09227586401728624
Ni 7.589853965188303 5.865449735477047 12.930527628305141 -0.4942647579605423 0.6140352278536716 -0.3025589353796918
Ni 3.821539360773647 2.6814022222485905 2.9756208136011635 -0.781767313227744 -1.9702445800234971 1.608984788368487
Ni 3.4182420038023063 5.96266534167464 0.18381963668912335 -0.025989482085226213 2.2510923489783425 -0.8878636280678902
Ni 7.357170646063071 2.5981209147459228 13.385672999548849 -0.6882079545123438 1.9010222553915648 0.3285029089389633
Ni 0.20255723555293745 1.5830494378273439 7.969336928907711 0.0853444270047756 0.1869279415762329 0.3001356706501799
Ni 3.5521892742908454 6.480403805159721 6.561509211196189 0.44815253698351204 -0.32017382024797764 0.15393168915587038
Ni 2.9952345210655564 5.627074028195672 11.19179137440727 -1.9883045228490013 -1.2358310734893685 1.5148924399677524
Ni 7.119527347029798 1.1578169173748378 6.339451374262742 0.6077044005396374 -0.6781883654928127 0.5662751868605731
Ni 8.590546135868806 3.717500305581068 9.417464715146826 -2.5644735717845193 0.8891944310641718 -2.9235147585216557
Ni 5.978629987285192 7.070873188978592 0.8089643791099616 -0.9665594394078965 0.6403388987452069 -0.8301804144238089
Ni 0.30252910722092335 8.404894551460377 11.570001431133456 0.6501689974617513 0.3475154454857241 -0.19717533033585397
Ni 9.373342217243374 5.936947614076688 5.657540357118668 -1.3436955359735312 0.8734914185066183 -0.7922828680470871
Ni 8.805818534868243 8.817898635466703 5.17364100889405 -0.30184108337706084 -2.0654486734311717 0.22613597923426215
Ni 8.51307773939855 4.187864007701501 11.716397787641652 -1.500305800402829 -0.32711939832787534 0.35112964519954365
Ni 4.315924199233767 0.7162173903248465 9.918365205717919 -0.48003601595567 1.1406987138598936 -2.0529646820315484
Ni 0.15494791812908684 1.598012816465806 5.525255375223608 0.24168935358782895 0.21203450683587355 1.045848918467844
Ni 7.62846764054716 0.46418644116206415 1.6042392136737313 -0.22434726276495554 0.0840863862279584 0.014183747699549767
Ni 3.0911521885956246 8.687974974847492 2.682380311744475 -1.0758503499259406 -0.6621955896089822 1.2605560870398742
Ni 1.9481688559924966 0.8108686405550297 9.66614420125025 -0.2942956669296351 1.135569105942812 0.4424045787561413
Ni 4.298995370613054 8.536839288004733 11.544342110775544 0.846908011591135 -1.2152877021203778 1.3304900930268506
Ni 5.732105079369859 4.675239977356989 0.4931286192497663 1.0556831309494463 1.323670756112172 0.1416747261653883
Ni 0.6505342769557159 7.564544161171574 3.337751264434816 -1.8368943145634042 1.2476427214123158 1.2467520912772465
P 5.8900642152076035 9.575078970138627 13.493140467021789 0.5806656512542903 0.15810304692474064 0.10305238580749994
Ni 2.477533141542405 2.171414306806728 0.8135581548939503 0.9560911928867212 0.23459388019362823 0.8624081641092631
P 6.507836665996902 2.324914096222477 9.291530361732153 0.25310556584457056 0.5255401710350561 0.4399196075507585
Ni 5.0023668765256 4.272248563071564 4.735252952947133 -1.6120839961191011 0.2956233846021231 1.0976139668552776
P 6.2367714462748705 2.7819461140293353 5.439498713262162 0.36985421819224046 -0.010277727776924235 0.1259693996149895
P 4.072041523605895 3.8716119803686495 12.706407923088427 0.760179045534007 -0.77114222941373 -0.6898647733894764
P 2.0069840196123256 3.096408840199099 8.538557202541108 -0.31507480845851543 0.06682065716897524 0.6164518077149641
Ni 8.034657546548983 3.655597902130627 6.716005632088787 -1.2748835594061396 -1.6921129244482345 1.5323214340774773
Ni 2.078583879107272 6.032262667225406 2.8810038660357646 2.430647652239588 -0.25083733863568414 -0.16983190532589462
Ni 5.886559780805286 5.2655424833471765 2.891045275827164 0.6312973573682289 1.1217283434049778 -0.8411453980757448
Ni 6.112336212021192 2.8296639020418293 2.723956068562433 1.422806580474085 0.23524051263869164 2.184845047814334
Ni 0.5522951534088753 4.7272409629723136 7.584871734903105 1.1879879858641604 -0.6308109046501137 0.799714641734784
Ni 4.717172667308515 0.7943903820717567 2.038448834210267 2.168135705479453 -0.5669858397743526 0.4477383322642289
Ni 8.969534955795506 2.130000792322211 10.789239405070706 0.794048187477626 -1.7406039300700864 -0.7246204317031069
Ni 7.9763430164152 0.20876045528465678 9.943861356643344 -0.4680793578144261 0.8242149408689934 0.20700568616271442
Ni 7.720639827922371 8.011387360438365 7.365093634529261 0.06056130652282474 1.2412396460994493 -0.2707952698148498
Ni 4.369788653936038 7.051923284432732 4.349485184779761 -0.8869323745028725 0.2157191547763124 -0.2912044295988211
Ni -0.07136808473288841 2.329920431082929 1.2612227639174747 0.6901614786942889 -0.25619680317538457 0.5893456955267914
Ni 3.834370411601176 8.842615096092565 0.2663750256370256 -0.48851294307842963 -0.686809017282288 0.043909556898756634
Ni 0.6912033309045027 5.865023269914861 12.238574274270619 0.33994148979320804 1.615411003609805 -0.18691020096442004
Ni 1.6272071654946274 3.803841039942901 2.6117668856368477 -1.1575057581149033 -0.29875781646604677 -0.05479355080111209
Ni 4.7773228535577985 2.6863065762137373 7.299826788632786 2.660831833401295 -0.577075877020503 -0.31486217822707707
Ni 5.226947349969285 4.852037765854804 7.504651708457699 0.14778058195281002 1.2165467713384597 0.16457708468485852
Ni 3.104771273614151 1.3423188989634598 7.459628997378415 -2.010415752925744 -0.08625511174450305 -0.171246269174918
Ni 2.6799930316952785 2.91099830154321 5.060895566539525 0.2759295057176216 -0.8052988206907807 -1.3615320499343198
Ni 5.327101860149772 7.2545036974618755 8.068105426011092 0.8552964927651464 -1.780685114361688 1.1100956442620558
Ni 1.4992211418862194 0.3383123491855284 13.406759867400883 -1.118211845611287 0.024862053349002343 -0.22430869621753627
Ni 3.55284751461509 3.1650605247206682 10.552391557020819 0.24850689073029458 0.5834038761210598 -0.8062280173732695
Ni 6.270721813421122 6.407274232235192 5.786716775905005 -0.4787795178407496 0.21121098249331363 0.08182998609361392
Ni 9.389937290206724 6.090308338635202 9.513221067442501 -0.17270896976337352 0.055271518878795126 0.8121505535052915
Ni 3.1684907911991265 1.4140949072775704 11.923826928693048 -0.29614891808828997 -0.33263235772630456 1.0997487538100932
Ni 0.4384427547907619 3.760869999057354 5.1567882023952905 2.2062361118956004 0.18608513395996337 -0.5149616241882614
P 1.3247874559613955 9.138257711583222 6.867259987609717 -0.22362786810042778 1.4053837570119472 0.08156464824736921
Ni 2.636363750485487 5.568481368347419 8.826370466569447 0.04175857199402486 0.01658207272839725 -0.4003246188669557
P 0.7022654767480052 -0.0001603881353441114 2.2339378666194847 -0.5088208013978462 1.996021688987601 -1.5342533609928672
Ni 0.3415525603590987 8.411013405178707 9.068143064763543 1.163603386372209 -0.10925337241188927 -0.959997727029979
P 7.741573724431446 6.5809384259499835 4.243443595643001 -0.32895182355092384 1.3133740021718543 -0.6998162281752335
P 4.768042592084997 0.26667911412484563 4.247772221099195 -1.151296543980398 -1.2661456653125098 -0.08305408830870212
P 4.060239552721903 6.658898184915801 2.0862927076933198 1.2923140961777615 0.9083766604195774 0.8392736349743287
Ni 6.1921316271025075 0.4038174595373985 8.37579662073257 -0.014179633934491708 0.4560779624781758 0.571963495494602
Ni 5.084730355970518 5.728823148739118 12.082693694499012 1.9363726098664005 0.5735976886639154 -1.0872282527455792
Ni 5.050928324671984 8.861166348047684 6.621741909260764 -0.748866191624349 0.8978456789812668 -3.245078002917992
Ni 7.574788605654535 4.380960197467232 4.67275349770963 -2.3585739742017897 0.8914366901311293 -0.531818033623968
Ni 9.21818292053129 5.293568687575226 3.271004768457364 -1.274861705029269 -0.7434514483666809 0.5994406178689482
Ni 1.1052596723305739 7.111303978471982 7.264995677390715 0.44952344918910975 -0.6847194817431111 1.9282160421975374
Ni 6.637843765530454 5.587357104969419 10.119309288926933 0.23497620323371146 -0.5779492807643918 -0.2239556837534917
Ni 9.435179723760438 5.397236903148513 1.0648325912333754 0.11103283290981525 -1.0357051451656227 -1.5852385937914828
Ni 5.214793081446965 2.60207035669139 0.775838203017589 -2.207350685116018 -1.935625190177415 -2.6663494207854144
Ni 1.5599183165739592 7.632129681787676 1.0669528667566817 -0.24207116240727986 -1.401737932729244 -0.2366926717041859
Ni 7.490005397693731 5.842902686624049 7.714985450827204 0.7030146805078731 -1.2516508141304443 0.701166828665857
Ni 1.9241013647003975 7.457872144682016 5.171632912355579 0.9186471891076502 -0.046284484888836415 -0.33068500419194663
Ni 2.9375226053131236 4.1644732987146105 6.797053557984263 0.13734293155925378 0.6532694907639459 1.9834533654042874
Ni 6.118176936025052 1.0412249410691994 11.259664295728323 -1.0341470566498836 -0.7332693656273565 0.16088240944209067
Ni 6.182452713038966 7.750362623408684 3.0077661189005065 -0.50426532081668 1.198006546442427 1.4155532413457816
Ni 1.2377606683038709 3.9220554395829446 10.645800494526371 1.7269063779783358 0.22233177499682352 -0.24576352365720253
Ni 1.185407385050218 1.816298287371997 3.4200609721349373 1.9078588186974241 -2.492239971130089 -0.8519820836799327
Ni 8.255251494085272 8.033507943729175 13.658994778354275 0.2741806413473149 0.9985462767271384 -2.351470016167157
Ni 8.103642986727916 7.104193128772044 1.9759493789727642 0.03569925317382239 -0.9828201242411332 1.4014437985275927
Ni 3.5771931356216586 4.4774619373976865 1.9165714662306583 1.8795293756251115 0.9644909869146422 -1.3657751414813897
Ni 0.6747056033412168 2.485737968119257 12.757752522577604 0.5016098854717038 -0.08378993803346214 -0.8412988929344736
Ni 3.338984306168965 8.463969302813709 8.237962951033843 -1.217173092068549 -0.7901287978185618 0.13369916415907943
Ni 6.820018728508015 0.811297887414361 3.9105139835315064 0.07511632151886419 0.26793440332728696 0.4234383220662836
Ni 2.0823479012430934 4.238511428706407 13.21296649915088 -1.0480916917554335 -0.771312179332691 0.2601817559650616
Ni 2.450554559238858 7.820275162635848 10.399496236184516 -0.9974746409295142 -0.07056084093769784 -1.0006309271703089
P 2.4105595062981355 5.10125126101001 4.844009088097116 -0.2434397606200324 0.5889626011557598 0.14059717683049336
Ni 6.288837328823572 7.946026877538018 10.175511887428843 -2.488135976264044 0.6320558328008082 -0.5294464480679978
P 7.942605882050042 7.194362782203075 10.99778199207903 1.6829716242685984 -1.6556639375925806 1.0468040832922618
Ni 8.49676079614967 2.673549693310067 3.402136439136423 -2.1070390952784486 0.35246764728467683 0.09232728608051195
P 7.603463779216346 4.018102900979765 1.6146607340749057 0.7015689492002821 0.34767691076425283 -0.2600619425577457
P 2.243125418187462 7.611269953202458 12.546170904889177 0.27584054554824106 0.15558773670205464 0.044090562561311164
P 4.338054053515062 6.556880205648366 9.947159047957904 1.6894901421134068 0.9270441549220939 -0.7229538426339613
Ni 8.034231080986796 0.8687817368009293 12.330653751741007 1.3957842862489704 -2.3614656939272876 1.4336738622058922
