# total energy = -340854.13825000805 ev
CRYSTAL
PRIMVEC
9.48172280769829 0.00000000000000 0.00000000000000

0.00000000000000 9.48172280769829 0.00000000000000

0.00000000000000 0.00000000000000 13.87745975629717

PRIMCOORD
 96 1
Ni 8.81090969441315 9.460047387416678 3.260551065201429 -1.9646094932249067 0.205533215382246 -0.13113191765253543
Ni 2.864343063555379 6.909644159322529 4.725316966607071 0.09047737735596675 -0.25548512182034067 0.25752040708281454
Ni 0.04117817310252426 5.8098307091668495 0.7505873840188524 1.1868101635059753 -1.7110539843271113 1.023830505215224
Ni 8.089521275157296 5.618205095313892 12.452314059673618 0.37086337618304516 0.32930226491180703 -0.4354800837221662
Ni 4.554763533072115 6.843395363479351 0.6942782779828026 -0.18309082721832984 -0.08680661337259889 1.7236688448776445
Ni 7.261036799074664 9.00062000029984 5.410516495195307 -1.5326952724771281 -2.099427601479778 -0.45073880965344953
Ni 1.9267713688988584 1.3656050982272343 13.12509253164892 -1.42932664098079 -0.455666328862054 -1.0841807241685069
Ni 3.9041751365099784 4.139227039895176 1.764005274139628 -0.9672724063145212 1.4067014473821065 -0.09102630788090131
Ni 1.497808756512826 3.5065685807796476 2.2084723993298345 0.92213386210467 0.16464444758768418 0.17685693049347606
Ni 4.724865636611059 8.214025774687391 6.423945763383208 0.17164993237123988 0.08108230929431197 0.3261048410204319
Ni 5.948055261306803 4.713544459820341 11.873429293969487 -0.5367039009613596 0.17673171776952143 -5.0276834742308445
Ni 6.068681736291333 5.2733832893272234 4.85350227085254 0.541791342786596 0.7332626807591371 -0.9429790809847953
Ni 2.468822486798213 7.379776411260741 7.746953274633906 -0.1186795508217956 -0.7318933112154363 -0.6250711739528589
Ni 0.7306539585857462 7.76129248372989 11.538635357810175 1.8099578951838764 0.09636057560962115 -0.6816727244969873
Ni 5.110961381098565 0.8291519893540444 8.133495608256121 -0.3693831920930929 -0.2895414400741014 -1.4992830155652694
Ni 9.203301302710571 3.45216245647048 9.080312930625063 0.4490467666630073 -0.2675857617386166 -0.005279246121068327
Ni 5.942148148123706 1.5764786089689369 13.045338918299025 1.4227111925468015 -1.763519658325995 2.6254300568632334
Ni 5.672905153023823 3.7079319237482418 6.657627557851942 0.9244208583666337 -0.022290178856768064 0.5673877031984615
Ni 6.128701040382833 7.043014069488572 12.60966988351427 -0.46463253691640627 -0.07111619922053558 -0.25411472383537526
Ni 7.5712029089389885 1.9456399968833902 5.543504291940357 -1.3778891511361044 0.6514128971711813 -0.20065840378844796
Ni 8.072681735810297 8.188529422601759 11.021838808070017 -0.13754990536373732 -1.3026555873130856 -1.3999710706368083
Ni 7.092157837751802 7.454312232660945 3.1555817587550186 1.4446432167332024 -0.697393991886986 -0.4091558440053405
Ni 0.6678290127753396 1.1175347897049699 10.225841558149897 0.9441677019762579 0.10165961922503136 -0.09119060137290746
Ni 5.017632785494673 8.290732910564206 3.51228795585516 -0.5515479079527276 -2.6764816241234097 0.363619035915806
P 7.9179400228919254 3.108023334511393 3.678526257432449 -1.069929099345499 0.0313862276207653 -0.36501000272606166
P 1.7170925552054228 8.60670183466297 9.60148150265852 -1.2574954458366796 -1.1214475789397655 -1.426373729000053
P 2.330408300206155 5.173502823403074 7.371900892464785 0.9781728552771091 0.6530830857847527 1.6170086871142282
P 7.358982993587334 3.286516762556022 13.608847174454157 0.5905194041199184 -1.0327458054269827 -0.1539085492274188
P 4.12266247050373 1.5970634287450267 12.1245972812669 -1.9767381581676409 0.2390560297300399 -1.828036607062458
P 6.990893040327279 8.882126912901501 12.764958691826967 1.8806835438342127 2.916898538756718 2.2081091605485974
P 6.9130860246282495 6.6530877090685285 6.365604724192845 -0.42545175295188664 1.184398211630373 -0.7783014661663306
P 5.03765818363705 5.926351598263288 2.7413670177092584 0.1815790185594937 0.39336669949188385 -0.17754572903038454
Ni 6.292507280111864 5.083160970419849 -0.003928277675372631 0.17454653719274454 1.0211935818130091 4.453706804960955
Ni 8.736724696749343 7.4741954049642425 13.352586553945441 0.3588306133882272 3.1280125906608514 -0.10471666088380031
Ni 1.4405201885316494 8.794487350860784 3.700174926484852 1.4239651195585603 0.5282226029632259 0.5900370651668613
Ni 2.2085871281733582 5.893042306750896 2.1422359297260436 -0.02044412678696479 0.8445798776785907 -0.041937006553418095
Ni 7.36159046730379 5.348582831309797 7.995359236136398 0.6826916526798049 -2.2000160991278177 -0.49600333791820383
Ni 4.023862920956584 8.530952352769289 12.914932994619397 0.712367839587999 0.8267042829497504 0.06971854754206057
Ni 8.645178664995244 4.525739980177314 5.122961449227823 -1.8852778480731143 0.17191886976191037 -0.18632733187775652
Ni 8.086259562581075 0.9761338604922448 11.404773346240917 0.9872899870870288 1.47637397217758 0.524265932308323
Ni 4.4651328092842855 5.987764715577767 9.25480791624704 -1.0301757307069612 0.8332271716699328 0.5133310305633739
Ni 4.52721912890374 5.838674109332151 6.781290080414687 -0.564861594342498 -0.04188609871082464 -0.2626453870142057
Ni 0.44149555332570783 2.4601182654465545 5.073474442606281 0.042132153283359695 0.7815870788961379 -1.9731908071360145
Ni 4.583597451514809 3.5870778874211853 13.28450304477814 -1.0513901600010473 -0.10499742534901271 0.45589515704340844
Ni 5.140828807305236 9.340388048137887 1.4192337212827681 -1.2099932864906582 -0.04226045133110787 -2.386475071487432
Ni -0.24423021086712102 0.34869793418771133 5.739620449619181 2.160038016072983 -1.7274625075921217 0.5239548288258072
Ni 2.687215003565912 0.5688056945747081 7.955364382015015 -0.4983312147204321 0.5349506657156787 0.03194004324170628
Ni 2.189263377503772 6.94956221149081 -0.4107605495006526 -1.2823708689221205 1.3639715126137477 1.518832398452107
Ni 2.90750386485467 3.6775430027982794 11.40660521504826 -0.5402646217294244 -0.5046988088096728 -0.31033729377353003
Ni 9.29309321578269 0.35340181677219684 13.52828856285507 0.6567453651276882 -0.46291246890150595 -0.4479910717049833
Ni 6.983582632198599 2.2863562169819662 8.35267605617232 0.0969655561834717 0.6938600105917986 0.5243183828128132
Ni 1.0031757333625386 5.405435240051131 12.115784968277541 -0.007153837435961874 -0.8876849363981808 -0.231836114942833
Ni -0.14341105440504717 7.759737481222622 8.090794670503188 0.6952921150526348 1.0225295270156132 2.096404498382738
Ni 6.239409633522227 2.4723781327751975 11.155395508171383 -0.5588331287602312 1.108245992647827 -2.9844167362133507
Ni 2.5839305992264623 3.2907361291153774 6.077577488439618 1.9024091084367623 -0.9532521807760292 0.06075413925992118
Ni 0.9207947346787163 1.880254037797294 7.185471262599527 -0.4057010526875206 1.5022598388054063 1.9136335163976719
P 9.088989654981166 5.947979407525961 10.19762869253785 -0.5733644896071868 -0.21866718166104276 0.4041416786202008
P 0.49297277352210067 2.490241698163568 11.841025506965899 -0.7058395515511781 0.0413641647690836 -0.04447751358708469
P 2.6172778176292755 8.993641452462345 0.6929698002632723 -0.6769892029783889 -0.09601116269000239 0.684427404423989
P 4.586906572704056 1.9693917120096476 6.278620349184153 -1.1472388289712565 -0.16624701618811366 0.5714521030758223
P 4.648177464179455 7.458104921703061 11.060348824431411 -0.4876765632200634 0.08636669762170288 -1.700544085934723
P 8.396966130633901 3.325221154230826 6.988299789194731 0.5662340492099927 0.12562795711517072 1.12427579241718
P 2.651961958919435 4.658967664504278 -0.32810173634449524 -1.377854441243427 -0.7274085359712053 1.4343045538113555
P 1.6961474299703319 8.3828099187842 6.0786043589977705 -1.2986768051709956 -1.0530150971989802 -0.9118738749395585
Ni 2.5904445426562983 0.02923783982567957 11.248707984846847 1.2168118520743882 0.49668879402100263 0.6525974043975856
Ni 9.161230899510889 6.412593296907892 6.422737791923294 -1.3804425136855776 0.31783617325373653 -0.07265449024193293
Ni 3.732603365967212 1.624124265060531 0.34514892541655046 1.235636183869743 -0.6302329206594566 2.79961715383403
Ni 8.02802282233937 3.782628934432735 11.354176978074555 2.2930846342497277 -1.7866755276171682 -0.799000903497211
Ni 9.078218418101553 2.294007967124437 2.168644423526304 -0.33233128154611796 -1.080119666725256 -0.7411639378840849
Ni 2.244285813782284 0.7741892879279463 5.468551274745519 1.6760900666574166 1.4534849833945487 0.34747790737956935
Ni 6.674118169807066 6.8063976818735 9.480053822113845 0.09879746718588792 1.9011981188477967 1.157567207480458
Ni 9.495945189200315 7.113624457730183 4.234249071156374 -0.18134170573770705 -0.657108919114694 -0.6469396918911762
Ni 3.866845594612942 8.503673436833862 9.161926857950117 2.147517257898153 -0.6314945609806996 1.8689336023871361
Ni 8.918915996610036 0.6211362698055772 8.429474216586145 -1.991620731706428 -0.4948548261360574 -0.6376492677281858
Ni 0.5256050700404749 3.3010712067551458 -0.05531162881797307 -0.4310451878792641 0.7757835848404834 0.1348661878839871
Ni 5.491918031934002 2.6895000987137876 1.8882916940498005 1.6001101115866765 -2.0535907456513214 -0.3598361718346061
Ni 3.952636220745627 2.2364444291877073 3.943724349668913 0.9773560158027684 3.799794795517004 0.41314362500849494
Ni 6.89459666554793 4.697899617521608 2.3286238400118386 0.3068449643495554 0.24636259069378216 0.5910747624027562
Ni 6.035277627552887 -0.04605746755520771 10.95950122280152 -2.691885617383306 -0.07392692919645331 -1.2573769179809442
Ni 0.5053796075511258 8.06562733419196 1.6538873923185438 0.5200030432669108 -0.005171774008926578 -0.8155258977354278
Ni 5.124122012074712 0.5482332010380052 4.863077862511625 1.4090828031300895 -0.03029222322563815 0.23051096837350624
Ni 4.321901907608739 1.9835953324723756 9.928628429536664 -1.5333876705584624 -0.023259998969205102 0.5093846443211162
Ni 3.4501807764459738 0.30426753023157177 2.9836819206101097 -1.155883392020132 -0.5380758416082216 -1.8522728539020035
Ni 1.7704082814149817 6.117322973256482 9.667094074914884 -0.3517811627406135 -0.12366183452773542 -0.09976034531978947
Ni 3.923138581720563 5.929755536678589 12.465094473573293 1.123396218025704 -0.33920898250255777 -1.6932146421528453
Ni 3.7832926550151056 3.789275621979045 8.372604740744125 -0.6156213413938688 -0.11457349907322202 -0.8329399794468172
Ni 1.3107722964008286 5.095307057077227 5.56237671261393 0.8401547520277015 0.5345822266326664 -1.573340042581684
Ni 7.427137615674176 0.9105326663030084 0.7952254377000478 0.10092119839711007 0.18232386714531826 0.7924811001008223
P 1.9931244636906944 1.7918654196707586 3.560303399128361 -2.4971536063816218 0.040985955494058444 -1.010420916677537
P 7.5790253300883546 6.734971865487833 1.032857317806146 -0.8406396620839199 -1.0772541722520028 1.6987939360128355
P 6.645758337494637 9.089349960440167 8.849128621890562 1.8858835999779133 -0.5317678971123229 0.28886883948710895
P 2.0805459461114904 2.6391331882344744 9.184019271620448 -0.42003495281168945 -0.7186176771524527 -0.16256468224052004
P 5.59238636465968 4.2088418472632325 9.43389679647128 1.905833303626963 -1.2485217815831595 0.7479246536466861
P 0.6000574522817517 5.1156927606786065 3.39691056250492 -0.0325229123283698 0.5758836564846147 -0.1790806776176722
P 6.63630506005716 0.22023291912538653 2.7019135699486365 1.4359839983963076 0.1560425648512861 1.8845440552308834
P 4.008056889373561 4.6421470886024885 4.525397689991263 -1.0015189862022171 -0.006802881854446348 0.3725901290661648
