# total energy = -381166.4958699142 ev
CRYSTAL
PRIMVEC
9.28185357763620 0.00000000000000 0.00000000000000

0.00000000000000 9.28185357763620 0.00000000000000

0.00000000000000 0.00000000000000 13.58493093500623

PRIMCOORD
 96 1
Ni 5.198264887206804 8.701292063583692 3.2887351698204257 -0.33766734904705076 -0.3767568588493447 -0.03705782408424586
Ni 9.25411925399669 5.626520322708235 9.985127400188754 0.5933170214697137 0.18121443613122337 -0.021109528285105584
Ni 5.383660627658604 5.777109112789842 3.525670257824379 -0.851360905156166 -0.9966806842733092 -0.45755377569275396
Ni 0.3500483948536507 0.8193435453048986 12.083945667356334 1.7515123494524736 -0.2324601216800771 0.0784746964681358
Ni 1.1967743359684448 5.542036892769701 7.906783045321593 -1.3373796210578321 0.20734044379431388 0.7719336149667738
Ni 8.485925218399798 2.330859033856813 10.599383752985753 0.17687852776003085 -1.746231817779825 0.7096064747927778
Ni 0.6849525176475658 8.952208407412346 9.885944298969878 -0.6894590533106255 0.29763450149488097 -0.6851172314021621
Ni 7.631391382177962 5.048149471650233 2.4673087766053747 0.3822065691100063 0.1956254693502308 -0.3186216452695093
Ni 3.0839514939197565 6.9537418268107345 2.9525083829124434 1.0115809984239095 0.16291923736646136 0.7439479283871252
Ni 3.136551757319193 9.144175700094038 10.57240418961481 -0.596226996027657 -0.3331697182870133 1.0090055243872493
Ni 8.878742537497656 5.850825592747196 13.45970476761106 -0.130813100860536 -0.32491519158770493 0.7014136545693405
Ni 8.35568225104125 7.159130679555173 11.378167455163272 -0.15726718128700656 1.3718969381084114 0.5061900486432185
Ni 7.275460148619077 1.235953039305135 8.219371736094168 0.47742043270969386 -0.6977122944583533 1.15451145137327
Ni 3.0430278021378405 3.8891522791502378 8.10178086314885 2.39089094116694 -0.2855765418890824 -0.6800920102734287
Ni 6.69540000023644 6.025593611019296 9.853517215819661 -0.6699901459527364 0.15891448708244246 1.0331209293782142
Ni 7.30754751593368 5.069766908293481 5.117457071227363 0.8727928497776969 0.21152157175519704 -1.1187309513395507
Ni 2.219291155603552 6.69996667212501 10.006102532574504 -0.6915082225301704 1.0806642263748163 0.0021083045922544335
Ni 9.006665041498193 6.6198921225667 6.213924273526311 -0.2566989396227837 0.5811500470898766 0.9747944257231792
Ni 8.32397543971736 7.205716301930641 8.468180171008402 0.06786838170719925 1.1108088682789967 0.7974214748252331
Ni 1.1082440179335362 3.5484247215130535 3.5421752495972534 0.446464864868444 -1.0949508182008176 -1.8576570010320523
Ni 5.67757051658452 1.161958103744819 10.229642977890663 0.2526322257525778 -0.40818422412069055 -1.0583043706223774
Ni 4.365543406550289 1.2315998500455028 1.0413812585504088 0.6789586679999339 0.28488260114585134 -0.5582967966407869
Ni 6.818375276357694 7.343895253973594 2.4429782542039375 0.8593930314320233 -0.07016926192623399 0.3894131141607745
Ni 3.9495957086997584 2.642404444303627 10.995208392595597 1.0149943949808327 1.4488701103303563 -1.160872103483975
P 7.256376657962779 0.7690173359963145 4.768392552837509 1.966661490657929 -0.010917932464084424 0.3270312094894432
Ni 1.8391806938541724 4.142138476294238 9.90546589310817 -0.24619881142240824 2.0286299619409256 1.5609141581135053
P 6.460429880604052 0.7997699727873882 0.1963065591611766 -0.10772716557534995 0.26168585131441385 0.04739417301324741
Ni 7.188192162650927 5.192565829199525 7.799909928534262 2.0155340479889157 1.527722501852885 -0.4242492480033532
P 3.119965085236117 8.412969850423872 8.358481658036355 -0.41294333607223077 -0.19322328766664143 0.03431394279052155
P 3.5700978492768938 6.235632672333193 4.96795518618265 1.6746165674356839 0.35373365848129407 -0.7338203530348202
P 6.6232428716556715 5.710493250708007 13.621202520031355 -0.1818052756376869 -0.05481669072956366 0.18763756604874782
Ni 6.502727286693912 2.6248803050239133 12.195626784221465 -0.5912760797802848 -1.0832494706034894 -0.5697214935379608
Ni 5.855318009808309 2.531931824755348 4.824525489653185 2.0353371987577717 0.5494460311183763 -0.8883747633763539
Ni 3.0272208057430565 2.722748167611466 2.1373574508028024 0.2535308263074472 2.1362432276462306 -1.4630710844210868
Ni 5.241100640795723 9.188143839801667 8.087096042834 -0.1611544321565547 -0.8061467705133729 -0.2033981713171142
Ni 9.274947733098214 0.6739405267357798 3.3192065664525083 0.5099767693791605 3.0103661090892606 0.6712019068726505
Ni 4.04804832805353 5.7095557835113695 0.996385617667852 0.7261265839349881 0.12841940381737885 -0.14362825034733329
Ni 4.720314408430168 7.457532985542202 9.949113808872392 0.8018460862554899 1.7203325814155597 -0.3664135679418077
Ni 8.960042291708996 1.346602014068623 6.62185245001155 0.38696876638534006 -0.6018530839651829 -0.6801431752263383
Ni 1.5371770287355075 7.49941270822762 4.918858822453812 -0.40254476644672604 -0.02320626291313423 0.022377082143619526
Ni 0.38345100079957495 8.00100406769569 2.32875576586911 -1.247558903449258 -0.8082710159452272 0.17845384266695072
Ni 2.8946759387333585 5.568369510956432 12.241829066050189 -1.0734132012393578 -0.14944845657353617 0.8619731334543735
Ni 7.802019693819368 4.3446499544747414 11.256840636211553 -0.35405504637645474 1.3912285485574878 1.043556008668609
Ni 5.027998567849249 7.054143635385238 12.539760782068214 1.3726955227503068 -3.4959767909192307 -0.11957583738381988
Ni 7.0727444696630695 3.260334554689034 6.941138926220694 0.11975221506068409 -2.6454370961127793 -1.9561410507425794
Ni 6.564414484603328 3.205887202456619 9.387662848435676 -1.0596788823724008 1.090263440027477 0.8001573856991574
Ni 5.040640452223703 2.2261968545569983 7.744904736910581 0.6280004317845119 1.1723016854771553 -0.4644031945144196
Ni 0.9295869030734059 8.560996848958231 7.554050338455391 0.3959180051588278 -0.2763933327279175 -0.6622567818642208
Ni 7.575811643826837 8.53836769029089 6.668625565826345 -0.3838785574957905 0.8074667748763772 -0.29603476110792887
Ni 7.376307486158319 8.092226123225895 0.32689945239411383 0.11562096650112991 -0.8533177717722208 -0.8602651496243314
Ni 4.966246396965809 8.366913293694031 0.9456324431013936 0.579333305596112 -1.39062536775585 0.8712717851474802
Ni 3.22719833793661 8.268228628004458 12.96791690173792 -2.235967320411446 -0.17148795287207885 -0.4354456309398049
Ni 0.2615078667799667 5.604243874471312 4.237302534977034 -0.35672796522292755 0.0006283776126182726 -0.8433935706799732
Ni 1.9705560473314314 2.7821891569903245 12.67912873953581 -0.6444164112486902 -0.10440581451160084 -0.0070857032021877965
Ni 3.2959954355749765 1.2966099514835927 8.8196904577776 -0.09292378201393028 0.7849562524786868 -0.023438690638914475
Ni 1.239749317358844 1.7110725527849955 1.680958507510047 -0.9739968695225483 0.2761513919204405 -1.555818488758153
P 0.5232654154172556 5.827323939857242 2.1230123463235664 -1.2799951696010923 -1.8451514123658739 0.15969018890620237
Ni 7.456214962354851 0.3864508958288141 11.803457338493164 -0.3444164948454262 -0.5683269271832793 -0.3221324866362452
P 0.4101576776796172 1.7137828539871545 8.835679378499654 -0.19729822906696345 -1.3835095826466752 -1.4818234253279252
Ni 6.206042123591813 7.165033938337958 5.226856708518897 -0.25803025683969755 0.8369640130045456 -0.7868329006761094
P 1.3030422759120044 8.055562802169291 11.697386173842364 0.057041209184708216 -0.41276001641683113 1.0957082651921324
P 1.8553589643862385 1.3232024615664204 4.754943147214465 -0.14369252792636542 0.27471491658423014 -0.6306180719130172
P 6.968481410060832 8.438327874000237 9.86596046853067 -0.4050657330963669 -0.05514862014768567 -0.029204646588414217
Ni 4.101539649382444 3.4672085039826017 13.500568127345668 -0.3855608302942198 -0.6694381301040083 0.8939627989870926
Ni 4.08587188078914 5.383697755072332 10.2737122898007 0.5596821070240877 -2.009622053379855 -1.768314508611477
Ni 6.957287494821777 1.0406164338276078 2.60105193089315 -0.8296294270163455 -0.11181444827084615 -0.5617521021792389
Ni 2.3800157296329583 0.05858891523379649 2.8725739893409576 0.39827699230930763 -0.3559607480395999 0.5453039839255447
Ni 1.3708554970865736 8.895951093760681 0.4834889607195414 -0.5870149905110859 1.7933467689897566 -1.0383646942756568
Ni 2.1634422435028973 5.1300803918949525 5.911903901071469 -0.4340209826781364 -0.807480401723132 -0.2128184361897496
Ni 8.692028773858505 0.8672082070833026 0.600633376514779 -1.6465051539114484 -0.4871212049372256 0.8738405743159209
Ni 8.550137080442731 8.246119253129311 4.379468971254396 -1.765172877658702 -1.9004648402261977 1.3585413427371118
Ni 8.44544705558262 2.785827643535689 2.1723658173924716 0.37861216689052857 0.4547417601652556 -0.3163619027010552
Ni 3.4552070674949587 6.288659900990504 7.77248205164255 0.48441306197744316 0.22530268469968942 -0.05128836586133103
Ni 1.9125073359673805 6.894792775663774 1.0769437517899716 1.5767678373163103 -1.6805869260865056 -2.3178708400554724
Ni 5.289960317262042 4.547319224163589 5.68454675762405 -2.785843239978389 1.162701957603862 1.6544514053417183
Ni 6.566902021323117 3.449888565478393 0.7769477515686595 -0.7147841623389755 0.6557228374004449 1.0082262230190637
Ni 1.265942707744094 3.1164936720525294 6.904296465392853 -0.034796795964211036 -0.9155826912497136 -0.06705925554234257
Ni 3.60138697719634 8.425064105445836 4.975956143841079 -0.09626107391727938 -0.5994293050150385 -0.27851783527008805
Ni 8.816117872391604 3.6475085069002047 8.73828953136385 0.5310893829880595 0.7995534335665713 -1.1327869152119845
Ni 5.2295818606865465 4.6971097748500386 12.034863226407644 1.905019549476416 0.28956509422318516 0.48123260736693246
Ni 1.733478946969968 4.2566208565251635 0.9155954372099311 -0.7399411212205772 1.232507408432774 0.26420244708868046
Ni 8.679173406855114 3.0090098093093713 4.655664442905242 -2.162349180704663 -1.1221615742876545 1.2949746737290602
Ni 4.143484345041886 1.5220104802275352 3.520589371255674 0.32731994437445566 -1.9744354781763929 2.379718983710521
Ni 1.781456847360243 2.0458504423722346 10.402457166015315 -0.971406483087553 -1.834152747262525 0.43636582876122915
Ni 2.9265126960052963 0.7427172042965962 6.551794876677111 -1.0974519873561164 -2.1812192781362887 1.095142108276017
Ni 8.885017070417724 2.9417906267544534 13.212879864775255 -0.1262437363222987 1.0702196340027246 -0.4078055006250332
Ni 3.079013547893905 4.267202169437702 3.754494862299405 3.223615205058526 1.8613300790082652 1.0870894131748696
Ni 5.09826219832988 -0.1721969448714224 12.041478403348668 1.2770597411218523 2.4218385385883905 -0.021021082336357345
P 5.2404416292020475 4.6900741299485444 8.333078153378175 -1.7789095105185042 -0.12056339810806978 0.23173892724333642
Ni 5.789658178629976 6.932857656588618 7.437993755882391 -0.4602467491438848 0.22675278688265466 0.5720246877498406
P 8.942156160145434 4.434275531214632 6.348332936705165 0.6227769786020436 -0.0007165664510503788 0.5075095387855905
Ni 3.7974568490949996 2.5077247510045573 5.787343284384022 -0.9141367028318063 2.285734107421928 -1.1489450130290857
P 5.19621359759832 3.1547534718994465 2.741085397251827 0.590180789833577 1.49800851972822 -0.9002717719242559
P 0.7156002694948572 4.628498314280313 11.96632694885072 0.050451728892648595 -0.3275580285271907 -0.0012284730904624003
P 3.568649880141494 1.360654740164749 12.529422653715592 -0.18741079474992237 -1.1480086172577455 1.0234055018626633
Ni 5.372141847549428 0.3542781354626366 5.52516805234229 0.04968631148153378 0.12477306531404318 1.6837558107327908
