# total energy = -381180.8971850234 ev
CRYSTAL
PRIMVEC
9.10791816599172 0.00000000000000 0.00000000000000

0.00000000000000 9.10791816599172 0.00000000000000

0.00000000000000 0.00000000000000 13.33035887841485

PRIMCOORD
 96 1
Ni 7.307455802599188 3.172761512250155 10.553618027425198 0.14064577068024164 -0.48338410649229646 0.06570531261760942
Ni 2.347638773064531 3.0305140461861653 12.065694565491416 0.30548176545344163 -0.12709991367500692 -0.7678733288544711
Ni 4.629828046120364 2.369771014230845 3.087404835485404 0.18686417821783302 1.0858545123265042 -1.2660333081043615
Ni 8.805799421640483 1.3186079617672022 9.175739377339516 -0.1861578961794278 0.5939333148974739 1.125509664824281
Ni 7.725236009306526 0.415544212795268 0.7952770021165316 -0.11067313557755133 0.46096665802904485 0.04417618029658198
Ni 8.340703580011745 7.6833486936176865 6.017697171652685 0.3843896928042541 0.6301465315932374 1.1465011794742834
Ni 1.3122233111262205 7.216886664262634 3.784901960445886 0.9251158275511292 -0.20729030728266878 0.07624529291698481
Ni 2.2769795438594835 6.4285052669967255 1.6126270439312371 0.4253031431891643 -0.05673216258472165 -0.8150047351246351
Ni 3.6748901491802237 7.2084071924413005 7.668635762597084 0.02772831915320386 -0.37611331172807483 -0.3827884097554053
Ni 6.4056443923763755 6.200971255137935 6.824610450030156 0.6917473351241699 -1.5148705855908813 0.018871382983206206
Ni 5.827218724890663 4.890387369283293 3.5666307013715164 -1.2418834503310352 -1.10302973855421 0.6484047064724768
Ni 2.752850052689765 0.9948214706303838 4.0106253181714 -0.3917479329415382 0.608821544863216 0.892502155281166
Ni 6.6196440378264665 5.5211744583595985 9.842656667025965 0.14692928969610825 -0.22133547252182525 -0.4721237030871288
Ni 6.308362718344524 7.233080542778562 4.303599722120712 0.025598931515026877 0.4988657470676634 0.2515927287444699
Ni 5.517540399007599 8.194157176568948 6.261082604304008 -0.2589386275865799 0.5511087635327799 0.4202221291218311
Ni 4.3186833454110545 7.612197636831166 0.4676861335578327 1.7991140104908372 0.8464683529505551 0.35667911426286314
Ni 5.5002717861469685 3.827320267764353 6.442655328674086 -0.665612328600015 -0.3484117320477484 0.2421287551180927
Ni 1.7737397409120115 6.540268530927524 6.3040737996757095 -0.5663317511301215 1.9626827085158394 -2.3898398741946068
Ni 8.088295843615834 4.6772620839780465 0.6265482639574561 0.9201674824069184 1.5041850808525772 0.48118915572350685
Ni 1.4273018572728786 0.4190835497982432 11.062438251838762 1.2055866727825302 1.4280647435492309 -1.4695667194477595
Ni 1.7633293904374858 3.466746895116941 2.870586289360016 0.6680906149371784 -0.014184004809865893 1.2669085116204635
Ni 6.222183596568531 5.0556778683311405 12.033528130871224 -0.33956893694513773 -0.6433946548523951 0.579779134884279
Ni 2.611932342679389 4.434727330884309 6.62560152710502 1.5518433061604886 -0.31096335739330316 1.2615004532310146
Ni 7.39775170339048 7.920537098742441 10.683469616852417 1.7963413328417062 -2.527495451898273 0.30656265722244624
P 1.2320463074278403 2.5548348036375685 10.089602384892068 -0.39667545215014266 -1.1469855753098699 0.672370473259455
Ni -0.2684158133810612 2.593106275810759 1.8615309642050577 1.7781523206375054 -0.7903013188406841 -2.303466748815001
P 1.0276281918983112 -0.1048585511619994 4.992659271683468 -0.11705949871986937 0.9139886072897162 1.161836267169457
Ni 0.4606302293473209 3.2184012902272747 7.706733273533124 1.7418704554873354 1.0549228557446542 0.2090772239797625
P 3.832584644469756 4.7009608870705355 2.1588380048304256 0.574846473469352 -0.4295344076616925 -0.7124768543620374
P 4.436986094591818 5.6991522874258305 5.9706675253619945 -0.753602934978386 0.4200861177645991 -0.23046803095071275
P 8.322587930760799 5.919527475598727 11.368676517026962 -0.8009333446332335 0.3357961001662668 0.4867669069216004
Ni 1.4958844811339262 5.715382597614462 8.342031514481723 -0.06974760100778311 -0.018233749399207307 0.8598853976874093
Ni 0.6842350853052275 8.324719183613851 8.280845430970949 1.3331756102788137 -0.2818255594870824 -0.17152471964728525
Ni 4.791839694625055 1.2699079232831356 5.782616338793726 -0.9362474186879166 0.9196224085367259 -0.10522496797878653
Ni 7.352048169986132 1.309035539764817 2.9622593073794334 -1.3621475720311316 0.25563527424495974 0.6871939114255327
Ni 4.315668624494984 0.3290745484294778 10.383842789467764 -0.5105292994485208 0.6225648625912376 1.2987837630625052
Ni 8.132314412157724 5.689643620850674 4.749913214888061 -0.8323216291365279 1.2904629019016356 0.42182212661909935
Ni 1.027974292788978 5.9132521199758505 12.616344725709315 -0.3078546365609924 0.5299349576686422 -0.323817587648152
Ni 7.405384138821496 6.273543147159825 2.5291158642937672 1.58186967731925 0.28941031381287574 -0.8902696664062216
Ni 6.042466155130788 -0.11488272590588638 12.226524917008753 -1.437667813856634 1.2313388420459697 0.17292828486303122
Ni 7.063755235978995 0.5385776146763538 5.28090211214064 0.8318130649312255 0.8730221921796836 0.11879010825773088
Ni 7.7188058190746665 3.3344725994550557 5.8711434818753485 2.061153645600244 -0.13079124648366508 0.39149930726584187
Ni 8.546852199994607 8.461720488808787 3.6729538057761255 -2.2965813345490766 -0.10892992763419951 -0.06590688710545424
Ni 8.985116114678505 1.1548384850546527 6.913217742791722 -0.07508212584681907 -1.290812057710938 -2.021094829906145
Ni 8.226963897836875 0.9915699438417523 11.625552598079745 -1.7084250313446965 2.564140356814816 -0.6937080583949665
Ni 8.072493605581448 3.8285589446362125 3.4856084828664553 -0.4549114529739004 0.2984513409692215 -0.13299236790004193
Ni 4.861834045803295 7.0172228820206834 10.766543849322403 -0.0846358309735252 -0.17488026638307946 0.5736424258589218
Ni 0.0777971046791382 8.49895365830998 12.595349152731295 1.4066590241799453 -2.7006304534554713 -0.16048517400367202
Ni 4.498719563984936 3.4733137041214315 0.3399894775709226 -0.7592945860465247 -0.49989804498691964 0.4059885020209524
Ni 2.412887898873368 1.0578664802407651 8.591176794587193 -0.8684109186599174 0.8535319446655559 0.6022356641155822
Ni 3.7335997897390967 7.5064182751416295 4.839693607510624 -0.1875365216945093 1.1255433462756939 1.5034677430705785
Ni 6.458743555339179 1.6999291720182623 7.533185535867424 2.745153218458195 0.024945614201744133 -1.1207760067940375
Ni 5.351166057696874 2.2396461872583635 11.661011545120358 -0.331221593421707 0.17927916678172348 0.18249304573333086
Ni 1.879482670928846 2.333995111637725 5.770645801935749 -1.146768059982425 -1.4123586456678838 2.3585978854611893
Ni 0.06480557019369353 7.476480548098965 1.2756777894472757 -0.00806555061695385 -1.1409668799196158 0.9671502789143602
Ni 2.709122937529487 5.609648775515803 10.385282751331301 1.1999983800614753 0.6131481972630278 0.9041543948081138
P 4.025007631762233 4.112935473827911 11.231027638849751 1.4788422312124143 0.09814312143134066 -0.10836865581409078
Ni 4.703802557541272 5.063173684989526 8.398966021788203 -0.16361626343348595 0.3170291039714088 0.12578787973180272
P 3.09840446826588 7.9824162948263675 9.563506261283331 -1.638770761381668 -0.7703493011987894 0.535419377821981
Ni 7.151218574217726 7.23222439847007 13.133082463392785 0.4723594732470187 -1.015493188994122 0.23992891925329649
P 0.6018002286911562 5.489032615118479 2.6423436814671764 -1.2710682994251077 -1.1391712214717735 -0.05079857070910607
P 7.105050536986431 2.6959528878478043 12.891123330727737 0.0579377528570486 -0.32867645840235005 0.4219375691510411
P 4.002256052159989 2.4678359692257854 7.4987667130824445 -1.1550452123895527 0.927130801098629 0.1975985339162016
Ni 6.530878267288648 0.6273379204632666 9.846175966608953 -0.2034531929247657 1.9274318557333447 -0.2675901326139908
Ni 2.720863044057627 1.8962230245353007 1.4091525087246835 0.257521178413763 0.6480120990197485 0.8035080473389452
Ni 6.5358785143669635 3.31294148088832 1.6197722057398682 -0.6177031636235619 -0.9210354868341686 0.05602459499473577
Ni 3.6089032819991758 3.2084554435796964 4.952108087590966 1.4630284041086095 1.57745123653658 -1.2909164444992864
Ni 2.6300935315212124 -0.05713943546542742 6.480633525882027 -0.30622944225274357 0.13225960349907542 -0.5069192134997592
Ni 3.2331379018351334 8.765970495459293 2.3290003293103148 0.7991045189546109 0.03354106918023901 -0.8561542127797513
Ni 2.70813928236654 3.699618147026538 9.103808682757176 0.8913194478269746 -1.0399302389905638 -0.5380480736940798
Ni 4.343511530357298 6.881851894179149 2.787231533010225 2.4197675149919746 -0.7780708382127632 -1.1001133362383635
Ni 2.949453574424768 5.539991417310054 3.9902299570011412 -0.10096979224685837 -2.3017361392771396 0.8978263957075571
Ni 4.6781546599592385 0.4821704558322316 8.015904288373816 -1.5228093808219838 -1.0461379104631725 0.9464050759472089
Ni 5.8911472025640625 7.677191740931091 8.704857275293922 -0.549709312082092 -1.2986104707094346 -0.07529578451952193
Ni 7.493102498769139 3.86406160968407 8.212060611326407 -1.2796521844393767 0.9843890113901498 0.42163160787484805
Ni 2.8656242955380375 7.7787723523417505 12.106099112101294 -1.037159361113646 -0.5416609878563188 -1.2854528502815539
Ni 8.302277273229572 6.433086549838971 8.513967150630371 -0.27439404290970165 0.17885853430453713 -0.1592528442584677
Ni 0.8803240096633185 1.5964814373816383 13.209038857808668 -0.0007273650843277796 -0.5819038945367655 0.862144111814599
Ni 0.936157369662388 4.407858972266767 4.907864553470141 0.33188596647858326 -0.1755459249915364 0.37248959893255845
Ni 1.0255789103088377 7.155189626542216 10.484593669532641 -0.9489892917346173 0.6519793111976125 -0.5000214579386615
Ni 0.2604254367657495 1.9808173685487682 4.290416010561765 -0.6114702953399728 -1.2105039075784896 -0.532927721748379
Ni 3.6502623384338397 5.61023168227903 12.908079541994947 -0.4503613717093728 -0.7471846901568681 -0.7480940893450149
Ni 1.6530598250874586 4.189633252783274 0.6925843138966514 -0.1712645240073631 -0.5005346501296541 0.2075733857407264
Ni 5.204018531654499 0.24077510330224214 3.7899677845350648 0.20231625110684512 -1.5276417692136208 -1.2651077109662987
Ni 1.027482465207504 0.35908604960936336 2.3044453819093342 -1.0928718241846018 1.6411274345393025 0.4840862747656438
Ni 5.8672389173535375 5.583445294925068 0.9617369578581055 -1.9194519228516618 -0.1418657591302718 0.7193059614687289
Ni 5.325290462160455 0.8967574264272611 1.1607477023668769 -0.3247298150497762 0.17995382425124493 0.11665737818544424
Ni 9.006601693654362 3.54868172702318 12.2205000291357 0.584989989661257 -0.45677653120709716 -0.270637661191063
P 6.1785020209991295 8.069642827192537 1.8314183651334248 -0.005578522529042005 -0.15549774809140962 0.19376244799956305
Ni 5.403491047614764 2.6679915790492092 9.263933170615916 -1.6436394023278789 1.2252535550838384 0.37198309160978515
P 9.04034653049436 5.374500544062347 6.691173984009086 -0.3566184362282568 -0.4366350232622158 0.7616031795750431
Ni 3.4034741875521735 0.8810927179573254 12.874367493660383 0.6711792811648313 -0.24097098736456565 -1.1482909243848547
P 1.9185283161469482 8.590032840064357 0.6019231855865247 0.26015758759534546 -0.12111489973616563 -1.1069915514154354
P 7.6569994863361455 8.650345474222107 8.289150030763313 1.026182293276852 0.44431285152244776 -1.1012572200348196
P 6.214833506600952 2.6376075640159486 4.625767736197755 -0.5931653263831977 -0.5140501681175856 -1.5018623462566716
Ni 0.26875462793718746 4.515733155136654 10.074498724181737 0.07385082454287926 0.5177548706626826 -0.9892931335599864
