# total energy = -340860.3089189276 ev
CRYSTAL
PRIMVEC
9.31596327988005 0.00000000000000 0.00000000000000

0.00000000000000 9.31596327988005 0.00000000000000

0.00000000000000 0.00000000000000 13.63485393210621

PRIMCOORD
 96 1
Ni 7.433309462245922 7.3999676301802175 1.043257447809432 -0.5752177407658415 0.2117848527189127 -0.7688431489669082
Ni 1.0330564681749124 1.4954077186417751 9.553901219421963 1.286231123208475 -0.4885707928995585 -1.01682090666661
Ni 4.877745138665016 0.5795013501015778 7.152190027041144 0.8893091022651652 0.9975708001877466 -0.5140864206721598
Ni 3.7512309283042575 6.94734224522791 0.043090055891787785 -0.25806213851889753 -1.0385621549984438 1.4596193784270604
Ni 7.026332296662698 4.848446434600574 1.1406334840905106 0.20696814805655966 0.610714905231187 -0.6027288017019168
Ni 8.187390098333776 6.324160207171687 3.029568912335275 -0.31384299293394335 -1.113912961125617 0.0528161153597671
Ni 0.4527735087661783 8.496046588973876 9.005111804992643 0.03761961012498682 0.21902405077982925 -1.31158579992318
Ni 4.797143425607605 8.34893821508465 4.335283126398039 -0.8681967457665822 -0.23419124543857087 0.8991618266895289
Ni 5.58044823805481 1.199737680614024 10.701723832264948 1.0796093027477407 0.9942502204549457 -0.6629427521876518
Ni 9.531627683158792 2.3516565224481485 11.465548034197319 0.14619292575071596 -1.0572409623548693 0.07496308377045154
Ni 8.653709949096807 7.224669151839798 6.956734599262178 0.8777720481598431 0.03924711842608079 0.37595467466302346
Ni 6.6265470546208896 8.430555368123944 6.041576302561845 0.051570672988440217 0.9171574919360012 0.5261736908539971
Ni 3.9365813308690107 3.321699815967452 10.271476322362942 0.2301841811617068 0.558106792117168 1.1883476831964244
Ni 7.374507102928033 4.370276678727853 9.141037296732755 -2.361146362914656 1.089583383241317 -1.4482162787964412
Ni 8.417606179364142 3.304847238653437 13.101390170737295 -2.0159395109574505 0.7712612714900976 -0.7094349822119201
Ni 2.1096743799763216 4.142846070675313 8.372304513823739 0.3595124699466002 -0.1677904494158336 -0.07211970078438547
Ni 3.6286701172798357 7.665267628382823 9.471955212883948 0.3386320269531652 0.8058492938776121 1.6811366279423885
Ni 8.976126117289587 3.905764124813311 6.923915392728434 -0.34837239416938065 -0.31359642414077604 0.625366850816407
Ni 3.4687522940778575 4.639004951364708 12.176074679429185 0.9826987681719206 0.009611297837518932 1.3177343360230789
Ni 5.511808221664726 2.6884938015763042 7.813425911317537 0.04403579806397577 1.3744382164730264 0.6398761001761755
Ni 0.5585348434664634 4.608252957050964 2.169809853619051 0.028005484073990478 -0.24373338060105124 -0.6936239833215925
Ni 1.2198787929152402 4.252774435686577 13.619255245534847 0.8576212842435811 -0.5640218720500222 -0.4182020133680088
Ni 0.41746321368972145 1.6829194246542076 2.9322981464376396 1.367113143566523 0.4941750264602135 -0.02555213743749148
Ni 7.029797834949493 6.696090719435218 11.898455251574807 -2.1991658353123804 -1.8872642823755237 -1.1978743917399368
P 3.1469975592677732 6.778285462188978 5.074524364805686 2.5864927563680875 1.068933053980817 -1.1629744945389582
P 2.4084280018022706 5.632310204835972 1.4234381770266895 1.095259864800804 0.0039440722494125625 -0.4527846364388848
P 4.452527317260433 7.946367500065013 7.577038004709207 -0.025962485502032707 -1.3784383387713552 -0.24774275887076044
P 6.064216887772597 4.631459021224105 6.726837124171079 -0.6761186274479776 0.4376716920568463 1.0965510728084018
P 9.065792262478858 5.966883704921946 14.034354999376825 -1.0248260363592736 -0.27598658420780214 -0.7627097823756607
P 8.810590768316272 3.6817711071581574 3.656472677664549 -1.4061386329001009 -1.0944203996186441 1.8613645317906264
P 5.178259477523772 8.131839010150543 1.457675273149816 0.10427957334638169 0.8449380323489577 -1.0189086424335745
P 0.0874154084954818 -0.1033969432562294 6.460343751090683 0.09485082383331406 1.0122170893460114 -0.3254558945825234
Ni 1.3548391508744069 4.3401861177968035 11.21680809206624 3.698639883842533 -0.6783593438530382 -1.1276058852316775
Ni 8.580458530954134 7.926599026289259 12.511042244755835 2.3595335099015817 1.446845880811476 1.528327996647368
Ni 2.5940951471136664 -0.05342425379916016 8.202454942321888 -0.22118120633214813 1.954318909932176 -0.20179585982700088
Ni 4.061704031755983 3.496076013957352 5.5356412501569565 0.9722837434861835 -0.0529007046537734 0.33294166143660725
Ni 6.62854067073211 6.525794913299126 7.89128034684598 -1.664145749811347 -0.5650544270795945 0.38099866484483413
Ni 3.6055478967749246 5.3976131455369245 9.571203757755473 1.3888718753998532 0.28659829828537736 0.22655661171144853
Ni 6.667071494264872 8.759883980964043 2.9995454263388095 -0.6921396854665822 -0.43841319820856106 0.045294353061425215
Ni 8.829530121372873 5.466476745042286 5.330900601919794 -1.2162999454349763 0.637191868475793 -2.0171469010019902
Ni 4.24623462956472 5.807077673277607 7.0694940854706365 -0.7518990649134019 4.113765058057431e-05 0.6220624690335222
Ni 1.6920211206386149 6.651243672895878 10.019122718131197 -2.220883686605446 -0.7343795679723998 2.199348640747148
Ni 0.6451947273515712 2.0047207392799753 6.935641395528406 0.6029679142959163 -2.9232334798358104 1.4633400218117572
Ni 3.0109472336216303 0.033317610561549235 5.823268817208927 0.23939078736163932 0.5112348101559776 -0.39287073369207176
Ni 8.67283562141614 4.846927932609317 11.282623508433321 -3.0654057144629077 1.9597915030109734 0.6875278977261836
Ni 6.473523044139957 4.17289005179068 3.4811415934531524 -0.1646984407540712 1.4701971539429068 -0.8624187056322246
Ni 2.150375822919899 6.855934014932103 7.880632200980905 -0.4002145756516527 -0.6337674161752762 -2.178463826878339
Ni 3.525719408657847 0.3763574579460183 0.49579369493444186 0.826817411488847 0.42012237031917327 -0.1932628826553252
Ni 3.0938406736106314 7.577855946272596 2.7409324264756174 3.011768388753426 1.3693358622494547 -2.195544436509709
Ni 8.252154674059057 0.1196318722142911 10.517708407217661 -2.026155275148188 1.3405256228859816 0.22447761769523278
Ni 8.683716666359627 1.6333678167309105 5.033278869614936 0.32086930365310545 -1.148117632031784 -0.09928597678653224
Ni 6.317573821234148 3.3251094584754286 11.22587531898704 0.7708617220588337 1.7601872515186523 -0.01996153072359143
Ni 1.8016234269400986 5.367587796347832 5.6732305729132575 0.17587682596839388 -2.568252836321293 1.296323988668103
Ni 4.4210393618589015 4.744722501038251 1.385614435095992 0.5737766374439408 -0.9878633430919954 -1.176081978455194
Ni 5.3222563197253905 8.444175306229576 12.832905976334617 0.8787459820373381 0.783203017233006 -0.4270646059649613
Ni 7.277900565202032 3.4340316994679445 5.543399584257074 -0.2609389458460603 0.1429880456601731 -0.5449959657668227
P 5.891797042041372 5.4191330203823505 10.182549864646711 -1.045958961683147 0.5592175086828434 0.8152734154049895
P 0.3727838544868386 5.4095096304622965 8.059726002703153 0.26486167793923415 2.252288940389605 0.36026426051096017
P 3.8028041002281854 1.65428215397246 9.24418550377324 0.007628977300167507 -2.7594583222269575 -2.1371963355881194
P 8.638804408078332 7.23370563608225 10.325442765216648 0.3215380475853559 -0.9411793087718953 1.4705311402435577
P 2.4400556966508495 2.870723356490314 6.720373708946943 1.2911046492506926 0.16022626391533049 -1.46679661290179
P 7.415087438350834 2.247541318434091 9.514919503273394 0.12331473560096182 -0.8213653872353402 0.02808467405135808
P 6.451556003063978 1.4770832191521859 5.433475877227378 -0.8999179881292632 -1.613699420235337 0.4508604228329784
P 2.4954111496082163 2.130290606397502 12.782566237929968 -0.4466484416341598 0.4427596481027149 -0.29625767575201234
Ni 6.9950772403395804 1.9154551805055748 3.2863131299932755 -0.15941688064015772 -0.8477886144238754 0.7579676397049849
Ni 8.265653504643913 2.812740801928441 1.5358706729290565 -0.2841056137705107 0.12702380902143284 1.2596785695309274
Ni 1.4251467246659324 7.724442626226173 5.596194078948203 -2.3333280551508073 -0.4781596248685636 1.1828434655487434
Ni 2.267589271103942 2.68931360633232 4.038602306369972 -0.06253308553721489 -0.8298919366491126 0.6664286538537233
Ni 2.9418973148535383 2.6115812099209665 1.4763547108349078 -0.48066799311271413 1.4412439612436663 -0.9778321841082386
Ni 1.4982025075827394 6.367926601987189 3.3851527040831058 -2.716472048473418 -0.9660591027327105 2.0329748691731826
Ni 8.319378664052385 0.4298953664954444 1.7674180050916364 0.24607462713971812 -1.3983633598300562 -1.5791273386874223
Ni 8.560708689104652 8.30530224375306 4.352722609389656 0.6675496548320439 0.5098073336808318 1.0324894664418025
Ni 1.619263448542177 9.03572964943722 3.7547793786629686 -0.8692758377633738 1.1304150725456985 0.6593254671500387
Ni 1.79549352319625 8.29404856028411 0.17121436010135577 -2.509302325929014 0.0642076450261604 1.1335600459325832
Ni 4.680814993921534 2.1545586903682086 12.645358869662266 -0.28266451044860996 0.38920768301818776 0.8436745922555018
Ni 4.667278899484131 6.771205330205202 11.450414252081995 -0.5320255216490838 -0.6443832440179096 -0.9401385262122066
Ni 0.6971955019834669 1.4267118064728725 0.22118704955842503 0.3518667804758843 0.15586593006410576 0.008327803139405014
Ni 0.9966403682741473 9.341861514067315 11.621749719704127 1.0323223447363188 0.21701319099738756 0.13722800324794432
Ni 4.88062377127421 1.2215742982060918 2.4923555136994286 -0.2775089343895995 -0.03885425386303631 1.0117712600578446
Ni 3.4567160697054384 0.5629077565627589 11.213821394284663 -0.9799564295400931 -0.08007777928919757 0.017203765472796177
Ni 6.071008224899139 0.8184539413613993 0.6423831696769612 2.053081410115071 0.3464744058157194 -0.6586451532535624
Ni 5.263099953808313 6.435122644091107 2.7210391187938336 1.2673006048525592 0.13208862513884995 -0.665476574353099
Ni 5.673514709788923 8.580663482143137 9.824948235283506 0.1003738105340723 -1.79954415604972 0.19451475278455532
Ni 9.356953374348521 3.678901790512101 9.4307916981688 1.6065430116962138 -1.8517516912912109 -0.3951502737548679
Ni 3.1849042132703858 4.7620315605459576 3.478932778593477 -1.1092839469940379 2.377364110325099 0.22990264536554597
Ni 7.497244917252048 1.224369087147056 7.433368152813682 0.6814032728856846 -0.2973336824250105 0.030643178807153677
Ni 1.5924986864508757 6.362122756953119 12.437099582148429 -1.8601144614336094 -1.79122200933727 0.8366994464892492
Ni 5.055176972563705 5.69559354242254 4.841764094242729 -0.43957353706524943 -0.9789513853143463 0.8362916695278694
P 7.298563371438895 8.523491416374144 8.544267877361273 1.2256140237470505 0.41345909936638475 -0.9743413973461607
P 8.083330790098538 0.8144359664606061 12.907570626085105 0.03189684870859668 0.02848936568894448 0.3162719140904101
P 4.452890639822758 3.265450030548977 3.1820069487349194 1.9525669602380762 -1.8039463988824738 -0.18226627443450544
P 2.8100298566557056 0.827704692755991 2.503631555479906 -1.449940974797032 -0.7011146352716829 0.5284455176073092
P 0.3664909213881007 7.855797706451496 2.402829107957205 -1.2437801531331159 1.5883676263387678 -1.2778886647810508
P 6.817244820026021 6.783567613287401 4.705742648082309 1.310050594225576 0.8015306118976002 -0.8811113969457212
P 2.696421686205506 7.934191536245546 11.873939362984668 1.7038677509913172 1.0180596641697175 -1.2253414868119543
P 5.81384106251474 3.870475256452068 13.249273632759481 0.01610436176103033 0.5330441927215852 0.8591541759483396
