# total energy = -340895.2809720563 ev
CRYSTAL
PRIMVEC
9.02312674549616 0.00000000000000 0.00000000000000

0.00000000000000 9.02312674549616 0.00000000000000

0.00000000000000 0.00000000000000 13.20625806366883

PRIMCOORD
 96 1
Ni 6.409857643111966 1.707825203414911 11.336819483107256 -0.7454206562779099 0.7893854918946341 0.6117374329584303
Ni 4.582466990130024 0.3871814568241129 5.752302711565094 -0.5535808792223563 -0.5759736450952597 1.4247071399309077
Ni 2.895801018413452 1.9063791025713903 4.762149922474603 -0.5098764963558703 -0.6230747123481204 -0.1795699585492649
Ni 3.327855385753133 4.476355022209997 4.960257176868154 0.4499875333097218 0.3735956875125437 -0.5366977303137724
Ni 4.971535182710267 4.699451825511245 2.80665974685941 0.18491348224936538 0.2215784417705668 -0.15191954382184805
Ni 7.24414494463013 6.012515243509388 2.5198064338535606 0.018364875660432888 0.5241283782891941 0.4525115852831562
Ni 5.1032186911987765 4.629919612518751 11.608300997767138 -0.2314854164716336 -0.8981107597171952 -1.177015803123373
Ni 5.751548378187703 7.667085954180762 12.160995469042836 0.07773961807432418 1.1837040137768258 0.5756946804022602
Ni 1.9447003209180191 6.537724369080903 0.2588202635216707 -0.18759925661164467 0.4217560492678543 0.6758499471676231
Ni 2.5336036966211215 1.311908457803096 0.4119770085115478 0.2622093279180516 1.3397496639519055 0.777184578953068
Ni 0.7217923738951934 9.155495789916142 4.854897737700212 -0.6851627399281167 -0.07818416181091052 0.3922426131897696
Ni 8.793875948221336 2.279738031873676 1.3875285742612056 -0.37361599922751787 0.47346350494447487 0.6110293511478122
Ni 6.709326189310756 0.7658243290187428 4.716337704487906 0.6995732589264919 -0.3102223654622206 -0.02459054485517055
Ni 0.6583327250532248 7.408780911183602 2.5997179492863958 0.19260802268014568 0.3838366485142615 -0.9876149745266153
Ni 7.614048016473796 3.8257244379574984 3.8919767444585864 0.3226937584563539 -0.2890992103303602 -0.5258368763398685
Ni 7.689833256147292 3.71179844246785 12.66227887232381 -0.20671463728485692 -0.09612326278783445 -0.09723757889793577
Ni 7.992974214841273 8.791169010264191 6.722804033399374 -0.309933373466892 0.6667865514137743 0.5057383058177807
Ni 6.850574211914506 0.7666797214132 0.4545643610786348 -0.02027289131642315 -0.17225568427603882 -1.0320518646837515
Ni 1.8079728847026986 6.309213689865369 9.045559820975324 0.6926104544554136 0.9130779225499888 1.819287143004602
Ni 9.206115529714726 4.913814242337441 1.3940522947379217 -0.14438261201485458 -0.9442507486083673 -0.16875538443226418
Ni 6.239870962529875 1.9615194287584043 7.027987827938348 0.30081161367128195 -0.10577107029024364 -0.4910459939129284
Ni 3.568285615106623 4.361210904639635 0.46557347775033764 -0.825173705237837 0.7228844228486067 0.27848981024563
Ni 5.764992836708182 5.53840408344222 4.928905421448517 0.3009252564310108 0.7459616163830444 0.22618791551812012
Ni 5.212669215932613 2.69832989443983 9.340878631285811 0.1454064252936786 0.6328497894570134 0.6829091680072498
P 0.2819275882365004 5.422763693913048 12.441153622168015 -0.2279136399599752 0.2466364131804591 -0.2443152212464502
P 4.075304117606134 6.339937435678948 12.587135176946159 -0.8329492354181978 -1.5083286707073056 -0.5998825905023734
P 2.3153793816427326 8.346175479489364 1.5189305612021726 1.257614745023363 0.23007388083608762 -0.47904639834889107
P 6.310034794379035 7.752625193626499 5.749225825420473 -0.8841666388322773 0.03478753999283041 -0.2521869106850431
P 4.527985352179249 1.150836626226531 12.531589712378226 1.0897980703552843 -0.409040915694031 -0.4293117501279251
P 3.890131515084467 5.9513564919309925 8.265519556118315 0.5620758040672449 0.5077401667391578 -1.8878972879738323
P 4.74261846280116 1.0624370556727467 3.693024023109755 -0.3288824037655691 -0.14089876723131217 -0.8515467959147269
P 0.1684960600803572 5.539234211082411 3.4972023266646857 0.04553295143479255 -0.1127349032025865 1.2718617418606806
Ni 1.4242193136449819 0.9789189965683446 2.747760386162576 0.012846002724732715 1.1689769919792965 -0.7606266745943867
Ni 1.6681956317223294 6.78330680367949 4.694916802120376 0.7983606988100509 -0.848075806646991 0.6114939494890566
Ni 6.173415635682002 5.680698788722732 9.159583266231428 0.0972496630827938 -0.5466666686010263 1.2512643773253032
Ni 8.523849863869742 2.106737627032632 10.101598577630035 0.500824413455931 0.714613441089066 -0.19776051341536263
Ni 2.0618114800705727 5.361731266105985 6.89740423857309 2.134026936721202 -0.37947142956703034 0.6130327547310861
Ni 0.6276937966289694 8.83538233023087 9.071854113978363 1.0622481857614738 1.8105147961286112 -0.2081333720092544
Ni 1.5385062341955822 1.1239206398060007 11.376015944726692 -1.2595908949131276 -0.5102565054031083 0.6254295857335422
Ni 4.132483670387529 6.61429462076197 1.5049456174029168 0.5207088110846839 1.2851016375897224 0.6305769342624366
Ni 5.541399761448126 7.730581695528826 7.985203498278967 -0.21938374811209313 0.7427035144570628 -0.06753053875180627
Ni 5.219084658891044 2.885541723555878 4.895163439812723 0.05811027387917089 0.5023915008327346 -0.28673379542197713
Ni 0.6827447938633977 7.264871066255327 6.928689222856451 0.1384572476693551 0.7742882312418794 -0.24769442213132825
Ni 5.360738722188365 4.327049347620483 7.465722253424768 -1.3167992258033192 0.6342237869864045 -0.8227368136615701
Ni 8.338668238221553 7.082721211119137 9.104671225145466 -0.916075828836048 -0.08262240008792222 0.5476555148768568
Ni 4.617936900495129 0.14930928384012374 10.247792175881486 -0.4164302661795667 -0.1359455369910949 0.5267858705166992
Ni 8.12870008401245 7.452949115517661 4.539888660689461 -0.5627969985039856 -0.9608405346462484 0.16489692991812246
Ni 7.228706375147889 6.242776409270543 7.022850059695688 0.4858971027221373 -1.156361617208131 -0.7772365152369259
Ni 2.3636440854186023 5.341366069541742 2.5858773755115205 -0.3587300832546209 -0.15432841037365677 0.09719772679893582
Ni 2.2387459680759987 5.1807002786587475 11.445929835971144 0.9131447712321822 0.3847717587340212 -0.05222321897077458
Ni 1.3067111369253805 3.4290046340850635 3.6878736224899633 -1.438177920723833 0.08477852719897658 0.37617501820394567
Ni 3.891918094136182 2.6984381719581156 2.394175638637224 -0.6881634744276536 -0.734170280175071 0.1371809520600928
Ni 1.0525206396230775 3.3536976201173303 8.240281871231213 -0.21566619005118984 0.29073546038220255 -0.11965939823656167
Ni 3.653842900805407 2.737706818589745 6.977843606907568 -0.31502055818181235 0.11324629562136625 0.4709057715196277
Ni 4.051455994203699 7.027770370589124 6.212910762789377 -0.28061019902274253 -1.1539812899014126 -1.0539088126578429
Ni 0.6282929322301505 7.319921161177102 11.256288078882234 1.3135943457127763 -0.6322918600710143 -0.17289511763225063
P 0.08492115527885497 5.464062544012535 8.049716145986265 0.2148760900497267 -0.8880806291747029 -0.9197352799655063
P 8.365548132135988 1.5435411387958693 7.930173254235544 0.5114363846438225 0.279473514315138 0.2981736618278026
P 1.6559151565234216 3.2270941318617266 10.339007864223351 0.4763433975954312 -0.34086014495273553 0.9510646862064073
P 3.7932050899656806 6.4334801883513055 3.8999667229954222 0.5203473139802071 -0.8168279043763029 0.019889539835075423
P 6.907040937700521 3.864199049455032 10.500229479700211 -0.23117739831291154 0.13490089777666445 -0.76913856872014
P 6.533438383982093 7.728704885211873 9.9984579252743 -1.3370482058603426 -0.15609501535577633 1.2134879299074777
P 2.384397276423369 8.564408817594275 5.968977755719345 0.736259558603932 0.15691185483011685 0.4121830608674385
P 6.81694501936026 4.018232842343023 1.7456293966117253 0.36375890392778 -1.1049709214409809 -0.46693727379018285
Ni 5.35473834305003 2.8872200250893068 0.2929637742877746 0.5558902440818233 -0.04166884049369597 0.1349867726222514
Ni 1.440424848881748 1.3543171524650117 6.929785532729094 0.158659690759159 -0.7999203299876869 0.5684752798356855
Ni 6.662297653868649 0.6839710367579837 9.038151834099272 0.8579372728221031 -0.3914663971453774 0.23766969090547452
Ni 2.721347890202074 1.6113318883692673 9.42467189574919 0.668467538660623 -0.3118033367960953 -1.6475474791330333
Ni 6.302383183086843 1.9785370453823135 2.5139693733053066 0.9212792274138585 0.4672897720335952 0.08387324177588781
Ni 4.192252860481259 6.618066287648924 10.298834198001384 -0.40555115737321773 1.1332890516593837 0.5338746590426805
Ni 8.186980458229751 7.084724345207424 0.01086113739671229 -0.27869755538106195 0.926117015122134 1.7056685516454817
Ni 7.601487824352651 3.845936241370837 8.150968257960567 0.4763986763133989 -0.6173858894934594 0.43973603078504264
Ni 3.279446311952883 8.41201723373362 12.379493184754894 -0.27457967655794646 -0.6637966155475148 -0.22081045325629065
Ni 0.12117878458948801 4.775778452776169 10.281692062231448 -1.1092134987674187 -0.5689216233444847 -0.3870440997079657
Ni 8.52573569731322 2.4581342663759593 5.876032334022864 0.2499171408142599 -0.25738696682874385 -0.3910107976651976
Ni 3.4135209489702025 2.8606559406032046 11.725717138596197 0.1988797146214704 -0.2734602182415226 -0.49737193613095637
Ni 1.1134086974057598 3.36311776420819 12.673306035248562 0.05083045238830601 -0.608095722440785 0.08169885983238832
Ni 3.1467431901671823 8.37047475921799 8.071664901255437 -0.8446181871156937 -0.0018496516142290725 0.5058843444773417
Ni 5.6315317722944815 7.763931171160834 3.384856280629357 -0.47832288991930527 0.20825395674751876 0.7592655325808021
Ni 3.0483911110576334 8.580343659035329 3.695335748125155 1.271634970561855 -0.4520462156109634 0.044875520356451745
Ni 3.4640775268831203 4.3082361288183355 9.524709494893388 0.060089509092728775 -0.7285369931486937 -0.28820395220960043
Ni 7.245507436735226 6.010692571951579 11.431640812808036 0.5390263784469491 -0.9710185036205148 -1.5031512402714242
Ni 0.4826560608852181 0.0016106280845004102 0.5803792280760574 -0.619450742442288 -0.13362511638803437 -1.0533033178633602
Ni 4.5840099447655955 0.14869480892385215 1.403732304872667 -0.2445342792357917 0.02720792787335959 0.44749767700833254
Ni 6.130609923453037 5.458125326759866 0.3309484300150653 -0.4226366521005947 1.253333601149506 0.7277746610613723
Ni 7.967204165489267 -0.1759040469564067 11.325316801414699 -0.20587980008838735 -0.10070059774587173 -0.2405914925379598
Ni 0.19695139188585017 4.914915063773347 5.685795952896034 -1.9584571004702656 0.07773576141958224 -0.8108367197898746
Ni 7.834916107523662 8.89138887656417 2.4604450890787075 0.3386230280921007 0.06992860667033764 0.6346179371010296
P 8.53811542690389 1.5149107583358146 3.699442173006142 -0.45921650810715753 1.6162970057591841 -0.33868396323702316
P 1.92164623264968 3.2404754284965396 1.6228643463793513 -0.0614190265374297 -0.3128194367654355 -0.8281600415596705
P 4.514441639267006 1.0595677014381746 8.125942616546775 0.6266801703111917 -0.3279943447336609 -0.2715817702718871
P 8.513247690204263 1.6281149037035574 12.386281282838759 0.26344602853863014 -0.0678177309749219 0.7141668404699507
P 6.455397362677644 7.741860603683591 1.294093196794482 -0.9492710846410941 -0.5280557383680583 -0.6207776887838278
P 1.7166678674082467 3.392009815337435 6.012822029811199 0.5040431775035448 -1.1514420684193265 -0.3290670089725494
P 6.87067773780956 3.9108666598361865 5.975593512086603 -0.09289524276884002 0.6107560428817674 0.005034991320746167
P 2.41621282054633 8.294761704556684 10.306520097174369 -0.17561251656341367 0.29589129355152916 -0.41031001221444174
