# total energy = -381175.0829777494 ev
CRYSTAL
PRIMVEC
9.19209035626319 0.00000000000000 0.00000000000000
0.00000000000000 9.19209035626319 0.00000000000000
0.00000000000000 0.00000000000000 13.45355338712756
PRIMCOORD
 96 1
Ni 8.238006354428618 4.708161003964798 7.42973851293906 -0.32898087701664636 -1.0846766899683191 -0.3606028747973015
Ni 2.6190195206349394 1.0180056011009309 7.691099970101114 -0.10571399180006309 1.0411013764805295 0.33256268083063373
Ni 6.081955646820096 1.9279489902743998 2.8811862048950574 -1.3388580053755716 0.3849746187734467 0.053748654476365496
Ni 6.566654560986059 7.623634624367734 13.312102629267004 -0.5568430949133958 -0.2982394820687315 2.4449841234669183
Ni 0.19853168249664113 0.38655404831272194 7.293440038456412 -0.4793153357395616 -0.26706459912782393 -0.3593908567670714
Ni 4.5622733410266605 5.897406052666671 4.065999746930529 0.12546880582948713 -0.060216778699212416 0.42465522519252025
Ni 0.7107958366360708 4.22670689762551 9.365327968554912 0.16437345331448464 0.6294507910777933 -0.19369148555231158
Ni 6.494073817078332 0.5810549992739606 0.8943462505890425 -0.8488733628476218 0.8218783223160168 -0.9690582945703505
Ni 2.444066468609133 4.794079470695488 3.412560714478277 -0.5649541540563044 1.7556988767299957 0.6080443003775593
Ni 3.8196995294965417 5.457049781435217 1.0736940409206095 -0.9310941566217512 -1.7134823912629458 0.6063026350961042
Ni 4.3846913512149355 6.4246091917350325 6.654853585285582 -1.3091195977708743 -0.42165577624456413 0.16509079109648345
Ni 7.86887039776113 9.202293380631279 5.403431400319695 1.2412044219861398 -0.2711742504208233 -1.1826161800292858
Ni 3.7867091179103167 8.121055391315902 4.862316032793337 0.9039181104275916 -0.6395966212625436 1.8272858449393627
Ni 0.23704378264231032 8.117507244513929 2.0561602638337937 0.6806586814101762 1.5185783734597718 2.053506156357315
Ni 5.572870117458185 3.3895372862531397 1.1801715365043919 -0.8018743683902642 -0.524098039271891 -1.6650407508217906
Ni 3.998448914758656 7.342044134389352 10.226274759545586 -0.052380056263613015 0.8678897560491247 -0.8453859185196536
Ni 1.8538055910393787 3.318620310664473 11.493639705685935 0.6684824510589584 0.31838793199214843 1.3202923265582422
Ni 5.994750287466928 4.82586571847068 5.514476445504256 -0.6950090365945772 -1.9557695263357737 1.2458000117766224
Ni 2.558057578690152 7.987521897553548 7.949408734120848 2.0315386509472884 -2.0073695099002524 -1.7522947361444534
Ni 3.265416492815192 3.211624381195635 9.765799760579728 0.9872881873148157 0.04637575905106207 -1.116599763929161
Ni 9.042038480772197 4.808060639829689 0.6243184908236196 -0.4945190400631935 -1.0425712761578367 0.023924114915765248
Ni 0.8908541755370484 6.366947210157883 8.301864723982998 0.3180534314708652 -0.032365303704582966 -1.1801216957422063
Ni 3.615386941497929 3.0248870695839996 2.730533362417689 1.0060459275382931 -0.8612262279860199 0.10518820120358012
Ni 5.522626152640602 2.416977378905983 11.002813344218948 0.33013915899080565 0.21598397840192482 -0.4830976856001293
P 1.5118598370668048 3.642521991651881 1.785717021593114 0.17335020289179823 1.3958344227606154 -0.16994631941657184
Ni 3.1762440261676663 2.866966960625698 0.16555689746368915 -0.835759194063167 0.7158845944920058 0.6203894522064735
P 5.227146414429623 2.5990359166258976 4.600590568860925 -1.0232718044982765 2.1721602532578137 1.4021094571360497
Ni 5.631147969076092 0.5519234271371358 5.083062239580987 0.10504241965433521 0.3079821632777922 1.0094274424160163
P 6.779699634637198 7.197167601368875 3.622624793290348 -0.7130656369859719 0.9133527734779303 -0.038639052528436676
P 5.073151327969878 1.961307085467047 13.060493979765296 0.6698726465382657 -0.9089039936779573 -0.4049366637176704
P 8.28605340969783 8.033840839872575 8.83933450855168 -0.4756682259052776 -0.4834039039866384 -2.0298054703062656
Ni 6.880215140542845 4.44758363209344 11.440794379352916 -0.3230136036896179 0.648181020497445 -0.9163712485892799
Ni -0.1177681399279898 4.61031120420571 11.728578499681479 0.44918766311624575 0.8838737901822068 -0.06997385808597627
Ni 0.7236767125780538 2.4832247726930894 0.08646355767721028 -0.5907240639315569 0.33115628740141034 -1.1679274676688594
Ni 3.3944550544890357 1.6540614718505606 5.697915635166285 0.9904850969855588 -0.029916327943458155 -1.0407964436456012
Ni 3.123270010572399 5.621698500391044 8.641015163337748 -0.566608916050908 -0.47856534494741454 0.37519799900265705
Ni 1.1811100489097843 8.743984957316263 9.388333012599727 -0.609287428756041 0.3770149976067378 1.8663887244780955
Ni 1.408917619358771 6.41958111841721 10.605463186012654 1.2201550575150084 -1.321071370816112 0.17157434193829804
Ni 8.757341064319547 7.7053982663458545 10.917410553746265 0.7935946448799752 1.671053532674774 1.149557449802104
Ni 8.224512366072927 0.6777557877629788 9.855857425509715 -0.8166458702724838 0.6882629761199953 0.06820313933879867
Ni 8.754160601123996 0.23107627771007927 0.5152267647981759 -0.44499547941176915 1.533738626139978 -1.5131875414615035
Ni 8.070884963219605 6.009926428322002 9.421792220784141 -0.908641741155506 -1.484141789048457 0.6111221679719346
Ni 0.8129401809181686 4.815487848679416 5.669381548889896 0.636372200787975 0.07255858809401697 0.43030856682355567
Ni 7.89929621619256 2.7797432170922103 1.793009106717481 1.0651085380284042 0.03232879403969271 -0.4958390444261977
Ni 7.848574262686629 5.822812241013784 4.822748680697237 1.210015140867529 -0.2507836025796132 -1.0484045950101621
Ni 5.203053946118814 5.209175878165743 9.800832654599626 0.4857801175282988 -0.7733549207943327 0.5481609937583657
Ni 5.982763801897567 7.227005126030031 8.66525838192719 0.29766586895344865 0.4940616408108008 -0.9851482581536773
Ni 3.3167175480012383 7.314955044686203 2.761274469541627 -1.8111341748801646 0.17062843308526096 -1.246525834199053
Ni 7.517603864365754 2.533726116035168 12.702817801900968 0.08610855886430976 -0.47190464509778723 0.07310006241978378
Ni 5.391923822647698 6.66125036082831 1.995645976679825 2.5250827286917223 0.8190290257926798 -0.16583306857914665
Ni 4.6376944407939975 8.857038474200905 12.992728971892683 -0.8783322915386873 0.20354035332193335 -0.4824019450846853
Ni 8.352539797829111 6.892697998980877 6.809986652507204 0.3834031605212687 1.9811779391065492 0.385061264949982
Ni 1.7029174310539001 2.650897689311738 4.292450564871817 -0.912288593879474 -0.4744250975267958 0.7371874697348401
Ni 6.6353194744853905 5.277335226706244 0.28054994537220795 -0.06592437060695099 -0.31640406879290023 -0.011125163378884065
Ni 1.0429529337966716 7.050296384783558 4.141568839349452 0.24155642755439044 -0.3300226880175993 1.2096860396628843
Ni 0.5411741969033851 0.745352580385654 11.758311234514805 -0.00735309793096153 0.3459563285287203 0.16519132123008967
P 5.985401931773646 1.7655155650472665 8.229942133730766 -2.7392124274937277 0.018078197657949515 0.4760610904683221
Ni 6.276772805682858 7.496360944004717 5.913145668648586 -0.570695941636088 -0.28722024814009245 -1.2044170779544614
P 2.1307264992162005 6.5111619126867994 6.30827685629012 -0.010031416094073046 0.2997345785570193 -0.35474230225146647
Ni 6.287968771498411 4.359955436592887 3.058221265342229 0.7880243498810493 0.8496570350911817 1.0456218900587024
P 8.065875274082103 6.545292143452934 12.498269896394245 0.9289786529406453 -2.3387484548354305 0.3130006995383061
P 3.346362038769022 0.3185757839483839 9.623406930320632 0.47748291051651315 -0.3655455635145575 0.7870213625378317
P 0.13450601690134087 2.726989811660796 6.816538774373646 1.4359652293432303 0.38811444995400896 0.21130611331028126
Ni 4.076149652885811 0.9879842346365644 1.5399747640318724 -0.29736273589073303 1.2608905875611576 -1.074822937102691
Ni 2.3730391879385393 8.307673205755451 11.7217037354504 0.3681390352733466 0.10807632138465258 -0.557444990163453
Ni 4.540386974354384 3.831869856869114 7.721921967618464 1.0622540992987448 -1.297071665467405 -0.3197393038137203
Ni 6.955691392851146 9.301108349857223 7.415638765841788 1.0039569062197484 -0.8493801272807115 1.2990066777065885
Ni 5.636617262721622 0.26593084518086435 9.95281743094126 -0.8846482064543861 -0.40228277103459104 -1.4031029313975707
Ni 7.545777620707851 0.28894048527076077 2.933897326711733 0.020149735474997557 -1.8832855002334339 -0.3710274125647352
Ni 2.2294679317208614 0.49095872756529974 0.23446540135227517 -0.7095010595631652 -0.9779507119639738 -0.036010356656337984
Ni 9.227847391277615 4.274763144984882 3.4684743605068893 -0.4933350470574213 0.39511479253124215 -1.2343933126015774
Ni 4.815221278064759 4.3059610989897985 12.4167682289857 -0.22649516234589379 -2.6596666094486 0.09233962737568613
Ni 6.427201361160308 7.083185683378017 10.964471297741248 -0.8925101257009661 -0.26887594130494985 0.545160516369145
Ni 0.9169689036831797 7.3555289306548834 13.322462114877945 -1.462659707915281 1.6467267830039511 -0.18057885942975352
Ni 1.2217574715997501 6.169050701091336 1.9847083085977828 1.4898992603575243 -1.2425683922132018 -0.7445004584564855
Ni 0.8858398903544668 1.9110355443789822 8.86408880735405 0.07444963446914275 1.3166932963530742 0.5979948865613571
Ni 7.26673333970394 2.561385115328272 6.577818354486051 -2.0367276513473955 -0.5044974914321441 0.1912214267452642
Ni 8.038473653313494 6.302813997107704 2.0234281499810804 -1.4590159405151066 0.25600859842397844 1.1112937783352153
Ni 4.68757991409532 9.000021436648309 7.4460167854043835 -0.3212878792477628 0.6742993148510515 -0.2283738674258454
Ni 3.418078726201657 4.091555595994898 5.427768378228775 0.8586414979779794 0.22557265053162442 0.06383072130271587
Ni 1.1952842519373572 1.587437202366872 2.135872231288078 -0.6782636988154384 -1.270445064018812 1.0189495229738386
Ni 5.0598871418682005 8.977022827066605 2.9854778214386606 1.3639643135248962 -2.0812033651622674 0.6840257981101961
Ni 7.605765201095619 2.761643991566081 8.914983572155 1.4939963132450333 1.7420828286084578 1.8420938564864726
Ni 2.7246734049403365 0.39484715205557297 3.497950636024735 -0.7368303435057374 0.5718010017748087 -0.2553054017093668
Ni 2.261502365930389 3.5903936483513847 7.508912743118953 -1.5466496777746912 -0.5556421326267592 -0.39481654456453297
Ni 4.275121636501143 6.347101487501249 12.367756923458648 0.13719432179653146 3.464721689559691 0.6521346058285543
Ni 1.8414881902242377 5.389340845312582 13.017173497256643 1.856804166113454 -1.7540150612696694 -0.7469836298896554
Ni 3.2375736517188765 1.404018235303196 11.614143411645706 0.5153837993273447 -0.2739276447962444 -0.501230133534782
P 3.089075435175142 7.463214266885762 0.5260449357081308 -0.30174569544977714 0.36401035781695373 -0.30271500134158186
Ni 7.995151332386807 2.4709441402385903 4.500872936381214 0.6189622328416436 -0.11608633617332265 -1.5690671262379428
P 3.267199758306339 5.124654609139457 10.983790313631681 -1.245615663679958 -0.4435014113647459 -1.010536616319795
Ni 1.8191789874045754 8.950135963346987 5.690987556812276 -1.1091775033231608 -0.17045822605598385 -0.28599100371868164
P 6.061852545638967 5.311805564808318 7.699118230348164 1.0661547199047317 0.10458630595352311 -0.11206281683622636
P 9.211485470791832 2.673170123770758 10.738666683738247 -2.035836506991694 -0.9451868872693915 0.47137114119182044
P 0.0960683726859722 0.6218173230909332 3.935662342916999 3.3080222078506965 0.35155799098621393 0.5533646494464922
Ni 6.93398886798208 0.06099871030543014 11.819498382668524 0.5894760504570687 1.7941394400943809 0.7927752343024734
