# total energy = -340858.1066668008 ev
CRYSTAL
PRIMVEC
9.31545722357423 0.00000000000000 0.00000000000000
0.00000000000000 9.31545722357423 0.00000000000000
0.00000000000000 0.00000000000000 13.63411326754949
PRIMCOORD
 96 1
Ni 2.6261578132415906 0.6823609692426478 12.3855282665682 -1.490722013369136 -2.5953864593132914 0.1764434971051413
Ni 1.915462949248219 0.15548429684519177 6.066921621386568 -0.9398708743731169 2.0675549211408972 -0.1581884075496953
Ni 0.6241244567414554 6.887159741739156 11.500388424056954 0.8161450193766654 0.02849013701989287 0.3914666542556936
Ni 0.8478044214264768 6.489371086542739 0.4087073026310963 0.76825128101918 1.0348739075135789 0.47728210735961674
Ni 7.36483775825271 1.4195173210808731 9.539216389208114 0.3987508466219326 0.6009956210608941 -2.281049814572381
Ni 2.352506941267212 4.5028777758156044 8.094845428202552 -0.11163755637334968 -1.4028841305185453 -1.1379617745447048
Ni 0.27600768265689213 2.1882847455279584 2.247856163052092 -0.7942618461503288 -0.903147036589522 1.3560813112323935
Ni 5.775779115346753 2.9955622702181697 5.782364212071926 -0.4359086866191525 0.3883617900781247 -0.9468997561954402
Ni 3.765382341333729 8.219242181135948 6.1034335560510415 0.5037439010955711 -1.063466631549607 5.314099995522718
Ni 3.7643296946652542 7.983179179137627 1.7138894961468847 0.2247290715844065 -0.7959353771980099 1.661434264417455
Ni 3.4264953222856653 4.006224172897781 5.4615938942703135 0.27334297593736795 -0.017579917865292304 1.794109101077078
Ni 5.263522121546674 4.058223055228969 10.951901753946872 0.18379042438851573 0.04162461751932186 1.0091045118589588
Ni 1.0565964223455173 0.8737013925623963 8.533237366884627 -1.416761659831586 0.45273449992723963 0.9081126081249135
Ni 7.952410223863547 7.548128694968665 12.23926161466509 0.42645679717763324 2.310727801252788 0.7969509629467177
Ni -0.12931810899494556 5.111670853026307 8.110675184695815 2.6765597856595127 0.35412626593402236 -0.8716466519883956
Ni 5.448266269592558 9.07373975859162 8.162538992896977 -0.5168611552038196 -0.8843772121811865 -0.1218288950840547
Ni 8.957445590368303 8.502981693304644 9.795810658970309 0.1336847659813762 0.3744179263035229 0.27653294362957537
Ni 3.1778005602656494 0.5899236870190041 8.201928472303855 1.37452563398051 -0.6790975075706434 -0.46154618468159875
Ni 5.948469061720017 7.167536373843078 2.7707243941978263 0.6229993790254948 -1.9067301044096197 -0.573539067511838
Ni 7.4154765838264005 7.7332081994753015 7.998724814184973 2.0201579199141726 1.8586029098850894 1.2980121750038032
Ni 8.713445818798828 3.512244106208737 11.552988153380326 -1.0589332624556278 1.72427151145865 1.0852395044503245
Ni 6.631906897819972 5.965907597679168 12.233753384797224 -0.9881147969811692 -3.7861846609327374 2.4950093063451093
Ni 4.44581128474415 2.0862804887156132 1.15414509595847 -0.07288948907087447 0.5118223072283314 2.320315702051539
Ni 3.4258525557358888 6.398657163909076 4.763064085890753 -0.3431363425814219 0.10656168451233906 -1.5384882250098213
P 2.883376218639077 6.952265472411436 13.637249050965627 0.8226457966096608 -1.2813516836289869 -0.8311630900520524
P 2.1124848699405563 1.6217652132866105 3.946830680606991 -0.7360204460099323 0.006527002485240373 1.1874804501001226
P 1.8617034454980779 2.6785758911487196 0.3286558523579268 2.0590445696770407 -2.2950211891508085 -1.1443537941139776
P 1.9638381187118268 2.4800076045540216 7.225030444401993 0.2813604469252058 -0.2550107532870834 -0.1685926336021548
P 4.659927069477644 0.8529111550871643 10.949979043571886 -0.2778992278494827 1.0920650120125903 -0.7113224290426201
P 5.2767593862891715 7.786157258445289 4.642878851176979 1.046482695397101 0.26641539557959926 0.16705871345613163
P 5.577928118959776 6.786888159974034 10.752857447487047 -1.5942904195811058 0.7462902033670566 -2.116639337372374
P 2.541182212269699 6.340705704399523 6.769105883642611 -0.837386702364261 0.2833396821387636 0.981196215484465
Ni 1.709479558687984 4.584499812179967 12.550637293837 0.4550040126877066 0.01735623189026043 -0.5714865558581835
Ni 0.5654435969297656 7.634743816415348 5.87847085290364 0.36881909205950675 -1.3444689238044458 0.10268394672448766
Ni 7.919442820680087 8.638829006281306 5.47776366495295 -0.8224179968695708 0.26972851911323226 0.04337990964753174
Ni 7.542548736080025 4.390365683233002 2.4239956232424906 0.12665768393126575 -1.0860092927368137 0.5805180699328325
Ni 1.2637069832321717 7.361055682611997 8.476532315554207 0.8263219599096672 -0.02334176004973399 -0.6314405678143125
Ni 7.160959661029424 1.4333414596296878 1.3373596459250308 0.24343564685497432 0.4406022354400799 0.6993832544028729
Ni 7.826176462761803 6.296243026978034 1.1414872526564963 0.13513101150959952 1.076386682045385 -0.43978950973079745
Ni 5.3871568700775825 1.3735641705004809 12.931793200125794 2.990414348557682 -0.5668673119186172 -1.0320616348757645
Ni 0.5436435638893775 3.9689157666390193 1.1010423319439704 -1.0535424304573597 4.656021770516221 0.2827971793717323
Ni 5.248132986181012 4.135485457603544 8.794725977882367 -1.7492744612608906 0.5532278667583117 -2.455154893352333
Ni 4.79009195353599 8.304022157505734 12.196614519860287 -0.4230058625145554 -0.5144309484957721 1.2048431097482861
Ni 5.447632818500025 5.325004139351376 4.841214251340599 0.9653006273001311 -0.2139795463773863 -1.9307712045192233
Ni 6.640300124796037 9.205600055868217 10.907699909328189 0.14241571809647086 -1.2397242378961875 0.9957532873630336
Ni 6.582190302513352 8.488123539001842 0.40607195977701294 -0.6144471185801095 -0.39411257651897286 1.0189924603966323
Ni 7.685494427475956 4.069373657549003 4.896719471778104 0.5065075798836374 0.37043065952100074 -0.706613453602725
Ni 4.3040393409608555 2.037430230932605 3.7831254927447313 0.033926991764748025 1.2432037118043557 -0.2632765928403014
Ni 1.5929152422046167 2.610861832448361 11.00931478002777 -0.30483359034648144 -0.6416725299549659 0.2851368832485025
Ni 0.783204520082498 8.630333309275564 1.7396718871587138 -1.6518779881875876 -1.8009911729088919 0.5307988483308342
Ni 9.065169537927934 2.043615694542048 -0.04907382875684322 0.2727598497403883 -0.4426606606310054 -1.1786751931036668
Ni 3.6917902291129505 -0.0625141704672406 4.3031851135316606 -1.7232975775811545 0.39117869070162953 -3.2978025870052172
Ni 5.710896955648307 0.014392381440645932 2.754758632028815 0.061666109551229274 2.4028242022694166 0.30682336708300056
Ni 7.3145342891397735 3.3665224085543524 7.464936072513109 0.3294511317848455 -0.4892171682343058 0.2039447878492036
Ni 7.85533384393282 6.439048986515316 10.226730669397666 -0.020120939119591154 -0.21343087296276791 -0.7386771669064891
Ni 7.971329917524357 1.790952547736456 5.857787743186704 0.8168703275784642 -0.9504190822026084 -0.5309058062223437
P 4.36348127362931 5.031446135248414 2.860041929790744 1.441147287764802 0.3689579316302162 -0.04697354053606103
P 8.701810812702151 0.04951724452161652 7.486900989146701 1.0425054559169078 -0.5183948182395265 -0.8696018536442248
P 6.53193341068663 1.2904982382634322 7.453851609939502 0.06044252155677332 1.6853707206283943 -1.1188191401779828
P 7.054511931112104 3.540060061536743 9.566702577349712 1.5801835478660786 0.4453865442026007 2.1897679390372478
P 7.961045652727934 0.33153619173750465 12.859804278096561 -1.9740613826664262 1.4307803427081809 -0.3380494149768178
P 6.069737684111168 3.8383968952054333 12.934519834460863 -0.28412104038947844 -0.7706190099204082 1.3848036188677506
P 0.4155271488787965 4.083365474328194 3.396830248694897 -1.1888084248829267 -0.8931765556403714 1.0189968312720064
P 1.8464726729055498 8.707632973479111 10.768577281584841 -0.9605052627940167 -0.6402669078566908 -0.6882159249321438
Ni 2.5616016945466544 6.085387652279637 2.3207170118792844 -0.39494664238449395 -0.06265315605484695 -0.7772953934993194
Ni 5.468108193520439 5.855873416723241 1.0049850630356436 -0.3694245868539896 -1.1998135177441789 -0.15036711173306364
Ni 4.27937201018103 5.112872547010671 12.792043642109986 -1.243278016685717 0.7065118950278542 -0.5213762694653536
Ni 3.319497980390999 4.141708183041959 1.0588470368154592 0.058858207788788953 0.27842321867375275 -0.7449270044709428
Ni 4.027761510043912 8.41716770118087 9.854628456003473 -0.539731889154406 0.09120114289586874 0.13756764597555018
Ni 9.56874452557741 6.104922166118495 2.9257447812723103 -0.7488944737591232 1.1170556205196567 -1.077022772967487
Ni -0.05139430915610853 0.7519399824830831 3.9427132485055245 0.25485057356013524 -1.5948439780917307 0.6706077249320773
Ni 7.663295692865562 6.5581936846550315 4.22785660008076 0.09519946542198443 0.10480459261191628 -0.16713996031602826
Ni 5.890638703154625 0.5776608191041391 5.454994824359275 -0.3623882488324984 -0.8993744569209672 -0.6821802602610252
Ni 3.9780449147372927 1.6933638176573578 6.245432796991069 -1.9924884790233621 -0.4096453820472493 0.5860122602781843
Ni 9.123139628351973 1.2410331603023774 11.035124185865604 -0.4277906854977084 -1.2434209700214844 1.0342231613034574
Ni 0.48389235804045116 8.810410413242636 12.82372923837679 2.450570359305444 0.07486229652652913 0.5012486454775432
Ni 3.7379948970389076 2.448036955295577 9.551132722113534 1.174582511091532 -3.166597650022901 -1.2971930215366176
Ni 0.09145915921311441 3.719932225444466 6.3590729914458155 1.8950290139226074 -1.0646580807545472 -0.04842030028491661
Ni 3.4667008357470426 6.143124856272598 9.211357008444475 1.0422966823402116 -0.3971858161276579 -1.199576204922392
Ni 2.1848287108907547 0.9438328124173497 1.9529231974600438 2.3906610845443215 0.6821645765317412 -1.5340217045980356
Ni -0.020426003097025462 3.051194180874181 9.426517055934925 -0.4289158002410871 0.2161845244485051 -2.1587568353677145
Ni 3.534964506424747 2.541554830559425 12.321121195189153 1.2998618266180322 4.4641871356669895 0.12693484885205233
Ni 2.6388640969212287 3.821293715707035 3.318938121410687 -1.254345587353788 -1.126137785326583 0.11036691719104218
Ni 3.0854657480716803 6.744670507748139 11.272589164179019 -0.7306283284600836 -0.10636448089986841 2.2415453287198557
Ni 1.001374391808204 5.393770844720209 9.937019017590396 1.5501075544163045 -1.1213239088777076 1.0688613202026171
Ni 7.208934265831577 5.5582911350912445 8.198042063542019 -4.556211288684786 -0.7737405862685255 0.6405898384137484
Ni 5.894849289828524 7.022727590998521 6.626342775208646 -0.9200520398749767 -0.11975041528847119 -1.4891040181497386
Ni 1.2771212416622884 5.421530907304756 5.028056240357637 -0.2416631283355838 -0.27083743590669485 0.28970393379389464
P 8.89717458200521 5.117660692033643 13.147962111635676 -1.564844346405847 -0.2653486448779817 -1.45943477322008
P 8.031563664058478 6.024930334771682 6.253940604091225 1.287842433559653 0.1015572893192122 -0.187014073532136
P 6.336830474186379 2.290950399804566 3.3496558416699296 1.1577453849295352 0.34050944648153614 -0.24553392414489966
P 5.322973369672371 4.933903982455532 6.8823231563385185 -0.33630080771682724 -0.8301701300111638 0.25551931749238577
P 1.7851955951601977 7.517480840638745 3.7671597305757194 -0.6495704446458038 1.1663056157947203 0.44233798718426404
P 4.007202295908311 0.1331281310073884 0.4274658388816003 0.38048444421257693 1.271634970561855 -0.6844441165945374
P 7.985647775307058 8.450479776282327 2.6208582496159702 -0.23431440127999648 0.03751728021916764 0.1889460004475262
P 2.979213642756465 4.007845062458086 10.388267218813722 -0.6889227211911811 5.007643267750518 1.4863251698530209
