# total energy = -340893.800404878 ev
CRYSTAL
PRIMVEC
9.04782413526504 0.00000000000000 0.00000000000000

0.00000000000000 9.04782413526504 0.00000000000000

0.00000000000000 0.00000000000000 13.24240519004634

PRIMCOORD
 96 1
Ni 6.347709225332409 1.8164321551264215 11.393063766055494 1.0884664960280543 0.7823177864145753 0.02326771227868896
Ni 4.698146093447767 0.5827142655239916 5.847568118557615 0.34300830164398993 -0.1894126556712996 -0.07845567030474229
Ni 2.462582526259738 1.4791383136998462 4.825188403762927 0.0892350203084334 -0.015865763387663 0.030587385868553772
Ni 3.528108600710289 4.4996368286901545 5.014157642597094 -0.6545308739748726 -0.9096951221206848 -0.24145358342793902
Ni 4.971589438912882 4.508802274688306 2.6920751604902757 0.8070582265840488 0.7892685067007955 0.30896715289888077
Ni 7.036936287874613 6.198573937684289 2.753453790857764 1.028133503465952 -0.5474608823675474 -0.100827096021407
Ni 5.09726371819653 4.496334372827049 11.63265829609742 1.0165131456182042 1.0933148252592912 -0.04555146337755381
Ni 5.748489918752317 7.9427049289694125 12.576511039162035 -0.6772977353577432 -0.2560065415414494 -0.41507709458578196
Ni 1.7953416767239605 6.163549809886809 0.43993688399917097 0.2966222581802827 0.6602176399470049 -1.97882820792745
Ni 2.736831128085992 1.8322567997964794 0.16292145750733436 0.16508719155205764 -1.070388298370105 0.8149204029409449
Ni 0.6109697159757487 -0.16133265956333084 4.365584264120929 -0.13452140295005866 -0.1890393314922809 0.4323019431045007
Ni 8.762573526326348 2.2840508575178404 1.4220890672515245 -0.8796031878313109 1.0306058762658443 -0.24176134447634492
Ni 7.078764379532518 0.7733519231558473 4.99360550973944 -0.9570389015119711 -0.5919929033416514 0.2498217528869762
Ni 0.9950073319929011 7.430978083200904 2.2574991123784742 0.17384051226465547 -0.7500707534554113 0.3086539925338362
Ni 7.537154301155807 3.6540271712495644 3.8458464747327117 0.7379215196873872 0.40188604981680465 -1.0192644831110962
Ni 7.478035817294082 3.9334601763896795 12.784707809378899 0.3554773806452781 -0.862070064043554 -0.419895856130664
Ni 7.991536036621958 8.587534317757488 7.07201379783536 -0.3266244609693278 0.8883110000179539 -0.2694567535090843
Ni 7.012326205826266 0.7454357661146832 0.48758815536528066 0.08726941194163035 0.21754438091050923 -1.037891354183664
Ni 1.7965178938806832 6.5550310709411574 9.347906232197687 0.14608493941794196 -0.17490263498058264 -0.7997200410514227
Ni 8.971650649845897 4.886503699360438 1.458094883983654 -0.5566145238423575 0.02965510386227151 0.48671111398300043
Ni 6.379819953710931 2.1236148373409036 6.998412461644669 0.18687729084395557 -0.6296965885400123 -0.8376520402105058
Ni 3.435694123489037 4.247492061585999 0.38594489737589927 0.15470739097963032 0.19814643599987164 0.11035766121966155
Ni 5.876860449672145 5.863876821826785 4.9037823293926905 0.5209816051300963 -0.8510624000791408 -0.021739448559620626
Ni 5.504859154297976 2.785363657537215 9.119939061141176 -0.3596806200933483 0.4543252414531272 0.5485204339803135
P 0.08547298643173297 5.512034078953982 12.444166703817341 0.6406569442062579 1.0159202492292119 0.978222734678438
P 3.912333506690089 6.193407630018993 12.71401987260717 0.571793545575641 0.20187222159089105 -0.29736993497958464
P 2.483184422150945 8.83591518996013 1.2145817412449846 -0.10412736403923357 -0.2822935002624364 0.6767074100719119
P 6.371667864032416 7.932752322258684 5.625837612779017 -0.3174710766048339 -0.9690708929758408 1.6325039545363498
P 4.721996158256386 0.925085745937895 12.439266402185952 -0.1697357460676625 0.7844186348076619 1.1605311752047884
P 3.950370559973635 6.209476565944677 8.006808764010785 0.18507546174852643 0.046688662305790565 0.5529393889836155
P 4.420224074962826 1.2679349514739133 3.762948499091773 0.08169988827365285 -0.5037279602559711 -0.5153277492784286
P 0.0865985357724735 5.601707065417642 3.6814809844698937 0.49139334995001815 -0.06132003906572021 -0.6413961363651276
Ni 1.4895161681518507 1.3127669207936021 2.5727741686312067 0.25061056733685866 -0.42679926811871655 -0.5274618135378012
Ni 1.9827402132626883 6.408646321874913 4.907966948123337 -0.9649519857114608 0.28295324533362237 -0.8444749766696102
Ni 5.75171094419688 5.534137913676081 9.249780768289336 1.4732297701216435 -0.3130323241071899 -0.11341161755463694
Ni 8.584675205284222 2.199707039556561 9.952197749070537 -0.28839807049827754 0.880325153599 1.5356813516886454
Ni 2.228243877343503 5.252886295855187 7.083005094773716 0.2792601127527513 -1.1439897259063394 0.39469518849532026
Ni 0.4120261556525764 8.933269779239616 9.097016398321513 1.2514939768376059 0.7182219843759308 0.2497271362906409
Ni 1.3363726943465928 1.2187690743229163 11.309610254003609 1.0670823739253237 0.4090550567614181 -0.5154527048920672
Ni 4.001925062735206 7.090689411936827 1.5869169013351774 -0.0027233124684340193 -0.29606175769112236 -0.35149191363496884
Ni 5.638115510330342 7.8031874785335695 8.017190237592501 -0.6741005685766842 0.22276911964455826 -0.1849728747323911
Ni 5.365929812440494 3.043588562559197 4.916547904672841 -0.9275727737320542 -1.637879102805334 -1.1636226696459187
Ni 0.8861592915273809 7.210962140123835 7.077297727216328 -0.4408233503119504 0.9230314342182749 -0.01837156052865223
Ni 4.940030627815591 4.506983662007528 6.911528919407297 0.370515248815007 0.3682323663181013 1.0431819131586424
Ni 8.049930694541084 7.17128743064516 9.24529123788037 -0.18019499372777353 -0.9651682154873248 0.4787332379838465
Ni 4.514221921433512 0.24886493080175628 10.313158889255226 0.8516218721270365 -0.2818978074859145 0.1957990188136176
Ni 8.310517081700795 7.108224095396273 4.9979222267046115 -0.2089396699606337 -0.2954308089753428 -0.0574052773923463
Ni 7.265366707534388 6.218026759891621 7.1623536089486395 0.08436920757569985 -1.4523177025593246 -0.8168605573864512
Ni 2.349909970470013 5.28828138444825 2.5096076881854996 -0.09060027608707623 0.20932713520703947 1.1654121574461735
Ni 2.5389733066767173 5.135517919262855 11.301081774834945 -0.43978359619352647 1.312347617789869 1.1729668298649798
Ni 1.1861154764874458 3.4913472906505723 3.7755557374469806 -1.0926910756323633 0.18637875394098224 0.4837497173618314
Ni 3.422674304346548 2.913806571051303 2.651447715114655 0.3424444587207199 -1.1994605052801341 0.41958372420688383
Ni 1.1382434382088435 3.0954054522249606 8.338729102595995 -0.08608233361206465 1.50925683894853 -0.5111689899150487
Ni 3.5535782260654707 2.4065222070054912 6.853249168856558 0.7330420801078988 1.0714067123322903 0.8725072002164781
Ni 4.181641996458109 7.299250809472276 5.898511893180119 -0.7786899598540009 -0.6662677027958268 0.24009655517941225
Ni 0.85470905432148 7.394298203559729 11.476862000212538 -0.4038092349814465 -0.09606052787069909 0.3895696943432968
P 0.2328692822527597 5.412535155319548 8.178257795904356 -0.46258876701350005 0.15013622666918014 -0.6486744151940957
P 8.32808795645737 1.5839845014852256 7.950885971685632 1.083895331717604 -0.7293718303451632 -0.8816220180335527
P 1.9400525782979472 3.3301874445310364 10.416780906415184 -0.6469191230658858 -1.319094192485083 -1.2990848392426917
P 3.944281374231526 6.144676048433555 3.8022658195112897 0.01194611661828265 1.7672531572264985 -0.8827785002354991
P 6.915007807843911 3.8365579783243176 10.393328041092568 0.06550348101944849 0.6980977028222299 0.1748051901707699
P 6.195162907929794 7.556860462443049 10.351998484552627 0.5365159533202696 0.3866579200131405 -0.2565973810479129
P 2.199345126585262 8.491184036973356 5.776522792726725 0.8632129193987457 0.029893188015006584 0.9666897943381738
P 6.727573080008053 3.842954790092031 1.6187118606462405 1.3250275272503824 0.131013132686484 1.0994258232530354
Ni 5.290525244870305 2.7278285429249243 0.5274809174091637 -0.3798570950412232 -0.3968454020691036 -0.381186355375608
Ni 1.6076898011053236 1.0448065568436715 7.305954342483165 -1.0779936215211885 -0.8994377060587349 -1.67494489730938
Ni 6.90402374916498 0.46148970622246677 9.252269824749444 -1.1019213359813798 0.2249170192254965 -0.46741164232344024
Ni 2.8299603834255596 1.5963619251036585 9.238404938818972 0.16778659276109167 0.653297515788404 0.6872211651190423
Ni 6.443299488876812 1.5544885943243403 2.828326346360144 -0.0012636972037720173 1.2850581859462966 -0.49327539746407945
Ni 4.06406551990728 6.864104748430678 10.25416436058617 -0.22732048646066655 0.22142906067689608 0.6881105097025311
Ni 8.121616606331173 7.362829870705264 0.41001663387943754 0.22818412001254249 -1.131820180423341 -0.7828456338935872
Ni 7.700150855604686 3.7113179946062287 8.09750596418322 0.4042080130817619 1.7128784391303595 0.1027533665098424
Ni 3.12641234604102 8.405618762733942 12.341881955086334 -0.031615312912435876 -0.5281318430216324 0.36855118311010077
Ni -0.04102283529676476 4.9016769006821574 10.31183428778027 0.9090852564508278 -1.3949468779493395 -0.6810973116094914
Ni 8.904579128439872 1.988747968586255 5.800888583519444 0.7333958639028918 1.2840240882548273 0.13321322566159638
Ni 3.821086198801277 2.6926596499389244 11.359971348742322 -0.3630749904868779 -1.0956342174210874 -0.016755622191784048
Ni 1.0698418866332942 3.5079590960332054 12.422872649368527 -0.7133320032734812 -0.11748733028590733 0.814162698839314
Ni 3.195411054019213 8.527411525400407 8.1657835605661 0.28056186228331037 -1.454909888766533 -0.8917354523184705
Ni 5.443858722985494 7.91077515707654 3.61070075989048 -0.5375652205203904 1.105682602796025 0.09801250939074733
Ni 2.847965553747695 8.414648491367858 3.4211090307456793 1.2512929165703934 0.044585757030174825 0.5079695091411445
Ni 3.6835954610047095 4.273323599912479 9.390229239843844 -0.6262312556992311 0.25339970004622164 -1.1494036978330593
Ni 7.302833747888138 5.960661398176476 11.45601852741299 -1.7147987960815243 0.9142009804108384 0.1095145964930759
Ni 0.6324311551737914 9.192498992756953 0.0868943996265106 0.14103452147822806 -0.40551696170117263 0.9062303035005361
Ni 4.842676038536105 0.4346212872332139 1.5684439584976375 -2.0159765348429732 0.05393531656587485 -0.4408835141259246
Ni 5.8987199931386165 5.608891037897932 0.5891662690198283 -0.32367206320922326 0.8574292228374331 -0.6466216464301251
Ni 8.167552410213325 0.0401850067682071 11.19267979210655 -0.4850198423235066 -0.7082898128638834 1.1708909211725578
Ni -0.0295483845417235 4.749727739682187 5.824116158017427 0.2484469840266366 -0.25333927912193144 0.3551868459880528
Ni 8.214818244265002 8.704341729244305 2.3872611986729475 -0.925227156318013 0.9557402373052056 0.596836861697514
P 8.478327078667952 1.505250334579084 3.5954587951042143 1.315582836897715 1.1261997489127702 -0.5604344118090799
P 1.6982494743486667 3.440570900777294 1.5153685164741812 -0.40284095753090626 -0.7363965984024285 -0.7485867127107173
P 4.851732910642868 1.0062628254003063 8.15144185429594 -0.3472465080950536 -0.8514843181079078 -0.11393535126859089
P 8.55357783322534 1.8704567139171104 12.437293976492372 -0.8568694936792212 -0.8483617133185261 -0.2895689508779271
P 6.328880703000568 7.909291313894213 1.5650537387389925 0.10286340972514542 -0.8973810806400223 -0.48248833415090453
P 1.8605674419763596 3.3394976557177087 5.924599484933794 -0.9871292931394482 -0.08370920539419777 0.4130780618778821
P 6.863561878973729 4.095325752803249 5.885746317899969 1.0409576518138135 0.811155279471558 1.6720904585797203
P 2.368268005939165 8.54348046132609 10.217535148760977 -0.6360042759255949 0.12581796163878978 0.034833819849733556
