# total energy = -340874.94734138256 ev
CRYSTAL
PRIMVEC
9.18566448892237 0.00000000000000 0.00000000000000

0.00000000000000 9.18566448892237 0.00000000000000

0.00000000000000 0.00000000000000 13.44414848073241

PRIMCOORD
 96 1
Ni 7.955566118713362 7.260679795414209 5.195182121375281 -0.5725137115711172 0.9805698947543758 0.1844195733320824
Ni 7.896180798614894 7.899423338134578 2.8290927667636874 -1.1934785766650864 0.714407495725847 0.21063145584075982
Ni 7.474512876090503 1.9385977208818768 10.008630996038713 -0.7359088601327326 -0.12649081933609826 -2.3049225074249207
Ni 2.765031943505108 7.064290291360805 4.091228769923133 0.5694093616141807 -0.19095737445060018 1.1656985783383407
Ni 4.996193074307512 5.594271680898583 7.693158326325899 0.5122905051140016 2.2156692322840423 -0.4164384937096828
Ni 3.8731537494446004 3.8166067996339006 8.445251130136922 -1.6977734651681213 -1.7072292112643825 -0.1898443438920795
Ni 0.6147285418131094 8.390709410856385 12.015290815575131 0.6750343932448633 -0.12770489424885748 -0.6228253153414757
Ni 0.012419936783470833 6.444147718972903 8.637314186275958 -0.48386130323903115 0.8710298443400031 0.3339359070290765
Ni 5.663807160116743 9.134261383943887 9.342876088696293 0.4574648155233734 0.1663650298232167 -0.7481025739854471
Ni 3.7176128948077305 5.217907455006157 2.9920896251629587 0.9348397397071125 -1.693458125622219 0.9934742615208697
Ni 1.6506087718134812 8.27512619619296 7.0969370610687665 -0.17734723986633327 -1.2287780232973289 -0.2608109049086283
Ni 2.059545363532539 3.0172519155489965 6.7342006868233755 0.8346291942237819 -0.8162414357452137 0.24915737983009992
Ni 3.3975751627813215 6.713067228826385 1.2158044306854061 0.9689328247360797 -0.7278078282921531 -0.5508256850747223
Ni 7.243502603057808 5.761524257596635 6.971906390609323 1.0917333397047844 1.176612139927051 1.904125834017553
Ni 8.235122627897706 2.339763240550926 1.0962548461505965 -1.02686980626218 -1.0198548083969274 1.0767939447861326
Ni 5.854970021148333 8.711454439038645 6.477108638402035 -0.8624207625147535 0.044092362333524066 -1.0200720666140561
Ni 6.720571916609903 1.709718521981098 7.516247023551506 0.4324554379632294 -0.10752096310181482 0.2312452754363695
Ni 2.792937991835989 4.146243550918299 0.9756516659134985 0.9270181867801648 1.2272055366038863 0.2269852146084349
Ni 7.844823749168563 8.457388148458051 10.145142828383861 0.6785544905829798 0.4017605799825339 0.7157958914329415
Ni 1.756418439596042 8.425715977738868 9.67278197994649 0.5502775258807362 0.35761962379926154 0.1963960289676682
Ni 5.2066642018274205 4.8613475214775805 12.702179180914541 -2.400053324392499 -0.13994051708310093 -1.0744141317000464
Ni 6.566656924565057 2.453986976888815 4.946573033991981 0.19174078958384397 -0.19530639544791525 2.296565650819793
Ni 1.527741325311221 4.502243158920811 4.6695967779268415 1.5270658421054928 0.8722421194805495 0.015509151379192643
Ni 3.8947492463589852 1.0674017558240227 10.72044466162363 -0.05705535025209529 -0.7081064932084837 -0.42471975988186855
P 7.245753090826427 5.4384460706665 3.4631718291211797 -0.764636052864096 0.5969929276594041 0.08276818163716712
P 4.634057442511378 1.7882743236024594 8.417300990617104 -0.15430064245951491 -1.1611747223260585 3.7160171987787165
P 6.408378741948397 8.883327404910638 4.122190888787156 1.0829445377685607 -0.40094425472882567 0.38856979232387273
P 6.149692062193862 0.9174862020422655 11.53520023057738 -0.23931673959059432 3.0562654427245364 -0.571743409063996
P 8.240900410781222 2.0498728589596564 3.3993259504086644 -0.4356999130424561 -1.519484687324125 -0.07496514065298057
P 1.724461513281646 4.42739836570158 9.024236414785737 -0.2685190721861634 0.08675981929506348 -1.1989048898869805
P 4.296392420574843 6.851237992155257 5.96229164928483 -0.5728196728473102 0.49817874830296777 0.9472648528443428
P 9.054180762038483 3.9506164570069178 0.24088118795579155 1.4843155956221599 1.5876641725138398 -0.6849958753329493
Ni 1.529211031609095 4.135670851237968 12.458866547602206 0.1171857398850885 -0.9689284538607056 -0.9953694216610535
Ni 7.361850702694105 4.417744232457421 11.107004056391121 -0.34051973089418125 0.47975730837298664 0.41746899185672626
Ni 0.4579090426970893 4.617780445262425 7.007546768332766 0.8953288260966838 0.9124377178628287 1.7557649540812408
Ni 2.070329333493189 2.995582933319718 2.9263873236829414 0.6273728255028421 0.07249842428004287 -1.1769692661561537
Ni -0.05375910067691965 2.2621351910300977 8.027850867274982 -0.1594148237576287 1.7058017347892365 -0.41332720177421073
Ni 5.38167866491112 6.874413423339856 4.176505722157959 0.5583788148316319 0.9661989707446843 -1.4479704813342225
Ni 3.5222521851628388 2.5316885117245373 12.651642411295711 0.8175254446639598 1.2962939067611159 1.2477062276603996
Ni 1.3857860682653234 6.174447427648676 13.330102011016814 -1.1326141370795462 1.901912371306002 1.1315484148191932
Ni 5.89932759435104 6.167199938467286 1.7099206065970558 0.38441411828428634 -0.8321131126701475 1.060351225849077
Ni 8.99793693915172 3.9660024448127853 2.980984156949649 -0.09836937850953381 0.12394131344136719 -0.689021965773207
Ni 8.557208763076776 5.978214079889422 1.7905992152524086 0.6881979272100148 -0.3391842999122094 -2.190287301875828
Ni 2.229755724155063 1.6824370988268134 4.684196472863347 1.07422129896295 -1.1497988763889486 0.8767911723038125
Ni 1.1317105920203687 7.666575932229541 2.62004909148559 -0.5727247991406588 -0.6831341395338623 -0.07100101379890998
Ni 4.074090157357051 5.233357742462555 10.452502506458234 0.18549300890191925 2.4270625059914908 -0.3525944026705283
Ni 7.742284177898771 4.245283384066278 8.733546880394998 1.8299397376224422 -0.22799180149607834 0.4135542301833523
Ni 9.158502352194446 0.021892193873268278 8.277023954450092 -1.9276781674161965 -1.4959963743941977 -0.9251153133304971
Ni 6.365224490777074 6.573536987171979 9.724058195546437 -0.22077060115729072 -0.367717888575528 -0.5407922120981202
Ni 8.096483395686386 0.6710936154694467 5.640680412953261 -1.8672580144569262 -0.8356514648407093 0.2509828630746129
Ni 1.464176527928174 2.214819833902919 0.6079724856750702 -0.15552345912302248 -0.9438370581097164 -0.33743543554190275
Ni 4.488602447343668 0.5341362784027566 0.06767170791916868 0.1540255344212573 -0.9173284702962266 -0.5617235629341487
Ni 2.6798349065502287 6.218924414488086 8.03665624513212 -0.4121609493802515 0.1759076792063293 0.4632127737507441
Ni 6.350922411365888 3.2298357458720983 2.8733777732179377 -0.08121086445237627 1.7463071511024506 -1.3224194002035743
Ni 5.994059350913376 2.3534958087716857 0.04926455510473395 -1.0282327480479776 -1.093643926463936 -0.4533099128147354
Ni 4.618184614494339 8.620075449968335 2.2059565863603035 -0.8941967693747697 -0.6940803541327208 0.7671467351010918
P 2.30040266876099 0.8965511543954876 12.276067233971956 -0.5473400405189671 -0.8927075864237529 0.9425975292756605
P 1.533069010641014 5.480222472183566 2.6322696993524115 0.4557928271375892 -0.4185758517676598 -0.4376647500783108
P 8.877301609089356 8.000548317092667 0.5775293568474842 1.1378884981046082 -1.525060895860322 1.0422676288744888
P 5.484714262056444 7.695005563429039 0.4010387575008578 -0.8066159968403075 1.390828999126224 -1.4658918416993336
P 3.289909990797695 5.82984722911905 12.433928387426592 -0.8026667823845725 -0.34240229262887484 0.18379222416072863
P 5.813505932219564 4.426470613601047 9.247933980420076 -0.1663172073044168 0.4594702759891764 1.0270027322956183
P 1.1633643914108285 6.556984419992174 5.616911587850895 -0.6865444507669918 0.0754744761892313 0.4784601868281179
P 8.382543355238823 6.438204594130876 10.881532738968538 1.2354592919722465 -0.15789633023057323 -0.720279895346224
Ni 2.1396351711023063 8.553451826352836 0.7751690298205164 -0.49046363904689727 2.279527978611216 -0.8635633607596289
Ni 5.9824302998314485 4.964015692048436 5.343242170955972 -1.0736579702603122 -1.3946005503535144 -1.318722410967961
Ni 4.623402071851792 1.7609929004481746 6.468127814355588 -1.4245194494001339 0.14629679831843193 -3.197669431727041
Ni 5.174220435301854 3.1333311560879515 10.760951604325909 0.843992637716553 -1.5334133815900752 0.7916359784917075
Ni 3.4535342300728717 4.804185132154646 6.132736244348578 0.5565314772102479 -0.24075835713312735 -1.507375819875733
Ni 8.019213587075665 2.191286161808213 12.087580156968933 1.124126154213193 1.1773634162707787 1.7638469597584268
Ni 2.7509595057029648 3.3824280022488584 10.671520894666715 -0.06956813800712534 -0.7306964626938578 -0.9558101713111927
Ni 3.6870521894763146 8.824879022577065 8.02781045035179 0.2191490063934677 0.7974464145258975 -0.2633845791730754
Ni 3.394479593891425 8.89154857451437 5.593303511874859 0.5714472179798159 -0.2715977111114871 -0.2537555407237436
Ni 4.83210955181425 1.033965937547391 3.981242380555302 -1.537473667702378 0.7289077462245511 0.47230753696316075
Ni 0.716807911298379 8.703903822933317 4.959075641754707 1.4382488831710842 -1.3566567241198895 -2.2331884721147284
Ni 6.486760015946885 0.8838005336949951 2.1413969815268823 1.1886973532263592 -0.23966538117926467 -0.11033323573962933
Ni 0.4120046036158696 3.4692509017957605 10.479888646186243 -0.8519923680925777 -0.5642391302671509 -0.4949131901778186
Ni 7.0213656817985255 4.328285047238708 0.23832665469679942 2.227003940570571 1.0368780824278012 1.33331599251142
Ni 4.317078536717419 2.0895641146666137 1.8996045756664093 -1.1916129842112573 0.6250318360744913 -0.4497129394920965
Ni 8.52530695074855 5.02504524606765 5.133097134520906 -1.0494191523176055 -0.05540984422887232 -0.9676886679163333
Ni 2.187685381378422 1.7488953804838 8.841382905735752 0.6502538438660738 -0.40523182636058597 0.18051561029198587
Ni 0.09442219967334645 0.4706743604605605 1.9391975447646965 0.18696085169669738 0.8753223010677699 0.6559339249699865
Ni 5.453198247631409 8.214638596371088 11.595941354735636 -0.476558856040347 -1.3717827811280505 -0.3169979936231573
Ni 3.1633590928863886 8.053329144515063 12.098577234342775 -0.4803129237661405 -0.8839452668500906 -1.1305816800305495
Ni 9.222958159020578 2.699859654858761 5.323667520201164 -0.7580116055690429 0.4781429126980152 -0.6276458766585706
Ni 1.600730614329385 6.133626335225228 10.489124831701943 -0.3006581188125531 -0.5703259598911791 1.1894098059123515
Ni 7.678893908138596 9.152026458819439 12.718137435610144 -1.1765378350456899 -0.26515169837582725 0.9833888522604097
Ni 6.883442931407419 6.560217773847497 12.427111705903767 0.6684726808669456 -0.16790409217556243 1.0086933924634691
P 0.9674341705755108 1.0566269715277345 6.411782949160847 0.7564707434444842 0.1248075180964044 1.208293787301048
P 4.091487805658134 3.093373516114504 4.694145465933517 -0.0040260904402575825 0.8065872004849013 -0.06717392674333593
P 0.37922096750891937 1.1536918868379455 10.030759261486079 -0.3939943057735537 0.23024023121062281 1.2614480027265242
P 7.362815197452085 7.816577831256297 7.612815912986185 1.2093104014910203 0.07785711748879494 1.6666093808604912
P 3.8706828057313 7.544902622094303 9.698353032396623 0.45633044480861407 -0.4456377409814583 1.2086385722349766
P 4.9978556795569835 4.196700405257182 1.3591090618260393 -0.6699940026074784 -0.9916271810098019 -0.338985553637842
P 7.566231734742198 3.579056333575666 6.712071502809575 -0.03627543739226655 -0.7476120075022737 -1.0011677735103854
P 2.32433132442325 0.4296603690855163 2.8497292803187095 0.350884361957957 0.021567955978762855 -0.37461178748188384
