# total energy = -340891.5999647572 ev
CRYSTAL
PRIMVEC
9.08673470848198 0.00000000000000 0.00000000000000
0.00000000000000 9.08673470848198 0.00000000000000
0.00000000000000 0.00000000000000 13.29935474708520
PRIMCOORD
 96 1
Ni 6.165821992354608 2.0105309158743627 11.47270130669264 1.7243710131509917 0.7684525983967089 -0.656666689370953
Ni 4.63395299935611 0.23452862215817272 6.1026219352901165 0.7418133985426257 -0.23827467147932513 0.21083045922544338
Ni 2.970026491215236 1.426998988026492 4.852349032758776 -1.1478373817872038 0.8241707178946194 0.46773508710112993
Ni 3.6876150158356564 4.272010183478375 4.601735981538915 -1.060269207658232 0.6474580262884914 1.2017125345391046
Ni 5.04844440190338 4.653116922801735 2.6691010987312294 0.4935409924206403 -0.6764060767814092 -0.7413274600451426
Ni 7.291023261367563 6.022251584369364 2.743337903741219 0.08822817631047386 0.7733914304592229 -1.1178264372474103
Ni 5.149134508921385 4.397670637404193 11.842969388886582 0.4181076538819896 -0.11620692091158696 -1.0573528053423853
Ni 5.532930921710799 7.975045388070421 12.433606234582786 0.07506849900006426 -1.0836562191236048 0.3902890890078246
Ni 1.9584548394083228 6.6259106295392165 0.4395544341488462 -0.45138132833345485 -0.3585825019331631 -1.0936644952892263
Ni 2.4447132724788494 1.5548675184801846 0.42686571783804916 1.2645089010400352 0.5354535734940262 0.6152305337133533
Ni 0.2895306271920131 9.250295906897321 5.00964041011476 1.5855707803199208 -0.31997713085613927 0.7060267278613196
Ni 8.494461315997793 2.274591425751019 1.3134266172489504 0.617225452656195 0.8230705428519051 0.10958710160222418
Ni 6.919103210808322 0.5659654523594482 4.811853090972255 -0.645193655734347 0.6568404959446558 0.3418225088660049
Ni 0.6324312818688698 7.264589950175849 2.38823194703868 -0.4434931838346297 0.410410542348048 0.6273368300585841
Ni 7.8961180106172675 4.0282403521479875 3.846412973802018 -0.5727301984572974 -2.097974928193651 0.8728846381605547
Ni 7.461126934626028 4.090757086764346 12.805975169835348 0.6739136493768587 -1.001138462934347 -0.3833244847645334
Ni 7.8712839647296935 -0.2370192961346762 7.288618002697076 0.17452622547777039 -1.2011204094810604 -1.0494641466229282
Ni 6.6091456040498 0.7596819143641448 0.3320002077515973 1.0951251389951526 0.001515665313578035 0.08865729342809248
Ni 1.8830167680732917 6.742375307966234 9.583501924341299 0.8581689292169349 -0.5741324781214628 -1.0042610677237285
Ni 9.225398253866969 4.886800478634425 1.3518398794462174 -0.48758580327846995 -0.5184552391638168 0.026384146420483593
Ni 6.627582588720817 1.9433526863658244 6.870472824133928 0.022929355102663737 -0.7863392488691425 1.7866842693679166
Ni 3.335440439741727 4.228857280470659 0.18915037782668498 -1.188141223612573 -0.17995459558219332 1.02011166160274
Ni 6.013128502748024 5.8182362172753965 4.840618966956995 0.12278200302594339 0.17506512870037594 -0.4013065231642508
Ni 5.536611049257256 2.9774321799815633 9.116787240226131 0.5306672078489764 -0.760007295842833 0.16800590786074937
P 0.33778573172401527 5.590613513476008 12.423180115207959 -1.0919701383059388 0.006954834051278345 0.09939704844309978
P 4.11186557143205 6.088902783266311 12.722389023510418 -0.006035921781434766 1.035557820954481 -0.18866523598231377
P 2.2493848237414578 8.504974668025572 1.4312370410824615 0.8337488485013576 0.6338265515479858 0.03138751317234595
P 6.48438473685756 7.787113541364674 5.822457914208938 -0.9405774135218381 -0.4088915346003603 1.0238611013428431
P 4.692744172752598 1.094797054764941 12.675122555711885 -0.8743373114466813 -1.344783626831387 1.306167457121086
P 3.8626709594961444 6.080951890419027 8.367236126359629 -0.5418355657609701 0.142757931927238 0.5285876996121284
P 4.868154499065708 1.0990587333310853 3.789890758055777 -0.10371495909216333 -0.8536227046071492 -0.27628020418882093
P 0.321932105723265 5.481754431978336 3.73972562189349 -0.31854348373340624 0.7303182534188325 -1.0588260474538025
Ni 1.4689342685867388 1.1331703353296043 2.687041947688575 -0.9339732779417592 -0.353267774588469 -0.019431626362050407
Ni 1.9637342322589193 6.4841121348170825 4.591336213694667 0.4906258756563745 0.8697016124468828 0.5420762210168665
Ni 6.148938839314318 5.694656625591897 9.165662968736957 0.5489618923931062 -1.8151610366513709 -0.19702157836680909
Ni 8.804809652347666 2.2731829818752147 10.237710474550514 -0.2339084240908294 0.5105028170859595 -0.15487554112637844
Ni 2.422269037812802 5.216003789450714 6.956812251067687 -0.6131330277543763 -0.8427268836302518 0.5576874451915621
Ni 0.7190324067614875 8.825636448240209 8.995976376600423 -0.9915922140068083 0.9686816279572221 0.4872908977458705
Ni 1.3707884472798646 1.2599030239479707 11.669851645733894 0.009251600505255034 -1.3712186810944642 -1.1449052957420733
Ni 4.089321382684494 6.68673723150461 1.609075342902765 0.9796491827123193 1.5412873850215134 -0.6265552146975533
Ni 5.416448069814416 7.618209317084313 7.9154300478382185 0.3938004445951928 1.0957936258170868 -0.09366605949659353
Ni 5.278720432230092 2.6715181701568036 5.214278218534487 -0.570215916675876 0.4575733160767797 -1.185955528815164
Ni 0.6037044788432654 7.280228220564622 6.47557514758277 0.9618810600956208 0.5604094721084155 1.0655047450255584
Ni 5.2233186108702165 5.143809682397375 6.931610192425467 -0.43120819581968967 -1.1803600370052574 0.8848554373691857
Ni 8.214598974508077 7.112132715671013 9.344711623616982 0.5183667932150685 0.7606284743665997 0.7645175250083607
Ni 4.634843499355006 0.1934711201682662 10.618112083262504 -0.6690946307216606 0.17114702459289236 -1.7209452752988943
Ni 8.1713733776229 7.360282353118419 4.576493941264092 0.02116763521655064 -0.8226167431439382 -0.5604850625413573
Ni 7.639463189506938 6.249274563679701 7.211894158404455 -1.8287981678188312 -0.4068099694809832 -1.4291700607982676
Ni 2.318007844064531 5.351496090303117 2.4482916285968614 -0.053418524830456386 -1.4511180258242686 0.5722008083163888
Ni 2.3018425430641676 5.423244947357008 11.546805445376265 0.36390519969765717 -0.7767014686690623 -0.40016392491937536
Ni 1.4145047278379028 3.265781531664837 3.761150324928149 -1.2902348450512295 0.8184806094883775 1.154380068001728
Ni 3.584389709841203 2.689827940542263 2.779923823593813 0.5150600974393387 -0.3253713052885171 -0.8168456449881157
Ni 1.242401972949263 3.2865447204146014 8.23764656835705 -0.9624140497809553 0.9575937455741768 -0.3778842875855685
Ni 3.8250155309714073 2.8969691443670484 7.321707347043801 0.04763559960009215 0.3483608242051549 -1.3346082289602823
Ni 3.8084049799715958 6.852570139462249 6.088311236838472 0.6976868405370564 1.1080017378475047 -0.8245347861022574
Ni 0.7931547189144765 7.7099853373786775 11.585666683593383 -0.3885237695772857 -0.48538313920019627 0.42687922942703255
P 0.39599353675388055 5.7948378754676755 8.130746586856949 1.211274981416559 -0.9236466992047706 -0.9914603164146343
P 8.630680555624805 1.6059713143351853 8.04098963900906 -0.42905772513559015 0.8189241247836992 0.3607823377979593
P 1.8016632324598816 3.2289620827309 10.451231474795959 -0.28984483024713315 0.14393189763068118 0.13435145303109763
P 4.017000061345598 6.278770104459454 3.746786923415346 0.17561663032847175 0.3608252752207528 0.7169909401823071
P 7.1614827717322695 3.785860791224039 10.36501199276001 -0.9175848092814067 1.4809459078189784 0.6763279152453061
P 6.266548446311343 7.776981832193563 10.05389946202333 -0.008961322958345857 0.23647181394263145 0.5810598013689154
P 2.3141278083550563 8.529163555750682 5.685553534786857 0.3503189763727902 -0.0565411296198381 0.3602742878132892
P 6.93093413936508 3.9966821225952813 1.7759695814713323 0.21101480732210753 0.038278326754908276 -1.1031521230646872
Ni 5.114286881413575 2.8660015525687124 0.5789976472412479 0.9138744503093552 -0.12907246402034547 0.6486844424964248
Ni 1.3825830288978929 1.0733251007099327 7.136140777375938 0.6569567098075461 0.10634262652299752 -2.0740428428580864
Ni 7.024645634146841 0.7409914097954836 9.34183930678381 -1.2447990813159338 -0.0095948427772867 -0.40266200875088076
Ni 2.6839760834066624 1.5883703092549692 9.002732363836943 0.9493093940781973 -1.064021989832445 2.370059606243886
Ni 6.46349433382224 1.899354717032625 2.5945980523950385 -0.35368609307281024 1.15597980838868 0.500498654685396
Ni 4.450046576114759 6.530963338840622 10.485982782916135 -1.0881607918621776 0.6671411065397156 0.6996239096587692
Ni 8.344448413122578 7.132750516665856 0.23347456093498994 -0.4765028059914309 0.26579395994551647 0.2016966152449752
Ni 7.648195541536927 3.7754564800124504 8.164487450080419 1.221859956021257 0.440234567688016 -0.22223664417985595
Ni 3.1053915777820817 8.530562912891803 12.543778349242096 -0.03393290530201898 -0.2334335413369399 0.08149599979296288
Ni 0.2517034593817745 4.932615794904146 10.088478122184535 -0.7399719744585127 -0.9317536445826211 1.0338030430469034
Ni 8.905499759365672 2.4870120224264007 5.858644926408965 -0.4147161117019374 0.2321575028379937 -0.3535230851323847
Ni 3.5419728323427777 2.4333548541255863 11.535261657635475 0.1298679633384473 1.1955624557773088 -0.5489986591683126
Ni 0.841258074977279 3.3489524142147693 12.639826043510753 0.08488522798016994 0.7042670648577355 0.08009654834227495
Ni 2.8721169250101095 8.42382104057518 7.962829181963119 1.1828298387019887 -0.5759595040278725 -0.35084836651369894
Ni 5.696419452120322 8.012837117615398 3.5105908854429146 -0.38613084386507696 -0.6125817832365966 0.09315261019528474
Ni 3.2133238123421273 8.642411530100054 3.405938053429823 -0.2460856828833117 -1.6280711155759768 0.9450627029867014
Ni 3.606434128181216 4.045977658248443 9.491124362210947 -1.0561641843509229 1.6989975673832096 0.42832393229335913
Ni 7.1875526135366785 6.157907446446054 11.329680646155694 0.4405436142880026 -0.5160340313168338 0.9323069459829297
Ni 0.39251604339084556 9.257928764030712 0.5563771299223578 -0.037515994667587 -0.5935893012944937 -0.6895927506750124
Ni 4.558942004551161 0.22372267727361253 1.5734998679468772 -0.07104446544233571 0.4103722329109449 -0.7017712950190752
Ni 6.237761670836834 5.859599033550639 0.43040045762958457 -1.0062703848442736 -0.002691687899550203 0.21368644061699973
Ni 7.702070791470123 8.846508677806165 11.43793727714391 0.2693683075603361 -0.6993369745459698 0.03536269577001007
Ni 0.2823848190376083 4.876323473545375 5.873114642717554 -0.4964689647007127 -0.37183191074390154 0.0037198720537484323
Ni 7.885731872875043 9.05963803978679 2.3709553383866333 0.7032213972020406 -1.2339289713706492 0.09241804602210535
P 8.525865071060894 1.505190339970354 3.714828877536606 0.3532520908591852 2.666016462926028 -0.8763995932923487
P 1.7358389264190521 3.259329950040183 1.6044474689289117 -0.05046149908466148 0.060945172224804715 -0.9719129904103261
P 4.717369223742472 1.0853559374297088 8.206207375028686 0.45399356914532135 -0.6079131741163337 0.08976543889060669
P 8.362122112080256 1.5175392124040215 12.441466260083242 0.11280715120141861 1.2918584966975817 0.40755121852238196
P 6.376488849236246 7.855454872912586 1.380446737574011 -0.14587539451029713 -0.853846133471865 -0.2768599879516909
P 2.059335767854663 3.1322883124426086 5.9442265196701936 -0.38819132593853145 0.6452224520897533 0.7353115928683659
P 6.812570333389399 4.015482576653603 6.06157988074917 1.5938098804002616 -0.009774819998576713 -0.6743381385087871
P 2.339834180772161 8.70836305042644 10.427186157478836 0.8384969047093042 0.4502073626300117 -0.3466883215987384
