# total energy = -340859.49172555923 ev
CRYSTAL
PRIMVEC
9.32417727775319 0.00000000000000 0.00000000000000

0.00000000000000 9.32417727775319 0.00000000000000

0.00000000000000 0.00000000000000 13.64687594827677

PRIMCOORD
 96 1
Ni 9.163204433013142 6.374837266165401 7.920005383322539 0.7512138659209191 -0.3686234311089329 -0.12861095100289466
Ni 7.072835834093035 5.272122794460013 3.247110149562471 -0.8147712789575903 -1.2968904026945343 0.5784046231342554
Ni 8.017738609647322 3.8447218303839548 11.965867428075882 0.3838592742220808 -1.065655668781126 0.8952776611437743
Ni 5.963296064805219 1.3416558321525425 11.300186457717508 -0.7551229711673383 1.8372632678670486 4.166232788938844
Ni 7.002428973375933 7.167457582544519 8.431326467864531 0.27377980636447036 0.3057293626878735 2.1534115118954014
Ni 9.363245326911262 0.5758639703279635 0.7386715605291527 -0.24515442931829393 -3.099660264770404 1.3729963418201774
Ni 1.4156711493783878 2.1567380909853084 1.615052823960829 0.5171010391287675 -1.5826986009784485 -0.2668419415940566
Ni 4.69961832511422 1.4906375326608012 1.265820435571383 1.1678996997547175 -0.009466801839854664 0.316411524992068
Ni 6.872981423735418 1.8852180560121896 5.046096351610429 -0.79159664061334 0.5378835230917575 -2.263488151539534
Ni 3.7365520527148903 7.176613924383242 11.579346723345054 -1.2369597877771727 -0.9273794267743255 1.9688476996759705
Ni 6.397476367982528 6.50203768914285 0.9670262503819227 -1.123368450111562 0.603145063303729 2.0754664626784898
Ni 6.348599032016557 0.29430179669873063 9.543082594031235 0.2597942907186558 -1.6749137869611284 -3.4412194926726927
Ni 2.383930988380741 6.700763874080421 9.596946499870269 0.21447319818435323 1.6409320306990451 -2.61044026832262
Ni 9.107595041234994 0.01065007499815577 5.583100881768271 -2.2488572890002367 0.3898355464101738 2.0338906961192325
Ni 3.656643855609134 2.3374219933791647 11.230873322965458 2.3571493259401213 -0.7253848206729572 1.4213377092380424
Ni 0.32036007423098933 7.5737119755314275 9.900385057635969 -1.275949795887125 0.5426560047797364 0.5487873144884549
Ni 7.4247023024920935 1.615823933400811 2.092461876662259 -0.11921228339681404 -0.10381986010114379 1.2912635434260602
Ni 1.694342828129816 3.9501223274765414 5.470404216153484 1.0426460952598302 -0.9106335747745543 1.4309250958161615
Ni 8.217509102411714 0.8256605376678277 11.088072619407189 0.6540007125030156 0.560726232017886 -0.22455217968691008
Ni 5.853373341855421 4.387948383870695 5.338739377216381 0.7541613785850173 -0.4731233479962368 -1.0458823428089408
Ni 1.4271025904112533 8.17570881680785 4.511479743188737 -0.13147001771824454 -1.129928876937899 -1.4011746040266062
Ni 4.572697627447528 8.136304844699458 8.436989972989624 -0.10679334090717092 -0.8179082819246752 -0.16794111606108497
Ni 7.872896843738243 3.6482241237554 7.1824051707335785 0.765471661391514 0.13514052459129627 0.48168023642731234
Ni 5.4326571503024645 4.039988745645186 11.100286358892468 0.5197011957557759 -0.5624306163035023 -0.015503494952237816
P 4.869681989876401 6.255776849730932 2.6678689623159886 0.24416404038056658 -0.15799814591576017 0.059086264639195016
P 8.922239726151524 2.4955880082572213 -0.009407162200699842 2.8338735039137384 1.8789380218980158 -0.13421107079849143
P 4.726453306592677 1.717252331080673 5.970849580613313 1.7933238861716212 -0.10413944822409163 -1.1669082823757257
P 9.553924747076108 7.358099706001263 6.0139729669370485 -1.094694222105321 -2.306221428742002 1.173322927652818
P 2.817626434352742 4.715189700746264 8.55725973518426 0.25290553401862254 0.13746223074593744 -0.2609638855467248
P 1.1239176502606378 5.65998058617625 3.597179849048778 -0.17643089869965098 -0.22236905599266218 -0.10099910282289704
P 3.673716423742231 7.3157959148380405 6.2096426866457675 0.9047472911971064 0.5027247158024375 -0.1533904719404197
P 5.790099476562578 8.786908620808124 1.1592758619578067 -0.8708267271902616 0.5480602065144432 -0.10532138434733475
Ni 3.951987162881577 3.732496035708939 6.459011274260176 -4.257810855558157 0.6346603603031907 -0.03884088412659762
Ni 1.487980142208626 8.402883065849235 7.478160606630533 0.698485682289268 0.40314717591741545 0.6730212194695764
Ni 5.098059057754033 6.072286370052498 10.059643866061377 0.40645490013440966 0.6270954034717393 -1.745957995293148
Ni 7.4131589713349255 7.876290844175407 10.845704623903282 0.6346241077486167 -0.6896968803530444 0.6627856577844973
Ni 0.9679894378686233 0.510138778895202 9.826050853555863 -0.6324903492350656 0.8218883496183459 -0.6849768491695558
Ni 2.0482699396514383 7.132361380221757 2.2235131847511047 -1.1569547707074397 0.9887102644733231 -0.3754677077242759
Ni 5.731655534968776 3.1813625801048495 7.391147386631593 1.0535432017883082 -1.5066466550191924 2.6591192215855624
Ni 3.6833949194943636 1.0851850188980576 7.697847541520701 -0.0034514488837101846 1.3464237335379714 0.09131015766990726
Ni 7.353754639507532 1.3333666387771612 13.463980153457767 -4.026881311589993 -0.30996011293976944 -1.5407016877213724
Ni 1.97356463332573 5.94323043584704 6.484449494020261 0.2256551829431017 1.1001925262157308 1.3733454976294799
Ni 7.44627844812835 8.273304977730366 13.444710809217538 0.8424175799199493 -0.2764259857380659 -0.402586675428255
Ni 7.007920913643761 1.1370647398661355 7.061084573788206 0.9349850070357253 -1.607605391522457 2.183699621355981
Ni -0.30108233823143843 5.067317246102028 5.719582590556579 1.51407174383867 0.06153472617968757 -2.4344433718365943
Ni 3.1226575615543424 0.12899905672560436 5.2874135123635995 0.09525988634627465 1.6968247281016064 2.560191142359081
Ni 2.9983569576317244 2.157987530706682 13.425468505090683 2.031825843170404 -2.282995882555159 1.772875388509282
Ni 7.77061994594909 2.8693383201343665 9.409316085592657 -0.2616210595147494 -0.694492759079791 0.8314857634987937
Ni 3.7328223819048203 5.4741031171793715 4.774550208941641 -1.2295226147728373 -0.469776800121507 -0.5145641316395267
Ni 1.25876389839873 4.288785761207951 0.7286629889103291 -0.006798768089388291 0.366950157171568 2.9749391357402186
Ni 9.11504505867811 2.409982738989082 5.738688761698867 1.6037042566958382 -0.5245250995069806 0.8277057276310713
Ni 0.7628976372759644 4.397887956579533 9.286685441775248 -1.0187111817107875 1.016544770187088 -0.01393666468575019
Ni 4.524827302600276 9.347114500657709 12.903830218670333 0.7374798041642783 -0.0023163068380024623 -0.1457596948680393
Ni 5.595709033941714 6.784830654139405 4.674764731253615 1.6611015636683844 0.31517353881990884 0.10801384357783334
Ni 4.090003631208229 7.128650357765737 0.4085192355863238 -0.21271867738709171 -0.43285113073975134 0.7382606481943609
Ni 5.836412663846626 6.197966952174842 12.376910718382922 0.8622099320555281 -0.16417213593695598 -0.4776307489482871
P 8.39210431720813 9.518772599691195 8.66932795126755 -0.4355595308098499 -0.5744281549850107 -0.009324105614403297
P 5.364777141559186 8.193312863031382 11.151558143518503 1.55937175332705 1.3844032981055383 -0.691773560376415
P 2.2305576004936247 5.316459256214724 13.024168979774952 1.398057141443547 3.639784761377538 -2.1069953865247064
P 6.675262249916566 8.97791438716885 4.765857278701069 0.49160906550525013 -0.006314886474434286 -0.34353306379920834
P 0.07458502444208356 8.546204990903211 12.146361117258424 -0.23410897013740972 -1.658049921326254 -0.5519094050572043
P 2.3031556428116433 -0.10965698390457973 2.7261133665214516 -0.3125229885709392 1.453428162014684 -0.8912189176933685
P 3.3810305069219635 3.066833713704615 2.1821212981009444 0.3421330981278882 -1.281564056750109 0.4940716681131297
P 2.917180672450544 9.246478658024987 9.20694694469135 -1.0392476111012425 -1.3329395830086077 1.7221588359910212
Ni 2.3100089129251478 2.706230491432967 9.737223148707823 -1.1035889534917898 0.19630629746733932 -2.295408397286898
Ni 1.6586032575923175 3.3340832756002032 12.393477916121254 -2.785969481143608 1.1896599742499447 -3.6771701440045317
Ni 7.586486098055919 5.437477749824481 10.406643114053294 0.9225280122192949 1.4543910401485856 0.21016711460983156
Ni 3.7345287063004275 7.9087856011081445 3.857316928709562 -0.21029181311315395 -2.76298330466108 -1.2352188938266662
Ni 4.980611723944918 5.663374586613414 7.519742706492007 -0.635638407945744 0.4770579071639527 0.2281823202403296
Ni 4.850865800639597 0.45973227789710175 3.5871498318227966 1.7398824785230291 1.311644163964941 -0.5508861059990126
Ni 5.85070662722622 3.4147374068679737 2.5077775048822333 -1.3282138953981641 -0.7641457434912389 1.369400396938803
Ni 6.147271401688961 7.992693870157701 6.56361455421711 -0.520172993185872 0.6967098213357678 0.18379968035989636
Ni 0.08439405867256847 0.982190159477966 3.679252187642078 0.5486446182630035 0.5867522237680024 -2.591687156084833
Ni 3.4568920111987933 2.4553541843935878 4.430799504225296 -0.2730678678991104 0.31124206497598655 -1.2582834889556136
Ni 1.3310449186978923 3.389813881679679 3.4477599122203366 -0.9833034916354549 0.6079687099446175 -1.1204965278804058
Ni 7.248727109495951 5.779768288418683 6.603341142850574 -2.170762087358707 1.3958465069454733 0.2846370607939485
Ni 3.97258426993019 4.2757039408416295 0.3486253844651072 -0.010764951825987912 0.8912330587607553 -0.8536723268981621
Ni 3.0530152833533046 5.1721862651041794 2.184291966512405 0.22818283446096185 -0.1985958648324644 1.5611537849281372
Ni 2.4560534976704758 9.029878025730154 0.32735880150608626 -0.8918105285307802 0.05326271597888246 1.160653045494633
Ni 8.081674491508952 7.124193401147703 4.2252769266540735 0.6161800421108161 1.4652292684146702 0.4991791645430242
Ni 1.0412681451094796 1.0633944171902219 12.382014772886503 -0.10922817560090865 1.5859453900505203 -0.49104316569945117
Ni 0.5721986363393669 5.659029520119683 11.408596799153822 -0.19430109411185248 0.04080726382434907 0.6826895957972758
Ni 0.6378277887487692 7.073936086982005 13.800129789063188 0.37370418806594996 0.023968337890139364 -1.1637710222983249
Ni 8.534381934435288 3.9803513093921614 1.4492297949096982 -1.329931135199587 -1.1493106238986208 2.016590000057256
Ni 2.9595497328529428 5.191142316996362 10.958223197736888 0.5085577775444466 -3.965250683262391 0.9598046371825665
Ni 8.609786554037884 6.249939914913171 1.8847154828705328 1.520911906688955 1.095333655461533 0.8457980663564079
Ni 6.389662707635431 4.189949484741088 0.49744391187542514 0.3570745499290689 -0.06324399556131043 -0.8149260593678997
Ni 2.5298450346477166 8.994380883795309 11.436982391271563 0.11177793860595588 0.5995930842864126 -1.0360622713947254
P 5.281307108829812 2.287705481480927 9.562133752529073 -0.7772432001051452 0.2888025050255478 -1.134717556575794
P 8.269081125537962 8.418734166792031 2.130686340376967 0.30498682809489414 0.6396038203513953 0.06822010861966316
P 5.260402303939368 2.917460397761299 12.980880555517873 -0.3567243656785018 -2.978621212577496 -1.3387348495341458
P 1.8847331988068805 1.7970113413540267 6.258866881997076 0.040573036326355935 0.28444062851242624 -0.3971266807549483
P 6.54792196428374 4.6374820094184495 8.887650759058932 -1.0681493817372574 0.7734006864306034 -1.8055152860314903
P 8.32552036907135 3.331463181856129 4.088686124994571 -0.9220634138780507 0.9309375764392289 -2.059416865414795
P 7.969924229862222 5.542962164510294 13.50179528580107 1.2738013820855545 0.8198317241996332 -1.136003108156437
P 0.2975922987709151 2.6477865498391653 10.666124704069206 0.16077108067520698 0.03893241539913941 -0.2933921812787592
