# total energy = -340861.93943266803 ev
CRYSTAL
PRIMVEC
9.39799866789047 0.00000000000000 0.00000000000000

0.00000000000000 9.39799866789047 0.00000000000000

0.00000000000000 0.00000000000000 13.75492101472335

PRIMCOORD
 96 1
Ni 7.427125701949432 2.189386002195713 3.688024728945181 1.5379544639935385 -0.6051790630146223 2.6861466580169995
Ni 1.1372988288084984 5.458686652323961 1.3703504038759953 0.12355616218780657 0.4258011658715054 0.07693589122610621
Ni 4.897287794019582 7.645986298778687 2.8580385823849337 -0.18261080225811777 0.3386104296866104 0.11572638173074264
Ni 2.925305698833967 5.604026704280524 9.77174408967361 0.5693263149820711 -0.11509697567685985 -0.20694526523842421
Ni 6.391879742471442 6.177069683139329 0.8499155428860852 -1.64291409412608 0.14294613667864414 -0.12998340587038903
Ni 8.463978719227912 7.248065630179087 12.754402016187507 -0.03953379642856417 -0.1375725310715566 0.8262417414910351
Ni 5.5605891536731376 -0.22992580065555046 6.4830798027492875 -0.06594185410844772 0.40431728496611663 -1.215725560988745
Ni 4.270563445825124 2.3580048972622922 0.7181894320394013 -1.1412761836299183 -0.16117731497469015 1.2540727933083757
Ni 4.081738853267008 5.451271631244508 4.567376683776843 0.6363930267235813 2.375839189040141 0.46527428426546324
Ni 9.001938968442108 0.8382986765282768 10.076758961207128 0.12579199349686077 0.29864083127220825 -0.1954704318296053
Ni 3.535639937063197 4.868435937601435 0.3335283999936656 0.5317519562727229 -0.14878536906824052 0.8871920559221624
Ni 2.2895404757619002 8.92799551362192 9.059651139477353 -0.07565651029305034 0.55929875554274 -0.5098919229748381
Ni 0.6057179412023268 5.860140968484872 11.287989967237216 0.38429121955317685 -0.5192458533859122 -0.6342860076829075
Ni 2.789852341650007 8.747986243969413 1.4072798402913405 2.3232837835409277 -0.5256962369969462 -0.2343213432585319
Ni 1.269068170449815 0.961950966577296 1.0752438425123987 -0.06654632046166604 0.8456651403229694 1.1643904010498785
Ni 6.150642510420165 9.178245426554305 0.3521298590843623 -0.25605307850866865 0.12357261724803878 0.5155372941860734
Ni 1.933826219922528 4.156274382013694 5.039926861111462 0.17698265743806293 -1.638193291611643 -0.9024993757031942
Ni 0.19386661893216633 3.229002031131175 3.0383241532031375 2.396021063304654 -1.215045761312901 0.5357873026843611
Ni 4.522533192543999 5.519425918783402 7.217895234524632 -1.152308273074364 0.2910761315510729 0.6589094626585427
Ni 7.168793510020432 9.113822144552222 4.772599844499136 0.31012697753493684 -0.21750118637739962 -0.011286885767728948
Ni 8.375797296175314 9.435496848617479 12.151234691868531 -1.0507828654343516 0.8753500689819118 -0.3408236352878453
Ni 8.540891941679416 0.36087845619825587 0.7161679224903644 -1.1173073315191469 0.4953479637223921 0.10648660830002951
Ni 9.067067100356688 2.7010694466720797 12.317284174054093 -0.6108871691429931 -1.8589371532960564 3.866361684803961
Ni 8.845885197815615 0.35303206697235645 3.12017978324106 0.05751737749017836 0.750033986680205 -0.05306474103546345
P 4.193302497416789 3.7701763959463515 5.776310818892079 0.02444733440908693 -1.1105540719557132 0.9884603532460461
P 8.428877193585638 6.662410536886031 1.286085126937222 1.963118510501677 -3.352915725929277 -1.4712181390082533
P 5.265153662350376 6.9950057155955525 5.731414698865769 -1.4115726594314788 3.259540972420857 -0.08934249242057517
P 1.606945024503636 4.743207603148076 12.620387492624923 0.7956062759933653 -0.6489140420087276 2.7711072193197954
P 6.687258845801204 5.984279135073572 12.273598516277508 -0.2750175354263134 1.001394801919527 0.2590520132359926
P 4.489696584620544 7.336848525157015 0.7022053156237711 -0.6935921016423926 0.7286046131618354 -0.22612260949782348
P 8.457381324046954 4.00397981092051 5.794054240689298 -1.2614166352679566 -1.7340018513725364 2.045785133563973
P 9.176356428788816 5.128459769320424 4.198345463590723 0.32404435894697736 0.11902125043193051 -1.299537353399078
Ni 8.645576250683241 7.117452242394263 4.8612370704951475 -1.3128243003159712 0.10516788948860598 -0.13946049212288886
Ni 6.388092348941634 2.3791785886336556 1.8154161336227082 -0.605410719409454 -1.116971802556599 -1.9990033973237444
Ni 0.7101748186343864 7.774409952835359 1.3188249354726942 0.528268882820129 1.576493243498685 0.2986719416204598
Ni 2.879518648518262 1.007850792879 10.769264602235078 -0.8267693318597309 0.5178363746328953 0.5235673635794015
Ni 8.369679198934852 5.606940083918838 7.456391070316244 0.09702057779112323 0.13830118170746505 0.6513139096994718
Ni 1.667280177013247 8.045457637185779 6.883306740262573 -0.23787229383458383 1.6873152459492746 -1.2445599687219342
Ni 9.408524591965987 0.6529240893418556 7.694613424341807 0.08545935531608508 -2.0341166960871098 1.0270137880392118
Ni 3.139213550278087 3.1332646170166254 9.30098141171708 -1.5964989971966503 0.665740369537447 -0.1732789833342306
Ni 4.593093367784211 1.5708849029803686 12.373294367500632 3.386705420785213 0.11982034929445816 -1.713078728066624
Ni 4.109707297794828 8.809937852278347 12.71488437089348 0.06298071459759476 -1.7492801176878456 0.7347012129778766
Ni 2.609448356046504 6.834074383574591 13.31334705699652 -0.7855434924407245 0.18779543178285077 0.08131653679230512
Ni 0.6571531888168284 3.3242131573110605 10.690476479016334 2.191987058175754 0.7259316943153626 -2.2014235209983055
Ni 7.002702676640003 2.3397821775245764 13.228066796183754 1.1120386269210396 -3.403413991789145 -0.08657007188176058
Ni 6.414106009712133 5.425154592486844 9.749309186858822 -2.206145351954007 -0.3240196763566291 -0.46284767710184155
Ni 4.101888162765545 1.6033831829458258 5.86871570262035 1.20594199923942 0.8279818641105934 -0.6539660026103382
Ni 1.0120704943551393 4.6510602245878365 8.875184398978227 0.6341325128241789 -0.4456415976362002 -2.5582494452516777
Ni 6.563327435186836 5.501099821058521 5.846790171342325 1.3952006458313584 -2.3589933211273952 -0.08780908649518425
Ni 8.313751707878048 5.039498312364665 13.675967902178465 1.2884936939904068 -1.128073311786399 -1.7725629994751861
Ni 6.9062604126129585 5.702404956067222 3.46489180184632 -0.22013399601455635 0.6274131918224742 -0.1565315886725627
Ni 1.6879087844522807 3.2857753420829754 0.8833066327407031 -0.19062621636342655 -0.5913943505257041 -0.5740018660808696
Ni 6.751964067768286 0.8805558384822043 8.517707078557732 1.3025838535348857 -1.3088655727785392 -0.2283522701592906
Ni 4.106079670245185 0.9179373186414298 3.141197467831791 -0.5834632686040855 0.324587375934641 0.04985523295923027
Ni 5.3554778291369605 7.86050502014697 8.198881847738722 0.6038932543236631 -1.5047800341240989 1.1369096791311066
Ni 7.953723770574203 4.218902646238623 1.9615615940792823 -1.622201801279393 1.3607792309286952 1.7028801902670672
P 1.1972862553612782 2.033689355524884 8.986598614946558 0.36501205960859073 -0.1792125752098462 -0.20046865637514508
P 8.437147432558918 4.636831654354261 9.593644493384026 -0.33656820244560104 -0.3002752815518377 -0.8208743065315346
P 0.6862841658003239 7.99452048350944 10.986633736649491 -1.0119280973506832 0.9403928083148577 -1.5229909007051707
P 4.61847736263288 6.976754801861337 10.018245140871405 0.9011788571195577 0.9661223518704781 -0.1812802563721523
P 7.787172435250944 8.148732246364611 8.143669544393129 0.01962574465072749 0.12117429221919129 0.4608884964929418
P 2.6037907607488737 5.820612985392127 3.0419141887574477 -0.835909346487786 0.6120112554451073 -0.18811064903042443
P 2.678063145528228 0.9242405564589058 13.173720988330585 -0.21328432008257459 0.913312407158298 0.315921729839843
P 3.411548760468664 9.488407582048804 7.210549758636545 -0.035793869770157714 -0.5938883205921514 0.18855673542890755
Ni 1.8825695342858584 0.9520642718046931 5.496659266609799 1.195180904068174 -1.619709373874843 -0.6655002285021829
Ni 1.0362233513566503 8.826929434168905 12.877893600456478 1.6563524790191733 0.2958892366690001 0.8149350582289642
Ni 6.3370800112746295 2.8006224483129376 9.837643797292403 -0.09423427329523772 0.7494493178213286 0.36832621158348827
Ni 8.325658972399804 2.86791211995917 8.068719563897895 0.2585642749662966 0.9963775512105938 0.15761016644872208
Ni 1.4570469431129363 8.809505544332017 3.5557845475623173 1.131742018887238 -0.06897447028718443 -0.2585714740551482
Ni 3.0342285053115976 3.1831585928224704 12.371520025320912 -1.2674013920964817 0.13233982191770757 -0.22149719491067013
Ni 4.5484058833319985 1.6046049227941512 8.54997698715154 -0.6960089386140014 -0.8741830452570041 -1.258142078281743
Ni 4.539383804452057 5.644861009211094 11.82342779356456 -0.2553352265060377 0.4252733183924934 -0.4271299119852579
Ni 5.586809570417968 3.8239799392668377 13.172139305126947 -1.6092917780859446 3.221004506908556 -0.2656214389233941
Ni 7.140430349541615 1.6614346217389513 6.237911387786052 -1.3793665070125793 0.4057159650858561 -0.14127980471981474
Ni 3.7125478671007226 3.958051790622306 2.8399239396338007 -2.654893613539989 -1.2128904055327951 -1.9485192725312637
Ni 7.532223522901922 7.9783935175115435 2.323384549160282 -2.166851439450391 2.4504999110788246 2.4021575152196952
Ni 3.532707761427216 8.496082283242371 4.912225913165069 0.6708131560746641 -0.5692872342140196 0.6001062764774052
Ni 2.1762100078314646 2.7426837855058115 6.954392263637565 -0.08017008189268773 0.3694520976578153 1.3730073975637709
Ni 6.296320890334726 8.112643930844845 11.720774392108607 -0.08180170395883976 -0.3885402246375179 -0.1332996147278156
Ni -0.054613650819914435 1.831970708567518 5.875744465947755 -1.1724142997956195 2.771332962177356 -2.0344267711283606
Ni 2.8647449943523573 7.674838155196834 11.062615617416618 -0.5321697605364318 0.33727242760147724 -0.12901332864763587
Ni 1.438288537441724 6.365433773754613 5.078192692960898 1.5955577163293035 1.112669061416187 -0.17980367182662585
Ni 5.7297813266685464 3.408823340807015 7.4570103984393565 0.28273470156491304 -0.20808503526982228 -0.4983414991330773
Ni 5.594656899443751 3.511186344099021 3.8539501575461443 0.7908073119428252 -0.013192330320557924 2.066628809782202
Ni 0.7639558067576729 7.0276637615411754 8.809284691359434 -0.9528426040424363 0.6004256074900369 1.0063860844865313
Ni 7.585810912249243 4.301022360043761 11.541011350025533 0.014255995698381901 -1.2271309746122092 -0.9351631844848023
Ni 8.170742359632136 6.779725756321774 10.294816029136138 -0.40185802479234667 1.9631012841104962 -0.960823565365384
Ni 5.001145079126079 9.378159657735683 10.112012734430499 0.06368185442967743 -0.5091912973633876 1.2356025024183301
P 6.845662116136015 1.250836052713266 11.274743487881718 -0.5211759805290895 -0.8021463911047282 -0.48950204646457635
P 2.1354508868915607 6.073381562011829 7.423984890739353 0.6987001122929193 -1.4001291934812274 -0.07131443127427073
P 5.585728800552142 4.34863262213312 1.786805805774576 -0.638845859139448 0.2859038433215141 -0.14299370208712792
P 4.493267824177187 3.6405122060436876 10.803803187747237 1.0357560530082162 0.19733833827627947 0.5978334212828286
P 8.709482642749494 2.694707001461954 0.834437038807685 1.5811785647894963 -1.7107583074635635 -0.7186924962544461
P 0.12734288419084536 8.97698728153977 5.3605950395016775 -0.3092039515000352 0.35150682603330435 0.13603089761604958
P 6.212951242684763 0.4398592383930798 2.9617511383093986 -0.017916218158788497 -0.578481756229094 -0.6097849372177498
P 2.0462262859684697 1.8848814419988436 3.505056969259961 0.06011136346959971 0.09165314283162279 -0.5783274900394169
