# total energy = -381162.2570438039 ev
CRYSTAL
PRIMVEC
9.36874397426000 0.00000000000000 0.00000000000000

0.00000000000000 9.36874397426000 0.00000000000000

0.00000000000000 0.00000000000000 13.71210381349224

PRIMCOORD
 96 1
Ni 2.0229834800951636 0.4116326226131978 7.4792124545825835 0.5684405699430081 0.30622969936305966 -1.586638816573119
Ni 6.1489595123416425 4.768109732331796 1.295368424699831 -1.1609312388566844 0.7114134460945296 -0.36699360881499377
Ni 8.072831051771464 7.7718039447180445 0.06125191009319809 -2.4470016681175792 0.893969483855312 1.1313154728727806
Ni 8.172664385709444 2.3373048346014724 13.023042931102067 0.28616918116775875 -0.10977093547825612 0.04635236201229436
Ni 4.327666348783343 5.088923626291842 8.533384443887659 -0.1292077040466291 -0.10185142352086331 0.19157135388551524
Ni 2.0021661313704837 7.800116288483113 3.1996236883601945 0.2243799157751039 -3.2411282742416248 3.0526841531311812
Ni 0.8981627306650016 -0.20958723068629453 2.2018075036381823 -3.2822250442819345 4.251578244384884 -2.8668694992237853
Ni 0.5383139656602307 1.3833324971169751 4.481458025765844 -1.478995726071143 1.049290340049225 1.2949178523491955
Ni 0.9428891135685223 1.8140042808815204 11.755057470782297 0.2840955864681817 2.1576959982033674 -0.5705843557588882
Ni 4.747620289640133 8.517115620278116 11.072811494115198 0.4352625683947213 -1.0752543682131546 0.6877135313744285
Ni 4.825914881580795 2.295454656044701 0.13943407710825462 0.3766432160896158 0.631089612232797 -1.3912241776821137
Ni 4.756211427705178 3.6547001128506262 5.257083208766767 -0.5462941157529558 -1.0460839172967855 0.8380431050013374
Ni 0.7490057712406025 0.22152863153439414 13.40123663334257 0.16711270662251865 0.03883497058932667 0.6574182228249968
Ni 0.4388553814742703 3.332443432345306 8.471227513143335 -0.5996365359298382 0.34600517948878473 0.3473894614308211
Ni 5.043447743884282 8.339624768977906 6.275440364271345 1.0024047312412803 -0.053225434983043815 0.9812985453902842
Ni 4.3695446335715165 -0.021212709713060635 8.904146858545618 -0.474357477513654 -0.13107792448614847 -1.5451165289596163
Ni 9.019598825273386 0.3860044239469681 7.781097738568127 -0.4681225523475357 1.9317531088165183 -0.45215085950962774
Ni 0.12284203183759372 6.860009691823335 1.3831535541103859 1.1163508811431484 -2.009861937304803 0.8780366146751394
Ni 6.1796140420568335 8.944780037282705 1.7193743472503307 1.1966400051122037 0.3388577698107261 -2.2719481093814293
Ni 2.3458210227161143 3.2764745568812015 9.97847570013744 -0.4350303977792572 0.6043809925933591 -0.8928834498799848
Ni 7.566328655685783 4.6002405809146865 8.959954591616352 -0.5446516950535265 0.9136618200779167 -0.20631920161865114
Ni 1.2319523347887205 1.3862368076951257 9.426824390802837 -1.2679953169267388 -0.4491807211377103 -0.17320390712192105
Ni 7.129810775789734 6.358247880100701 2.710018758593071 1.2485842593899787 0.7126532320389016 -2.8480875906305916
Ni 8.621708276066743 4.661146784361646 6.760204464116757 -0.6136775874039366 1.0033038460167818 -0.1377496800793692
P 1.9384961485023802 4.3985315268902205 11.683096149650764 0.22530577002348293 1.2960092856411614 0.4164474925707473
Ni 1.1310322265698842 6.037003023925833 5.35544002868179 -0.8147370832855452 -0.10910553398011531 -1.242428524201228
P 6.231676151356134 2.6082957490305327 4.029713126570864 -0.628406408973679 -0.4044815784581227 -1.0148074757810073
Ni 2.348303739823243 0.9595373713019861 3.470985605043754 1.6764453931143062 1.5563931303147003 -1.8805326200786452
P 0.6510621129271807 9.206898751332705 11.124944805867385 0.6323525381056206 0.28087810797214857 -1.7872931065965092
P 7.812904623770777 2.447321993050581 8.726834950251996 -0.09908491651931968 -1.3566654658706379 0.02598588254080041
P 4.134229895534706 7.043084314428635 0.6224733912199973 0.07013583758513726 -0.00613902301820233 -0.007228656537955292
Ni 8.530681561301218 3.2515443296281084 10.785570493564194 0.21764516815443163 -0.11701990373118556 -0.8339779337930282
Ni 7.672710741540302 2.591741178735074 5.627104555790106 0.34513820350279917 -0.4596888197578858 -0.17022888365399716
Ni -0.0016189189287239985 2.609635479394002 1.7241046259951962 0.3071591531558645 -1.0461376533528564 0.17762389056648764
Ni 3.3490354776159665 5.58035171360254 5.763553751123525 1.095360137824094 -0.14443120586460287 0.2591324887649408
Ni 6.403377118987643 0.7309231588312843 7.647857337986374 0.9736744531861231 -0.6591922840062842 -0.5014340220154719
Ni 9.125390680268476 4.076546539955114 4.474986097548467 0.5371577006693264 0.8020787710915863 -0.7592310797984408
Ni 6.127711201402139 3.003094612783017 7.318026028118361 -0.21264771493984025 1.7079894864691745 1.005333217741985
Ni 0.20618543981233806 7.567143736396425 6.966612880031547 0.819617551306298 0.21138324640511982 0.3487146080001478
Ni 3.248031050702926 1.1479709153611632 10.790657721447861 0.5613178428552977 -0.04408413480340795 0.2915600131660269
Ni 5.78330681055247 5.315918919833819 10.482848580757269 0.3373091943766836 -0.8574760169149683 0.7817899389355633
Ni 4.088098201061113 0.5424043592035229 4.778257018742103 1.0854729606173692 0.6251997291109231 0.8481259431586361
Ni 6.162047647430921 4.072883361129124 12.744042677597973 0.49477383638647693 -1.6916753226901833 -0.41817013168880884
Ni 4.009560021781638 3.331047489519033 11.567667604782494 0.5599389602299002 0.7491127604175164 2.192211001261102
Ni 2.652600538463032 1.9016207729036665 13.263785919296879 0.36293255137174263 -0.5877996911959102 0.8461307671054783
Ni 7.271569238234889 7.789538976732365 7.339074784814912 0.5906147920472021 0.5975477717216096 -1.04553704365438
Ni 8.286475885397747 4.529422246526812 0.8026202813876444 1.263820616723759 0.9809337058516977 -1.8937863997647582
Ni 5.945151859705868 5.45796781333679 4.2089165842378025 -4.3053050444843795 -1.5364688805869475 0.686738826165985
Ni 0.9932742177275367 3.170710808117514 6.219110792170922 0.010689618503362235 -0.28188443774947586 -0.425028549371539
Ni 1.1596443701365688 3.7247127352716585 13.510741321505792 -1.1607733731225813 0.03674852037394316 0.0484696654656133
Ni 0.08069017973044665 7.5650919815041195 12.194955593441563 0.23257196466759303 -1.9165720302007059 -1.721449982849455
Ni 2.479016453327625 8.264824718474825 11.9674712514732 0.407589270849169 0.6336889975288571 -0.17725339460094633
Ni 6.307066432718646 0.5023108201093427 9.942920380540214 -0.2200910585917629 -2.2493005471852427 -0.9649918378104608
Ni 3.2271855957468447 7.219151116671171 7.7077929395756035 0.518627760185939 -0.6417738314195205 1.6045275239280818
Ni 2.9145599838684233 3.3775633024884466 7.6753499166689 0.17895495067308537 -0.2851805920022443 -0.01131233968902568
Ni 8.168551507181029 1.0087513824859398 10.923541172890815 1.3477594216302595 -0.6924361336610785 0.5543046447622584
P 3.542050337393581 6.992633629063016 9.831496036772272 1.0990612408247653 -0.20969403162815498 0.8260072568827258
Ni 8.274793061878542 5.229998170439562 11.756236995626779 -0.21737494521218045 1.325186678536066 0.43586934874078487
P 4.400011788410697 7.143142498217826 4.575962418230106 1.052217283888033 1.364129635458167 0.22960876827421103
Ni 2.469910034353553 4.098113388183832 3.8048342322534157 -1.5445969090107203 -2.0117588972172 0.9510392322851106
P 8.337132683126978 0.4892011369093225 0.8182970003889978 -1.5973340915034362 0.7616862262071528 0.7355525052345783
P 7.004091602731011 7.06844550389655 10.907155239983766 0.29831070162629914 0.33316303341879394 0.5137732603071151
P 4.595228302981426 2.888683513491481 9.581167886795184 -0.4709451093979954 -0.06863637022147534 -1.5620914662510583
Ni 3.866874053700235 5.781601699180782 11.868579476287168 -0.24347729872618715 1.0268425525686702 -1.2214370095512255
Ni 7.869679211201722 1.1453382983532265 3.2866265276634086 -0.7530961705452964 0.10401912059614345 -0.631543411940764
Ni 8.726197875673565 7.96330106799998 3.2822934836556836 -0.43130821173266365 -0.01266448284154593 1.9793935935126166
Ni 6.417299072275165 8.399743997945626 3.805931312152453 -0.9468164524530145 -0.41990742609488974 2.1008342520193177
Ni 1.6890158698392355 5.233473974389542 7.561882249878072 -0.3737237284499757 1.4636243858213953 0.4261094411405436
Ni 4.082814229557639 4.833316189183179 0.24855652052441649 0.37852732048620613 -0.14153871480815622 -0.06209625511011241
Ni 6.663256703269327 0.17795928849023354 12.727012175117448 -0.3374017540904899 0.40339837269627304 0.11475373340482815
Ni 6.203494970004272 2.346739159608562 11.003058385897441 -0.19520483687304443 1.9510842050449624 0.9262874792617273
Ni 4.632225472249545 4.042968962174172 2.822719125266638 0.589470908250746 -2.3901414645954255 -0.5975858240483967
Ni 4.8519037768833435 1.5291101506525386 2.2197561430111534 -0.4776343484927129 0.04663312647750679 1.8536517365274012
Ni 2.08054504200535 7.921628895575418 0.7322375935864927 1.86968050785549 1.9935860829629146 1.6188313421452636
Ni 6.394345649963974 6.230495689637273 13.083143422582186 -0.7403211302678153 1.9482955865562317 -0.3297666061427353
Ni 6.049088703428461 5.793612428733005 6.9296719232262305 -0.002307822197570219 -0.7643018094531289 -0.6858605373260899
Ni 3.5342836487829783 5.91474091732949 3.146612525313904 0.3177425850986657 2.4540323497121155 -0.7718906775439803
Ni 4.198902333989462 1.622938119814407 7.133598558908271 1.3029831458558332 -1.5572115124509374 0.1518843197085384
Ni 7.641728305792095 6.232069638595754 4.962149532681185 3.5492351360227388 1.6770400892755117 2.3420142700708952
Ni 3.997877198262432 8.717616106352319 2.696732006135221 1.1091898446183348 -1.2838304841867825 -0.2225590605162812
Ni 5.851492527932408 7.15902251895965 8.91382758151466 -1.043359833497403 0.31257929573017135 1.132511807173727
Ni 2.146163723583955 8.688825956653424 9.455236043252189 -0.6547141936302724 -1.5876952828620914 0.9897348490830954
Ni 4.055429391428818 -0.10565038696370173 13.954807598281894 0.6225527784063795 -0.07868115605198707 -0.5128198952549105
Ni 6.868947473408999 2.4260268383920756 1.2753371135800116 -0.10368307741296336 -1.2456786557074095 -0.6351789518108222
Ni 7.579201309667652 3.8636886808080697 2.80289111588729 -0.13997959785115247 0.17817590641521572 2.65338000510894
Ni 1.924293132900843 6.35011581048188 13.15953334890821 -0.765295540824966 -4.137856551788996 -1.764597721881522
Ni 1.4525300388273654 6.261899718856503 10.245683515819863 -0.16629226760375232 -0.686396612335218 0.17274779342110894
Ni 8.013142785018566 0.1534010003660193 5.5957726658981395 -0.4506400792920561 -0.8494364344399435 -0.1595498066735962
P 2.1676837280936714 2.618301567409452 1.6545576301410478 0.8288562962957468 0.10412299316385938 0.152713243367737
Ni 2.2115013428485453 4.9622488413654695 1.4967448883193795 -1.5195445940277832 -0.35459112138558285 1.013275355407197
P 2.742887122468316 2.147437872740821 5.715163252519634 0.2965214709363603 -0.35403807709559026 -1.4311827203529224
Ni 2.727466170172716 8.096299754991682 5.815028440186536 -1.6435183033689824 0.6575601477194998 -2.4002543846597115
P 0.6016616637415976 8.668270932755158 5.033150557573168 0.42840955002862996 -0.6982180304501782 0.05877104739162137
P 0.6540854065515975 5.6436001029996214 3.185321364074372 0.48793007399176613 0.014184004809865893 -0.1621201385039337
P 9.238855536436164 5.984613008593516 8.512693573204286 0.006213585009879622 0.1672011525712669 0.4973307984803757
Ni 8.628819152611312 8.348806137902383 9.474994723927416 -0.287609256048395 -1.4980010635290522 1.2450834453255717
