# total energy = -340873.5729345203 ev
CRYSTAL
PRIMVEC
9.14405766635992 0.00000000000000 0.00000000000000
0.00000000000000 9.14405766635992 0.00000000000000
0.00000000000000 0.00000000000000 13.38325269023205
PRIMCOORD
 96 1
Ni 2.067380028839716 8.135523092303368 10.1843342829611 2.015645376755799 0.6019932090874729 0.6154999853246561
Ni 5.432548749585905 5.109516619554411 7.325430894545953 -0.7759854164386443 0.06394410695212857 1.5126980034195947
Ni 6.279507959596297 7.471271301268808 11.489134638391453 -0.8654916881305934 -0.24272113728645292 -0.498818952990128
Ni 0.4004036607317662 6.749146768394599 9.403421688061087 -1.6313379592527066 0.08914554591842067 -0.7525757792654523
Ni 4.354427758297843 2.479429561590281 8.655056452507585 0.05144726003669849 -0.22139563633579934 0.05351262720615945
Ni 1.1657667853365763 8.483235034347063 4.131865048978779 -2.100745034739621 -0.28113444695732875 -0.3514574608526076
Ni 0.7330535107611981 8.311454764446657 1.7755026181512255 -1.051277288572267 0.6360551837681885 -0.2661641988007416
Ni 1.0823089697621586 -0.058307084585326414 6.369290719953539 -1.1648786535402067 1.0562161206347809 -0.7557629187441823
Ni 6.307260175030543 6.2921359034232145 9.535608187671452 -0.9942772170381392 -1.1788633978550729 -1.2966605460719154
Ni 1.4258420773895604 7.989730234681091 12.808508793149352 -0.637993795551798 0.8679720313502859 -0.31011077958502076
Ni 7.604107028983234 0.9935384566037883 0.4877778762635108 0.564369485197428 -0.4008982319822386 2.557595613717763
Ni 6.934944878908086 2.879911861219159 3.12272774416765 0.19359146963933754 1.0427533102616557 -0.3838137656961261
Ni 1.4070876148341611 4.483880184624898 1.1409205514723486 0.4294552176843249 -0.049163863319160485 0.7685919521880505
Ni 6.984057613371786 1.9284817908014336 9.453728636473953 -2.219391675440952 -0.174211522450829 0.40763555070607216
Ni 2.42195001423619 3.3249897307567076 12.243240513434122 0.2257999360510821 -0.570076048663902 0.06545822960380984
Ni 5.705489730968702 7.526858028657533 7.344568493123328 0.6073629580398185 1.1724482383573485 0.08786487943378417
Ni 3.568459413838163 6.540351352504794 7.9739293027962885 -0.41151148872171056 1.8234852402463497 1.0407095403587496
Ni 6.689856697595374 6.127853760921846 5.755227004580395 1.824769249165096 0.747710480753351 -1.0229403893007867
Ni 5.124704899566364 0.7099336750103097 10.920962205917766 2.318889254017658 0.309205494161932 1.7859538189597952
Ni 7.429812143186808 0.7409338597764313 11.64744479674122 0.6376073587466567 0.3694523547681315 -0.9267353654324234
Ni 3.734990994559243 2.2664735993997898 6.030881942319333 -0.006288918332505298 -0.2912640791921629 0.5808096330313223
Ni 6.866583902767585 7.115402859664208 1.787066193649791 1.3424642346695912 2.2515752021520323 0.526891542856628
Ni 3.7696561176930894 8.18777223859374 12.294552393799613 -1.1573198673563425 0.3374714309861607 -0.8896099213350356
Ni 6.9221889182719165 8.510731216162805 9.586142823123629 1.4870245099128905 1.255127202714819 -1.195031522974503
P 8.204332127276249 1.1744810724235075 7.5563723040305515 -0.7069024455980535 0.14375269174033953 -1.4182454434659637
P 4.520858754383082 6.511657299116766 5.769439613624694 -0.07341913632209937 0.5127648736472589 -0.6063527716077493
P 7.916303450517337 6.570535887314825 7.631023477534221 -0.5559447514688425 -1.07162191366689 0.9425774746710025
P 8.992632206475873 8.38027294347734 10.976368795367756 -0.7205930557112686 -1.2763172065288728 0.7266693438123356
P 1.4227788180253194 5.09199660480251 4.904359624264699 -0.5327793690959727 -0.29950883569945835 0.3675677361509089
P 5.927269708939768 3.8871664045285055 9.042033893166172 -0.1634350006606153 0.6961732321060075 1.7624490509696358
P 1.9310604151020785 6.635495273952347 1.4853269166200043 1.159924394858725 -0.38290513783892766 -0.31551755242288887
P 3.2391270279799156 1.212090582170147 10.61673391635381 -2.2723463732611124 1.009892554977893 -0.8498385549743687
Ni 7.1765674623131925 3.1730246341169304 0.2655882445028381 -0.180227903848238 1.776668279892811 -0.5665119854617277
Ni 4.484209370705831 3.8910251969216687 0.28000568044194013 0.37348024498060195 -0.06726262980240029 -0.03701154422734271
Ni 2.9263088105151596 5.678688497546042 3.3105887541216523 -0.29283219501023117 0.07004302076101486 -0.5870368448879568
Ni 7.9578083288883565 4.671232784965015 8.787724843964204 -0.17391044627064242 0.20660819361397964 1.209796854209136
Ni 8.235915702930246 1.0064681543382274 5.361130000515844 -0.17919123505360754 1.9916487567308863 -2.1793194900104145
Ni 7.364386409601298 5.221586191996621 3.78481056469117 0.15952718096577687 -0.8058094417786122 -0.3083135784752819
Ni 4.762033278955807 3.2838780468712487 11.15697582426608 -0.21450302298102414 -1.1312668790230325 -0.21273718932985294
Ni 5.82093346074048 8.749336260492688 4.686145828837077 -0.010155343266447028 -2.58566177582636 1.462821944524758
Ni 0.17999620583703566 6.2024326963688665 3.224293537410745 1.8564776360119704 0.471424105916943 -0.8259820600717453
Ni 3.3729045936481232 8.239929944306073 3.8106406991750768 1.6084687679640168 0.111902122888646 -1.0815409725528147
Ni 5.785033889803134 8.66415021799337 -0.07943260132922661 -0.14082780478406068 1.4258173422759508 1.8703852472319982
Ni 3.1295537833181157 4.790169544817808 6.4109263583511495 -0.925353140372916 -0.8904699553424857 -0.28423159782541374
Ni 8.041759923584173 8.073480660105227 13.169883786363343 0.7867184865854322 -0.3626186196757497 -1.2509617584832198
Ni 4.303833686469941 7.087239161628796 1.3735234362598807 -0.859868685516861 -0.22192194115291455 -0.275126550200352
Ni 5.912374038777532 1.7508859001378705 4.864558283862511 -0.12469387533667557 1.805934118736464 1.581236157500309
Ni 6.044972020989062 5.055822712131052 1.8579966500331324 -1.1955136048172441 -2.3435813574476994 -1.104899444773097
Ni 5.514479507507104 1.8304483470879096 1.5591222063132466 0.41268288332199243 0.27066080111951446 -0.6492559987291786
Ni 8.916928551918998 4.5795361733094575 6.719382860243538 0.27441255485246285 -0.6829166242064175 -1.4344228245567747
Ni 2.422754691322916 7.032246797997313 5.500543963414257 0.25190511777856617 -1.5044473333750283 0.8434388220956119
Ni 0.9726168523489107 2.300434630082751 6.314767446487385 -0.007844692855399392 0.9582416635708205 0.2310673550976085
Ni 6.196644507779121 3.0547462464260033 6.940903146972979 0.619084617352121 -1.9664079798862262 0.40122836162814773
Ni 0.15981709907581892 6.769675178163917 5.849472065145845 0.035377351058029395 -0.6784367340581928 -0.48397134645433415
Ni 2.0734425391635725 5.726786241593532 12.377126893390193 0.04434638732585911 0.33940875721818964 0.5292731557149272
Ni 5.361700589722796 6.538604837464286 3.5709063637064347 -1.2385186476238605 0.43109609572185753 1.2451094134675007
P 7.418903282226988 3.575655787329679 5.231044805388773 0.1399777980789396 -0.00887853343655245 0.01772904184864689
P 8.208035470686749 7.776509094814292 4.2407643765804455 -1.5690987508068268 0.628400238326092 0.00621924143683445
P 1.1810830821577827 4.913330859375915 10.599362035338332 -0.4656560930849142 1.6207427002353636 0.4756677116846454
P 5.20680025052803 8.772790768759192 2.572381652382286 -0.19050306052200094 -0.7811121961422484 -0.7713366048127233
P 2.2292389960231023 1.0835068413344442 4.900987295746693 1.2635593926425723 0.5793338198167443 -0.8458548877362723
P 2.3584262446738498 3.1802941600708765 7.75994463410288 0.14977113002027753 0.4992380428054176 -0.23511041481873057
P 4.229172454502688 3.8831887393838933 2.8492673803016015 0.8169042661401931 -0.625909096473122 -1.1602488680776792
P 8.661425288767866 2.670549513745524 10.972286887964183 -1.4408729510574927 0.7905805406439997 0.959368320976096
Ni 0.9520701544639851 1.1098965921559374 11.172245486392487 1.1643034977630269 -0.6003921831489402 0.9133576585739367
Ni 1.7546623960108008 5.202968890308276 8.471492235315544 -0.8555849705398426 -1.3283848737583897 -1.0128120426175333
Ni 3.6238906922442244 8.808617187234109 6.400032127883815 0.27953059280531856 0.785270441284996 0.07704696288267376
Ni 3.746521651449715 0.3643010917111772 0.939227325278681 -0.5051405243327817 -0.5199369659156658 0.5133909372670319
Ni 0.4272853618630988 2.2544948836769363 0.16064189308971316 0.020023751420094545 0.03489758320813345 0.8477883573135592
Ni 3.4075331405507545 4.860661086426571 10.114245994301479 0.7358911195209197 1.1848206438797724 0.27312700327181993
Ni 9.180085391451831 4.3367888707944955 12.558054878717428 -0.7423047363567474 -1.2137545533053031 -1.2900425265347653
Ni 8.374118992575449 6.173464321246728 11.384049297299713 0.8141976658423076 1.3953721384122162 0.33322679677719386
Ni 4.6840070337167905 8.95607426337666 8.87475615732831 -1.3441143686785046 -0.11292542194683779 -0.07638027583295233
Ni 2.4053444052646613 1.150578505324622 8.576041734619988 -0.202236032688213 -1.4054989424335729 -0.5561257571313971
Ni 1.7519740430165114 1.1437661822608616 2.722715449109882 -0.9051900351614798 0.5823173279251004 -0.00750633567937417
Ni 7.915983408494209 8.443129196820012 6.646404134912167 -1.5159082828267763 -1.1286852343387852 0.8774285487774953
Ni 4.378558926841821 5.956027770732422 12.51939105910602 1.03605995740188 -0.8442242941113848 -1.1485014977337638
Ni 1.6656907135807486 3.020172563870194 9.878834969362428 2.7502041506185413 0.25897976523716043 1.1384806231626523
Ni 2.834347021183296 2.590273830286796 1.2640013983217817 0.08197422498096205 0.3950258323618616 0.34659679032619667
Ni 0.28048391466507394 0.036324769625219036 8.944777694365962 -0.919992647391951 -0.21303106642118796 -0.5108483733508363
Ni 9.013252056823228 2.469874021185409 8.845473226617724 1.3759641661992497 1.6374463861432897 -1.6649823867800293
Ni -0.08790822850748098 6.227825744889755 0.5514799549530233 -0.10790971389980125 -0.3043795335281984 0.7752919899160454
Ni 7.244480379621311 0.3414601497233019 2.983742637580232 0.44776430040615783 -0.6392045280304476 -0.30074245099624336
Ni 4.1237780442571825 1.3669360570180915 3.2775988223774446 -0.925679156253767 1.0398016838324997 1.5876621156313109
Ni 4.952549723296006 4.4013276307730465 4.934994046718671 0.9998020035111105 -0.6786442220833087 -0.8997117856557278
Ni 6.696129521248715 4.662829395843409 11.27191114442397 -0.318217210742239 -0.8550046725563405 0.6950090365945772
Ni 2.486095579729182 3.279059128408696 4.0383963189208645 1.287954276547169 -0.3238821223375003 0.6437888049670203
Ni 0.3963976490079629 3.6792671063034628 3.3831258214611046 -1.8977510408394607 0.09809272780937946 -0.04821126959790407
P 1.8609895001522851 8.102823941597316 7.849090053631203 2.4254293412634422 -2.7503548172637924 2.753820150104574
P 5.466016001147466 0.7562510710034179 7.0476344184693875 -0.4287188537389326 0.5377287426814481 -0.7478200097480219
P 6.415818429276132 6.302679002070887 13.259524813824626 0.19019015726727245 -0.531848115530955 0.11419169025377109
P 2.0580622339377403 0.9952483954130811 13.211666644091594 0.1892668741220547 -0.48839261545048146 0.04912992475743152
P 5.442049425643954 2.046010365752457 12.814745954977258 0.3883545909892731 -0.7516414403766409 -0.4263830065169044
P 8.707813094006063 1.8113646984515768 2.5793814286310224 1.7338583838161366 -0.9970311256341926 -1.5071799018148428
P 8.258373508896147 4.47295303554947 1.675475769836494 0.4048050232358125 0.5290312149074502 0.3851479111265173
P 4.248045789809536 7.109230620646707 10.43275455893748 -0.05638069278257386 -0.6596730802974445 -0.6295544065351932
