# total energy = -340892.1509038502 ev
CRYSTAL
PRIMVEC
9.01115693127440 0.00000000000000 0.00000000000000

0.00000000000000 9.01115693127440 0.00000000000000

0.00000000000000 0.00000000000000 13.18873903062390

PRIMCOORD
 96 1
Ni 6.285255019042716 2.162686706645722 11.433660660592148 0.18138412893986827 -0.34354746197691155 0.9422077500364096
Ni 4.5734145226498635 0.4131128911608304 5.7758101555148755 0.04849023429090359 -0.14139164770733068 -0.1217245082957065
Ni 2.5863192225636915 1.6087889042028185 4.820088639481593 0.6209453247099435 0.946753717535879 0.7299906948760848
Ni 3.318133310088795 4.195270327593671 4.846953602038095 0.0601293611917287 0.8241447497526904 -0.5671331639854943
Ni 5.248097874385809 4.4458615944013555 2.762434177348691 -0.5611885163662851 0.254086184590285 0.1342792050322655
Ni 7.095736507741219 6.123405627006584 2.623266768759702 0.447110725982559 -1.4379691471471365 -0.10674937504311292
Ni 5.02596384158793 4.664310063959839 11.351403214444238 0.09266641458748556 -0.31303258121750605 0.14005338851188137
Ni 5.360385902566992 7.898441367893028 12.444525051166154 0.9023050003042008 -0.47686918819191415 0.7124886814365794
Ni 1.991519778204859 6.396281485234865 0.25694953923242025 -0.04539719718787666 1.211616423916378 0.6257856835213803
Ni 2.592185485812704 1.7533819304603642 0.23109022180432112 0.1889377729174101 -0.4815285413407965 -0.10678485626673867
Ni 0.7063485576607245 8.727314628160249 4.4323394521103125 0.3684313697027849 1.2909922920425443 0.5745996475658685
Ni 8.77324449571819 1.9430848089829775 1.4722058954599386 -0.5709466241943135 1.3155584114176826 0.08320578339521799
Ni 6.900924303163014 0.6703850298161611 4.847481655842077 -0.20559646452001368 -0.3692502660596544 -1.3355502811585773
Ni 0.7581383806577326 7.191993687504594 2.4842047907083686 0.5465669097983684 -0.25495650301038025 -0.7646247400101863
Ni 7.616698531113244 3.9851301448486907 3.921447396757907 -0.6530342348246883 -0.431093010398064 0.11258963587397383
Ni 7.730563511780721 4.057192367893785 12.670500540220644 -0.5976881539542158 -1.3529803037095665 -0.03444506905174713
Ni 8.230133048281537 8.637996039336569 6.662858544675036 -1.022477076511123 -0.017180882654660733 0.2700815315772768
Ni 6.6251919081452755 0.7728076432430909 0.49322207746455604 0.7582412050813457 -0.6695502302018403 -0.41981949436677374
Ni 1.8780152438199627 6.4541331135891875 9.165606494390808 0.833985389992196 0.36367508596472203 -0.14695422939677275
Ni 0.433029350504868 4.959551614022298 1.1984604605749296 -1.9015891836386283 -0.9171142974028914 1.594018396866642
Ni 6.382611559967963 1.7293131299409883 6.925525663064905 -0.6119189528416171 0.09536992956157768 1.0077945347982837
Ni 3.5594430851200065 4.443275392323834 0.7301947826006063 -0.22152367727323138 0.5166377263391038 -1.1971136023145124
Ni 5.658249699335232 5.3044626618244815 5.007250371712007 0.40753527768278197 1.190112231296015 -0.7244180858843137
Ni 5.313158428391759 3.02919956997151 9.096787386773238 0.6740866846196133 -1.5291594914097277 0.9280247736678082
P 0.3640949000768735 5.512836657784813 12.306689491591303 -0.8519779699148747 1.0708338705479559 -0.9114285598720238
P 3.9126984643639493 6.11203354679114 12.576148319060712 1.1721422770811554 0.5235172270677564 0.02778462631243602
P 2.201218414253678 8.440381364911293 1.4031633111471697 0.45716553911539975 0.43101819129607066 0.06917861587819053
P 6.401147510049715 7.588466576030052 5.710328780474012 -0.5270478659288342 0.1916554289588893 0.6831899324724621
P 4.567331991631302 1.0305159219003452 12.680260524437243 0.8660794423132633 1.376686389077255 -1.2799933698288795
P 4.193314906510667 6.183221687600974 8.27270265537011 -1.2983716152257512 -0.2469752845771166 -0.4222016214457051
P 4.636862079541262 1.1097149813405527 3.5738321007206575 -0.6061414269278916 0.22193788199251457 1.7797353488539092
P 0.20302226977970414 5.514828123496075 3.656340958150669 0.22452492599340043 -0.5816570686332823 -0.5833694233386986
Ni 1.7874441041643108 1.3233244595553804 2.672737119928299 -0.5118901843517895 -1.4723342548905676 -1.2063484906492192
Ni 1.9938356455704447 6.5396309718175045 4.518976320591588 -0.004728772934237018 -0.10103998336316146 2.292280393180878
Ni 6.002791289697769 5.646751462920884 9.29974928180061 0.27008821644549613 0.4781372562710604 -0.34922085821260507
Ni 8.397001654802615 2.3609501843796443 10.087961498045527 1.6453581847911987 -0.20553141561003313 0.7392703204057978
Ni 2.434823649994711 5.392474632873805 6.99645428255128 0.97668315810546 -1.2578574571617884 -0.17709450042557887
Ni 0.5826803392227379 -0.08948078965084319 8.967577306740562 0.006317200467279444 -0.241495492409468 1.0764702428981268
Ni 1.0914673882848671 0.915957082138898 11.37944233076625 2.161903608526812 1.8957910888996123 -2.275654611698739
Ni 4.1760044737896935 6.991198074635537 1.5831107110317164 -0.2620306362483423 -1.022733158385987 -0.558800989970715
Ni 5.902190732229288 8.21579629739186 7.759779485215359 -0.17473088528940878 -0.8769276978816769 0.566538724934605
Ni 5.180802553427853 2.830251244300683 5.102960574241564 -0.2462769729585113 -0.9281301888974209 -0.9922753561167621
Ni 1.0953061411943594 7.303506756178228 6.754626365988859 -0.4168902365351207 0.22552637067472125 0.08571158053620723
Ni 5.13697228546595 4.373132545733485 7.203452274827858 -1.0153396941353934 1.2460707489395055 0.2431384273295296
Ni 8.012063047319764 7.171114836586064 9.123692899536529 0.37174115080230813 -0.25684960626803505 -0.35425662086429954
Ni 4.494179418581397 0.33959716848122573 10.496746330468259 0.22336561557797663 0.48690420383041305 0.019134149726289625
Ni 7.99580691997534 7.229912636432161 4.433526221495712 0.35664903235587614 -0.7956448425407846 1.0994983283621838
Ni 7.155606635277997 5.954906001056824 7.053996828218288 0.5833377987698147 -0.0248229725809508 -0.2519369994577661
Ni 2.305468490333296 5.165483586418141 2.676417276473455 0.03804667036007641 -0.7148540963449623 -0.5403723509518823
Ni 2.4272002111181137 5.323791593727911 11.181927680184387 -0.7531568485799028 -1.2037699312887655 0.5702369997217986
Ni 0.9436033120128947 3.2270485344804647 3.7156767240735196 0.3455076710270759 1.688267325449899 0.7569998764750769
Ni 3.7471094421460345 2.7436810583816853 2.258822235788725 0.19258513986201026 -1.014491487202485 1.8024441033053344
Ni 1.039238721938816 3.3860864455124613 8.286049981214102 0.36481228489295886 -0.5582764849258127 -0.8435115843150763
Ni 3.5345362469936283 2.7007609172833 7.2264136041440015 -0.09410983190223147 -0.8620032153613606 -1.5346174292005055
Ni 4.2912031057027225 7.012996063574649 6.11125318058935 -0.8554880399506621 -0.3427241947446678 -0.12851710573750771
Ni 0.6662462053764195 7.323051955851207 11.103058429092743 0.7250438923937707 -0.5484281313768231 0.613496324631066
P 0.3961367723669509 5.540329697988713 7.912952935229757 -1.4232814632279744 0.18679810086658796 -0.23385185982128112
P 8.222230263535938 1.4272321116665456 7.917160244463188 1.335825646307151 0.00075461877783741 1.2903456595974812
P 1.6924484863899714 3.1368468522644584 10.616539751368496 0.3967351017434845 -0.3317106172429835 -2.324661380614745
P 3.9899961696635398 6.127001078675334 3.6395775026635127 0.37501622200915413 -0.032740684766130713 0.9603476541702299
P 6.920739837547929 3.9489323269204486 10.367878674404034 0.048306143304555516 0.7872617606834119 0.47042883188320916
P 6.294942012887092 7.81177205924632 10.259401464545444 -0.510553724928553 -0.21101146488799788 0.3317232156484739
P 2.4814924324319434 8.679645607288855 5.742416609665118 0.05481977605335721 -1.104189563190266 0.5227091293441644
P 7.082760441568288 3.9877343692403415 1.725680732528274 0.10299762131016456 -0.5590899819660436 -0.7983141618428315
Ni 5.37198326170905 2.940367583629314 0.4645368611810184 0.25866326243800614 -0.20932842075862015 -0.3175466670377757
Ni 1.2633912539191507 0.9758902877751275 7.0897648139545515 1.0405277633652468 1.1169908287199926 -1.0415770305653675
Ni 6.7098246952953975 0.8437326582666415 9.47518569645865 -0.7285827587849646 -0.5632932214141138 -1.5939942284969257
Ni 2.800451347888262 1.587819941713643 9.227805104913061 -0.944095968198058 -1.0833281463602245 0.08881670182409221
Ni 6.307845989803508 1.9850768009037156 2.666829405356789 1.5050402297640209 0.5139776630084374 -0.1382495025339232
Ni 4.122469189669284 6.993027339519637 10.491167523129604 0.10073685030044587 -0.6180829155604839 -0.7698150259618741
Ni 8.174831577376478 6.99444209117877 0.5789407090409554 0.11943648359247817 0.250029240912092 -0.8833351440699174
Ni 7.597414654995136 3.6547270599204107 8.237554637239889 -0.010242503663614618 0.410500530958693 -0.9093675635779371
Ni 2.9472160629983613 8.507514485042085 12.484065107249632 0.12959928305809293 -0.4750786719503947 -0.3963008424195433
Ni 0.13325518843894651 4.866907908241803 9.967995964045356 -0.6571009486948941 0.07276607611913276 1.5189720093537646
Ni 8.531096683079976 2.2243860990666002 5.806342658996643 0.8055461608148965 1.3771119066504476 0.17651703065555405
Ni 3.743387834278381 2.680783182071223 11.171178270922104 0.16630615156082326 -0.42769298357757957 1.1336862870978024
Ni 1.0006799808596663 3.404406127824663 12.58266428673408 0.285323802448328 -0.5845449317040384 0.19297106244651926
Ni 3.0856995247661514 8.260825049243346 8.111997680281174 0.7654847740176365 0.2016012273176915 -0.6764407866740867
Ni 5.5035010990659545 7.907353402229854 3.68112254119385 -0.1512500285586492 -0.15362727054157416 -0.1726521483835091
Ni 3.041022208040182 8.392928611809445 3.5241103382699603 0.8759586491001882 0.21248059323435664 -0.15148194206379717
Ni 3.2964254327203273 3.997142017215717 9.127952473480935 -0.9638685228392948 2.2545042028733686 0.7179653882804344
Ni 7.226920932286736 6.154629286235201 11.571233094380714 0.3545502408453184 0.27827975111735304 -1.0923992554235575
Ni 0.5259397865344736 8.995027093390553 0.09250583507740796 -0.11085851211548005 -1.8970730409358294 2.316409425018598
Ni 4.400904931806385 0.3549251466480016 1.5606765344038476 -0.2635015643669139 -0.030754250463721225 -0.12126402371952019
Ni 5.993248474366425 5.359106318263827 0.37138943172061545 -1.0197751041989276 1.539285524100136 0.4672650894432469
Ni 7.999681717513091 8.820039434354326 11.248227268286712 -1.5168647332027747 0.3364157360281368 0.6688583463411384
Ni 9.094059709529803 4.9270303481763875 5.708627474020227 0.3402705909978527 -0.48717802631709 1.2133010107076523
Ni 8.022497967200497 8.648115568720042 2.530707767855614 -1.0397060387948998 1.7217677712001895 -0.5598482002883067
P 8.624425236797377 1.5597411763005486 3.716257042588476 -0.8575883741231167 -1.1002048675109053 -0.7335151630895755
P 1.7649973119165512 3.2638500999320295 1.566083228642569 0.2298036578938365 -0.07910384541170247 0.07001705261908586
P 4.597176943829044 0.9183991057033872 7.997743417628509 0.1256115020549385 1.1811943599810948 1.2918345854381816
P 8.439318048377677 1.6492489994225854 12.501342198689466 -2.1837739262373423 0.8542225429746771 -0.4032160814821378
P 6.2754058243711786 7.682119531401776 1.4617214142153512 -0.22403358817927868 1.02402668038643 -0.8633635860439969
P 1.826516481196139 3.365685185918352 6.114774740770171 -1.2571311205187254 -0.7592742743315505 -0.5426655178614332
P 6.822202835047227 3.776206468307422 6.13582390255722 1.6396377373676536 0.5301681567253708 -1.027556033695927
P 2.396472165528045 8.482697758486355 10.231019023139275 -0.2966158304223795 0.0040474305964962555 -0.02606352985627124
