# total energy = -340856.6308817511 ev
CRYSTAL
PRIMVEC
9.41038671469468 0.00000000000000 0.00000000000000

0.00000000000000 9.41038671469468 0.00000000000000

0.00000000000000 0.00000000000000 13.77305217342267

PRIMCOORD
 96 1
Ni 5.094105904494594 5.185687789530175 7.297128287253417 -0.7597967224939237 1.557290188207673 0.7206172240809847
Ni 3.409138493565591 2.102506276427231 2.8492590572844088 0.12174456290036452 0.2080097019471966 -0.10163313686247012
Ni 8.901595484726975 3.126478703099729 0.29308744015841515 -1.3318890302569062 0.6827749564222306 0.8307537704287757
Ni 4.79492147468199 5.080413791596241 9.962929970396264 0.6314331116151447 -0.0016452489129068438 -0.19485002463678702
Ni 2.285303041410397 8.169890853516366 9.892508281280433 0.3460206061077525 0.41702624789235276 -0.22880324165378016
Ni 6.479107823500639 3.0965254416870436 4.188757050572252 -1.4401047054329004 -0.5995840854253481 2.038881207355289
Ni 5.497679755875189 9.045452068834964 9.556735326271895 -2.3328734841118917 1.4241306986021474 1.5205177565743297
Ni 7.616042534181268 0.7549416995129489 0.8875792203924718 -2.258975094160529 0.1807776057041209 0.40927231497854677
Ni 1.3391451037801536 0.25233387773305616 11.971564814662024 1.368068822611573 -1.2504596220358206 -0.37378954869090464
Ni 3.2122449690485877 6.0980436175172 -0.038023609193872945 -0.517598033369844 -0.6157583811923653 1.9804662577515055
Ni 6.835977924836888 2.654528980709214 10.680754280971088 -0.03459213615257268 1.8814548747825985 -0.3194037748511725
Ni 6.8401937781554185 2.714708404753865 1.9724114420804466 0.23772316985122927 1.8168646496060388 -1.670946060562632
Ni 7.004245052490118 6.401227461750283 9.225534878244325 -1.3595970376951358 -0.44873669162175617 -0.9811350232292263
Ni 5.092383803697068 4.874354550266181 1.1028427611217604 -1.5438191503044316 -2.3091841109147526 -1.7021556533962168
Ni 5.612815839250687 3.109794087176169 6.7222825716914505 0.4688846273245409 -0.9107467033136508 -1.5903486613245386
Ni 1.429098991886928 1.099914248727281 3.9998322416582215 -0.9100990424273229 1.0121749232541666 -0.740540445367473
Ni 5.621219314727133 1.1295946089206867 2.9115407617562026 -1.156573218998305 -0.6739388461878394 0.652441852656328
Ni 4.8774787987075925 7.301039244037304 8.361385639085062 -1.2856541676590827 -0.7753277282499873 -0.3113019716796445
Ni 9.208148247460135 2.078330992553781 2.3637037975547606 -1.2662914468617548 0.023425063792159657 2.2187895230805785
Ni 8.943452885532388 0.9650634048555294 6.532241690894435 0.43433491437412935 1.3082292247461211 1.6379966022198047
Ni 0.25886468622203 9.22222618622023 1.4453441427435787 0.07578352278921786 -1.2245025358504267 0.6380997250020429
Ni 4.498503698609674 2.6259496357798 11.302497600546959 0.010347661782911211 -0.9835870843141449 -0.2254286687545924
Ni 7.97905761814475 5.21383425666349 1.2333083647112904 1.2466127374859046 -0.7245798082731585 -0.01236777753673354
Ni 1.2111638423247582 6.455591266708211 7.437820158256446 0.6368067172222323 -0.543425021735277 -1.3524074619252322
P 1.4917439372919696 2.5796599427578073 5.5840501686612125 0.6796055575553135 -0.7592632185879569 2.7705202364680734
P 5.653591045565851 6.937685386146441 11.062115855179673 0.15999846417524058 0.14760651826879095 -0.4651081910012442
P 6.460785800261401 3.998586306436406 8.708053940013679 1.9036095565027666 1.216647301472066 -0.12596091497455728
P 2.4063300269675914 6.99550280308629 5.562247243318123 0.09562961098086757 1.9573201586523452 0.29169088231693635
P 4.532719865275248 3.0654147026891363 9.067158067193274 -0.7882320950164812 -2.655781929682213 -0.7951733022210048
P 4.22485905876692 6.78916125015008 2.1838553067785043 0.6577689212961962 0.4170223912376108 -3.933671622904528
P 6.530695564331411 0.8164658678415688 11.583371299584568 0.12680063726703325 0.16219984270193358 -0.30655597235422694
P 0.5152252684974953 3.2182393854858735 9.543898617540181 -0.7731276352748749 0.8102785332935593 0.13042769249665925
Ni 4.9361525608527685 5.139426327668798 12.323617738958637 -1.231809353924485 -0.7955893067125008 -0.6247261319086145
Ni 5.78022662169859 8.533668178816455 12.652752607067866 0.47039695020400923 0.40678734377316395 -2.8376283429704805
Ni 3.1584928392373217 5.097870059243281 5.857761622250756 0.6198641758306227 -0.7605572548090321 -1.4415440089825884
Ni 4.332429191097554 8.577520581638673 6.414124396957976 0.2820703285080368 0.2417171215019708 -2.0129356911341203
Ni 7.374797856337848 4.8576134720213915 6.488402462613838 -0.22668619531077733 0.8232129819670403 -0.6405044777887936
Ni 3.163762655885485 0.9669454822298734 9.43839688824395 1.8345255572209114 1.3556673636234267 1.4254712717904416
Ni 0.3976462486900991 8.195449464259957 8.32304207673755 -1.3252568696523692 2.4227991027294467 0.5540405924675942
Ni 5.6972646510375045 8.199655907191616 0.9372039545218015 -0.0777776704011112 -0.3344776384651595 3.7550964241683658
Ni 6.150186571173402 6.101534871046608 2.4674702515118456 2.448474910228996 0.5298053740693134 1.4927719539196291
Ni 8.433823974107504 8.320541736945735 5.745524879070434 -0.2902297243903776 -0.9952580928941698 -0.10011104379098888
Ni 5.884437245916021 3.059768470566104 13.16552270563053 0.699479156550789 -0.1341151686505755 0.46569517385296566
Ni 3.3104423560549887 2.2630192452981635 7.0156212691793405 -0.34970371138629447 -0.16297297342253222 0.012080071092985648
Ni 8.113268555709224 2.9041959548028244 7.758746345897471 1.7166093669277018 0.5567160824172284 0.44875854599862713
Ni 1.5904212540288285 1.6711341422275734 1.0450225210658495 0.7951769017654305 -0.15613409612382786 0.02609001221883249
Ni 1.2086983209643674 8.982553042984385 5.645132989845548 1.8797247794653693 -1.2538583633047244 1.7806560608959656
Ni 3.032638325214935 2.533643150955095 13.286932693933402 1.564780840157763 1.332314290719783 -0.33100433520457834
Ni 2.664071112997138 6.593359330510196 3.391573065430838 -3.366221699009564 0.7237107754046439 1.2551822243224704
Ni 2.4701042187972404 6.0224876213241565 10.752815259479972 -1.5047674357186083 -1.4949406794361737 2.0604069972422066
Ni 9.26857234156345 4.300433875733705 11.553869736741726 -0.6544491128943438 0.6003255915770629 0.40538197878520504
Ni -0.33191657846850736 3.752354123550973 5.363281551611967 0.6703868671705229 -1.2628461686256316 1.279068544021765
Ni 0.7157380278053622 6.608895879235406 13.072279887312089 -0.09169942268852593 -0.7289617393909381 -1.2181025458613537
Ni 0.863406759635084 2.5353464309788767 12.494444491840976 1.7711365514413044 -0.5196065791594406 -0.6791923812772948
Ni 1.7886698742553595 3.8436725177541464 3.9809220692394995 0.7490448832940584 0.9862646311463079 -0.9391964740139115
Ni 6.343353582489203 7.37820441638541 6.110263004870128 -1.4326089112764875 -1.1049102434063744 1.184493856667973
P 3.0573405907532005 -0.3354078319979156 7.869935713018968 -1.832553263985889 -0.301899447418822 0.7463652795793663
P 3.6513712620305427 0.1129481684278226 11.36935181199972 -0.30994982852712427 0.7994989261795521 0.22812884129457486
P 4.588664615227626 1.8431560142426202 5.185788480669703 0.7029591446795894 -0.46350510818018237 -0.8157274722232726
P 8.476434205862654 1.3450548267355942 4.563329030652893 -0.9780700111506574 0.11470282556223471 -1.7686330682931604
P 4.927099768682173 1.767440041472759 0.8825870101570242 -0.016608040870326232 0.5956780655027225 1.1002835432676406
P 2.4830435007458553 9.049667922153494 2.871598374679185 -0.5495990117564729 -0.29101931017120847 -1.286840731768016
P 8.61733592849292 0.5760013110698136 8.882007764453489 -0.055616818033355823 1.1295871773277644 -1.014427209623453
P 9.054551912939917 0.6950671720029414 13.201112788779376 0.9190282265961528 0.5724036683558142 -0.358150299491751
Ni 7.315870013747135 9.115644144511124 3.3634623577676352 1.324462655885848 -0.7405430164706344 0.36100859487615244
Ni 0.6002772860827904 7.997793698406345 3.6139659152541417 -0.5775322478316312 1.3002076399932254 -0.07469620326231007
Ni 2.595271774577991 4.274470618354629 1.385720872563046 -0.4335419861591889 -0.4860752801712145 0.4724512616298767
Ni 2.056950593581233 8.276830489926596 0.21361484094936306 0.03183257112956453 0.17946839997439412 0.7804395955552559
Ni 7.949226691761396 6.771479133218117 11.305320716608476 0.2227747760715131 -2.0900484742577228 1.8781862313336557
Ni 6.486156203267558 6.137237878837914 13.533263685880987 0.7895531278207498 1.631718739630893 -0.018682406900851697
Ni 8.875914538954051 1.4307552199763507 10.945499517949255 -0.053107421347940796 -0.07842815950091654 -0.44863796126036287
Ni 8.054406585826614 4.492904518421 3.55403963061634 1.1051784094660966 0.9569903076622227 -1.718201651115486
Ni 6.30574967654981 1.6426394907800044 8.3327658294921 -0.7262129730012074 -1.194291302374369 2.1861637666257576
Ni 4.089942342187066 4.894408084689817 3.340088838855656 1.2742047881715604 -1.9937125812384502 0.9769027303154336
Ni 5.003022769963213 7.653655850507535 3.931145827881535 0.3753376099043149 0.7827286486997487 1.0662210543662927
Ni 8.001256720775137 8.029177338623532 13.3779998308071 0.8439414727636433 0.308207649025037 1.314853157820542
Ni 0.45498750005423944 6.211711680540708 5.062698738310227 -0.5799115466970851 -1.1476203806803913 0.28464168877963886
Ni 1.9907673427124242 4.440836847859772 7.678256483867586 -0.5237054318191625 -2.876082018960989 1.1783422352442803
Ni 6.384994544396566 0.716108797048108 6.209691270479349 -0.46663979715442216 0.4245978895920236 -2.611224969007445
Ni 7.531405514657016 8.725564787904576 10.26274207301321 1.8611488162353946 0.3706476606278133 0.8091904424357032
Ni 7.04812568647295 8.703309222952957 7.826482310600113 0.9822020310411601 -0.6073462458692701 0.9162560631676542
Ni 7.430046237661717 6.722074602141586 4.353441643943419 0.9284333219601365 -0.6926418219139813 -1.6697235010094407
Ni 9.179211307829595 5.5044270032622125 9.626688378121514 1.2255703149933084 0.27783597871171506 -1.686484008297231
Ni 3.86037595445145 0.2448375635510438 13.62715487985489 -0.05664603062881857 0.023292137758721174 -0.41163104501871045
Ni 2.691634136144407 3.331568674582001 10.02182393559424 -1.953688218326713 1.1974159640462798 -0.008875448112758907
Ni 0.7323407733631384 6.706095765233405 1.7370849565406505 -0.20384991414255216 -1.3936569554933225 -0.7027778819067187
Ni 1.2617540821471263 1.5192975500523669 8.353535494356674 -1.5139146494355153 0.19824182392715536 -0.5677283743673319
Ni 3.7070807523111267 7.500558266491517 12.152749580374063 0.5412884350082484 1.018922269280329 -1.2224790776624945
P 3.1350139239923793 5.801729355700471 8.839861464771117 0.07916658032883785 0.9674580399627661 -2.1005961678665828
P 0.42289996289904763 7.770514034680557 11.075531302703999 0.5218578370874625 -0.15999177930702124 -0.25576614339586917
P 5.473513882388612 5.266974711328095 5.065590550195907 0.5838399352172139 0.08784405349817775 0.3217164821447492
P 8.356150640868325 6.5229790470966 7.528295381795912 0.6925448913248008 0.8765890835953355 -0.48653139387202654
P 7.175598787037273 4.665246343589685 12.136083785224248 0.5996589045273415 -0.9047508907415321 0.09897178798022309
P 8.006215994656534 7.272723389940297 2.0559446232246463 0.3487277206262704 1.081744089702556 -0.01570738343292779
P 1.936412948141368 4.737480473217009 12.587150918107728 0.07198163254462442 -1.0283067958190224 0.15139915254200376
P 0.593082104280673 4.131451558678224 2.2495247505241167 -1.5869571191444864 0.5323345682490703 -1.3571416341761078
