# total energy = -340894.7227099717 ev
CRYSTAL
PRIMVEC
9.03374595468209 0.00000000000000 0.00000000000000
0.00000000000000 9.03374595468209 0.00000000000000
0.00000000000000 0.00000000000000 13.22180034971577
PRIMCOORD
 96 1
Ni 6.171231974268664 2.145975408405555 11.509418863098677 0.3732005089566541 0.3039105643115798 -1.0577410419197397
Ni 4.657862700648548 0.3151864963806887 5.929951457714229 -0.38425239589544147 -0.7319295637700104 0.03366936722798717
Ni 2.547462184195883 1.4600611381670925 4.823273300985015 0.11415878013330662 0.3607679396202561 0.8056343496533286
Ni 3.589802904917151 4.362666980906393 5.014275600512275 -1.0810480920767962 -0.4558650751364213 -0.18968082173102171
Ni 5.3133603479298275 4.6460917295427535 2.487906309973276 -1.0453246705332575 -0.5044964629908796 0.2963075551533413
Ni 7.321002003040661 6.080307320254991 2.6038092718208086 -0.10261478404944908 1.3407094567620135 -0.9418336545264424
Ni 5.04151686173217 4.602205791221996 11.37084119866055 0.37241837937499084 0.17113339774613753 -0.1741305327012485
Ni 5.542492282793493 7.864562502991251 12.329606217781473 0.32797583279089965 -0.23416759128948705 0.2149275121129524
Ni 1.5053653746180184 6.550775780898612 0.6432180762727575 1.7527637053610716 0.7248011802553453 -1.6916457550038284
Ni 2.6879730702891425 1.469763381426972 0.3764985308358099 -0.460479176869665 0.2984919643991698 0.8112509245091577
Ni 0.47584986316681505 -0.16336174673186749 4.808874413152686 0.8635337930732739 1.0088962525028948 0.019483048425276123
Ni 8.649495663706004 2.4545320385586593 1.5590086620495722 -0.14413270078757756 -0.5313668050191623 -0.8344679860555693
Ni 6.863460832997494 0.5890598653162381 4.559643296697861 -0.46120705617462504 -0.5530877416360216 0.5220990065639911
Ni 0.7926308157256869 7.512354811914741 2.6792527952251186 0.12311830331943958 -1.4146803518225248 0.6891037268537358
Ni 7.512743262994978 4.031995740417922 3.688961818457248 0.6280274283677055 -1.7335508798780466 0.43559578336442395
Ni 7.5615164579298835 4.009736590145722 12.462102364377374 1.6714553960988825 -1.0173058167228286 -0.9929836950376965
Ni 7.968820966177718 8.817514306527691 6.747481084308518 -0.4167927917253079 -0.34126740769348324 0.34382154157390465
Ni 6.632648621368151 0.6166371818892671 0.3098782672005164 1.0595958357402913 0.9462855196502089 -0.05170925544883352
Ni 2.0292594094133394 6.26849831801086 9.264053277254092 -1.049904062373824 0.7374273536597881 -0.5980799900759958
Ni 0.13074811673483216 4.9143668860498595 1.3864243639731881 -1.2232730343186997 -1.0415945140668643 0.05888520437198246
Ni 6.528073977069863 1.7970650346380366 6.8132205577037395 0.08197139676748463 0.7767554618354493 -0.16336275266178316
Ni 3.3511494017146477 4.403111061981328 0.7832212658378934 0.7601595051499812 0.126452252788679 -1.576127118408518
Ni 5.948486897863782 5.604283105789372 4.773070064050074 0.11713740314565632 -0.04594509927154668 0.3036879067778125
Ni 5.351094305189153 2.9059392950325 9.02061279201862 -0.08617952131156126 -0.41707664151431395 0.1730745806329084
P 0.06405106625809644 5.776294664366056 12.416222678302933 -0.1777403615396939 -0.9413870539073271 -0.28014817178465945
P 3.886552428980254 6.152748929846212 12.566514401246724 0.7376428121047038 -0.34552181209446303 -0.07496411221171606
P 2.483539397131725 8.385773515209118 1.3753580250594526 -0.48602000145324686 0.4993516855651465 -0.05774671989216506
P 6.2950394639117215 7.740484000966631 5.707719498085104 -0.21085951269116587 -0.5822486794706939 0.243366998400568
P 4.5924764467239605 1.0426207668488818 12.550251851603862 -0.10093353969228423 -0.32588835413425166 -0.9332358855551024
P 4.0416979836778015 6.190500954597641 8.252016257664355 -0.09887357183946197 -0.08819809440348682 -0.2794442037390994
P 4.5685008847018755 0.9064009101303356 3.723470728376 0.12182915219437082 0.446470778405715 -0.008366883907456556
P 0.15808332891366692 5.501722986860686 3.60582335016582 0.959959931813508 0.5634855399305779 -0.1566053793332916
Ni 1.4456613469601582 0.7465406433682346 2.70447953107541 0.01921976746156045 1.9286536439555884 -0.4009226574622708
Ni 1.8830301620691452 6.381971202170397 4.924459387139187 -0.11018951107291346 0.4694034759424884 -0.20272094274443153
Ni 6.058788937159057 5.748732705161316 9.112107475408175 -0.12087424448026923 -0.7801850563422885 0.32054405910320277
Ni 8.664238737262915 2.496593160176907 10.174876206076897 -0.6582931692307824 -1.3991778853115515 0.23831658046085405
Ni 2.478905085407034 5.113271906623437 7.028537184730037 -0.5059565924761737 0.4345192624707936 0.641360912251818
Ni 0.35746984815181587 0.11613332237185957 9.217062440415253 1.030274718178671 0.0331839429511364 0.4377074303907881
Ni 1.4959973799620643 1.2470905749905077 11.433591405487155 -0.6382660753765781 -0.16019001136075636 -0.006911639518168742
Ni 4.096424417260994 6.708902471793329 1.4727237400082218 0.14201693999615542 0.7182320116782598 0.2627351185145346
Ni 5.539908631422612 7.854227897507728 8.01535921233935 0.6218806920400193 0.6526850790153856 -0.4241772571148372
Ni 5.20179358418727 2.7716707274611916 4.813211514632265 1.0865047443159934 -0.3816005600948912 0.07625763421215899
Ni 0.8221829091856895 7.493907902476498 7.147850385712211 0.14705013154468868 -0.4732860988263462 0.20611968401333533
Ni 5.063748910766212 4.608095793647919 6.989770670296964 0.4751280371310914 -0.199656701996811 0.5676797805175836
Ni 8.314967013653314 7.048625525825933 9.150385264179832 -0.07652862848535852 0.029280751241988277 -0.05047229771793888
Ni 4.7887707146885 0.396235459210283 10.379074098462358 -0.17586422756290357 -0.46970892299804917 -0.6310273915362938
Ni 8.260999414738494 6.983329609361868 4.928333960820902 -0.5486531029034358 -0.14726970375466253 -0.4369656671287572
Ni 7.303548805668142 6.065085458157322 6.963406585818722 0.19503694383661246 -0.21878390974456516 0.18390303870698005
Ni 2.2544797322364762 5.177781887180975 2.7208351283026087 -0.4151321161934334 0.9465030349776538 -0.08797055177371302
Ni 2.283062504745096 5.29244722581938 11.379500947626028 -0.7525567531020587 -0.3083644863178754 1.2235586838799184
Ni 1.1513870693153119 3.2855553716308648 3.535853373494434 -1.7956417356715202 -0.6232402913917072 2.6983367723252885
Ni 3.574165490501089 2.820254213729004 2.901815389959748 0.4562278577924788 -0.42741967531153485 -0.5267902413920734
Ni 1.1815507473830367 3.344672205795343 8.156819545142678 -0.7794751747594576 0.1447219976321443 0.39688576838873585
Ni 3.8431723804384106 2.5580316670767567 6.873643671547342 -0.9556579620040444 -0.1715666286288142 0.5138650486899731
Ni 4.121203982681709 6.746266045464521 6.04827275337989 0.07149646537808976 1.2519243795068051 -0.19304099645250627
Ni 0.6878456851443862 7.4792280651419505 11.207750464310244 0.5865845878418865 -0.726624349507013 0.23665050561234083
P 0.3486312310145106 5.561282474581714 7.961031166957053 -0.30607440473211805 -1.1102542813271072 0.09719978368146487
P 8.672143265058441 1.5914389070017512 7.783515346910867 -0.7721662998028701 0.7138860760047383 0.7060488393485066
P 1.688316799663711 3.2895392536398096 10.502869844235548 1.0249448213253252 -0.03568202678264177 -0.5112031855870938
P 3.9186402949570613 5.983438461339083 3.725004658455634 0.6906229917117397 1.4490508588825948 0.1433408010139015
P 6.857019772062397 3.9212420138200454 10.20859195309228 0.09854807017924319 0.8864454075641249 0.9487632917667401
P 6.517432224220573 7.7796904588324365 10.112919162153661 -1.1643567195984659 1.2420639417729578 -0.17294499703357957
P 2.3849721939580357 8.392268778620528 6.033715774991651 0.8121189289364078 0.1645274623938457 -1.2490385733185778
P 6.95346404491386 3.8764346334019812 1.3604966094292597 -0.015241242429786656 -0.122861193003311 0.7213924116841125
Ni 5.180970799537342 2.7236834684328137 0.5212137223416842 -0.10161565336097338 1.2805371581474914 0.510675852328714
Ni 1.675561150238246 0.9911284143523162 7.280491975619547 -0.15563890165496422 0.9248564032421556 -0.96740996033365
Ni 7.076268788745142 0.7090722782428389 9.114011789075944 -1.165185386147348 0.01098221004311657 0.1350613346139287
Ni 2.9376567774211737 1.8333716600211414 9.281822655738434 0.2653681852620075 -0.3087370391659457 0.10564045824965033
Ni 6.275291695041986 1.9667910554635586 2.66745833637959 0.5830732322545185 0.4540259650451535 -0.6943320651322107
Ni 4.0861982167300965 6.973717703562508 10.414164781626859 0.3422212869663203 -0.13548299553237958 -0.14566070739632977
Ni 8.006518788452835 7.471395807314841 0.2315602058024505 0.11405182224179714 -1.243232765270078 -0.13639368027210702
Ni 7.510737771371428 3.666074822834433 8.155642448032099 1.2001541889130491 0.3720499402919786 -0.8382986726555692
Ni 3.2054079766572627 8.315780050797997 12.304524925242621 -1.476532095021999 0.07641987082163613 0.4302748853721429
Ni 0.05427022940756457 4.776367381359064 10.150297189818536 -0.23101001949711183 1.3056925743671965 0.2584948551809419
Ni 8.65678589676999 2.250992706260393 5.538387348587451 0.46755819520363345 0.6082013947807138 0.9355755894318726
Ni 3.5086437303857223 2.9022173916590637 11.722739032247475 -0.37563174410596595 -0.3386181429960942 -0.21517125269264234
Ni 0.9418854646227057 3.30223166684291 12.78868041452967 0.29550305697417495 0.14353209108910117 -0.5798608959648078
Ni 3.1114841189543165 8.317604867500508 8.320320411563747 0.6062144462576721 0.3001287286716444 -0.7726926046199855
Ni 5.5140811514598616 7.6054385312348485 3.467391129039132 -0.3879167321209061 1.046092659047534 0.43357309650744036
Ni 3.0267746822244406 8.244314085780395 3.827407590203015 0.7662635611651899 -0.22274083750978413 -0.4369751802104539
Ni 3.642460610654429 4.413192722575392 9.441978325996438 -0.748804228038162 -0.47544171171676824 -0.27117219353829425
Ni 7.059574426040993 6.201350483606128 11.34016621056628 1.6894204652177356 -0.9674567544111855 -0.031469531363190965
Ni 0.5101238956882133 0.1893509307489499 0.3977332543057094 0.3617022785090674 0.29490501837885985 -0.3967232746689426
Ni 4.625169573686254 0.42648586124010746 1.4858398359011626 -0.9055073092915824 -1.4549636248226039 1.2642211945962873
Ni 6.11752635398935 5.46950864843915 0.11694184264351618 -1.8215697683911918 1.901519506742957 2.160516241260982
Ni 7.994323231282595 8.943733806366641 11.459400817957803 -0.8828301794090408 0.1257102324163319 -0.6837108379729386
Ni 0.251637706403085 4.7881112512267014 5.706462904009268 -1.5022274429055742 -0.2866286373026805 0.7830965735621288
Ni 7.997602481099482 8.836972995523762 2.313867578782515 -0.6741018541282648 0.6112381247245086 0.39494072884722303
P 8.497141536538534 1.6306905335978175 3.520027153785884 -0.23980010698491608 -0.9038502333041337 0.0430988880720032
P 1.8106698561923924 3.2008369011549362 1.6297456037607752 0.3193850057980951 -0.7671176816353692 -2.08442752852652
P 4.957286213543051 0.9989516384333733 8.114774684267324 -0.9377463718309463 -0.28207855603815285 0.3998525643265436
P 8.164871322998852 1.7839480353704906 12.360849428502416 1.5260034622792493 0.457533978198412 1.0241230967549781
P 6.242192049507351 7.764044010670323 1.4239089898414774 -0.1608009054718779 -0.5586068716820379 -0.2800167884131178
P 1.7414623276877979 3.3078506568872723 6.025981081621904 1.7581367967475272 -1.9525178521676956 -0.8895317597989326
P 6.896786322183429 3.9340699332139266 5.941546270772008 0.22898450442665083 -0.09714244808096818 -0.33436528125701126
P 2.2381647868665118 8.653904131779393 10.230936923951974 1.0408373241858655 -0.22738142160558902 0.2639533071923519
