# total energy = -340858.8725310636 ev
CRYSTAL
PRIMVEC
9.31773132437673 0.00000000000000 0.00000000000000

0.00000000000000 9.31773132437673 0.00000000000000

0.00000000000000 0.00000000000000 13.63744164394303

PRIMCOORD
 96 1
Ni 4.313289547110831 0.9416871776692093 11.249375047220859 1.4600636650533307 -0.9858234298438311 -1.9738047865709296
Ni 4.1621559483833455 5.614985901970782 6.365902784511344 3.465365236680961 1.0586139314429963 -0.2015678029765948
Ni 5.090910115261324 7.9174904384411215 5.571767469728015 -0.3150853499814767 -0.9209652957178656 0.9781538291137154
Ni 6.0027432824297415 3.341841536252004 5.042866961845863 0.040903423082581165 1.251726404563386 -1.6555873187183743
Ni 2.1237252295169315 7.174326839963515 1.3861643827603387 2.195142315975284 -4.825305516648129 3.1835314496637626
Ni 7.949003005080847 4.199529367896043 2.9070249547836036 0.22903181272481846 -0.8517833374055653 0.41561702624965197
Ni 3.048519360669931 7.378096301774328 12.84027793582824 -0.7312099119951665 -1.3182313302641555 -0.5284465460485738
Ni 4.28774032838637 5.409921275534624 2.10090237891748 -0.2312308772586663 1.4274757038149803 0.07934501488823109
Ni 1.5871636831098883 1.1375738389545313 2.7441258569739233 -0.38471545157478904 -0.012702535168332961 -0.4502261316830891
Ni 2.463412435140187 0.28217071498052915 7.055167035566077 0.6582615446618986 0.03433116918170216 -0.5442485460778369
Ni 3.9734625755208115 4.412970634606924 4.388501340918993 -0.03314254819023969 -0.15774000715836706 -0.435409892605863
Ni 4.358592355804606 8.133829519529577 1.0038178087613714 2.378886974727529 -0.23007722327019728 -1.3141435333480271
Ni 8.253832578593158 5.959117665337134 9.676869086932069 0.35921602175210393 0.41703730363594627 1.5247526205912836
Ni 6.088587539216197 9.112675808895778 12.71077731343649 0.4006714606834132 -0.7400231394114223 0.5942518745791573
Ni 0.7313729415213941 3.166602967123286 7.850120447141532 0.5406780551177592 0.1057247904333405 -1.2939158934472426
Ni 7.651655569655969 8.490167510659985 3.849740809968196 -0.9198990592368802 -0.7262299422820718 1.7954663864359208
Ni 8.3757737257292 8.243666933943855 8.614157626868788 0.6111622771812506 1.0563709010450903 1.9956303670864532
Ni 5.177182987679191 4.160571934093353 12.854693397640279 1.0438704545852344 0.026631743654915427 -0.11599557623172925
Ni 2.7440252254778534 2.6540625315374173 11.774621140958686 -1.7018548343263467 -1.0807030500325516 0.9983110207878808
Ni 7.134623987671419 8.9150653673537 6.332587236900363 -0.7305877050301354 -1.0698445100514928 1.2404893981969864
Ni 0.11103101577044314 5.9551017232254475 2.1601165601698336 1.1239225228428193 -0.01887986762363845 0.15319301121763296
Ni 7.156129311090841 5.612348984064502 12.708472106757993 0.2207541460970585 1.4218447307814481 -1.9229185412440237
Ni 6.698852338763463 2.257583754752385 12.211291950919492 -0.16017715584494996 -0.4456832495074131 -0.05735874042512702
Ni 4.0721559835184395 6.9602612852677535 8.65526093414786 3.147079120373999 0.7727054601357918 0.46859126445383814
P 7.6039674217960895 6.9665880246966045 2.3589364432109763 -1.3771651284858861 -0.6882454926184985 0.5090079777079879
P 6.477528271527091 5.421997055063034 6.278336611014356 -0.8876479125126584 0.8427489951174391 -1.8860376090572746
P 8.615192826795953 3.284779750887817 10.891337501934599 -0.9875954341425893 -0.4265498711120719 1.1964456297132104
P 3.0875513363215608 8.936552055310889 2.288581050861308 -1.1696994719676177 1.3033333301064005 2.438307225667375
P 5.832359251213292 3.3646233888345387 2.695371760674189 -0.37457579203762587 0.7920375848055005 0.30824415868992716
P 0.42521931841727223 0.7129210385892093 8.864622898175456 -0.4299545259182466 -1.4260307438383377 -3.0052125899127793
P 5.190609838219654 6.594456479321864 13.312938482230775 0.709754827445184 -0.3223114354162707 0.41151637381771705
P 0.5728149746394045 6.7409312124905485 13.433411154942684 0.39720895605610945 0.544886693882468 1.4267642795702524
Ni 2.7956361381382444 0.8732680098457782 9.448865138257487 0.30073088103201756 0.46167602539124364 -0.789951134590117
Ni 4.37535495408517 3.5385295224134405 10.546897321668256 -0.0029832509980400232 0.271731408475874 -1.0550591242122023
Ni 8.642922394601934 3.2249785525750547 5.176936067804575 -1.0564410921613934 0.9039502492171076 -0.023162811269708494
Ni 0.41889537430775653 2.6055637410703056 13.07706477785427 -1.3253278320996207 0.43057339044916815 -1.6279129927315577
Ni 3.034934108700469 5.848385748735566 10.578031588424608 -0.3994399022691572 -0.423980824833315 0.5510457715053284
Ni 7.6023368188505085 1.5282476692532985 3.364056870782588 -0.48756986243887 0.8227977488064927 -0.675167833498934
Ni 2.19891931963597 2.435822633300971 0.758792228881158 0.11966608310478101 -1.7278630854646502 0.29039658898554505
Ni 5.69527679101115 3.127617580127244 8.477797290828258 -1.515323871078216 1.9583897375674402 -0.5111661617015713
Ni 6.082801228192167 8.314714633715562 10.389520843091978 -0.20500202546912438 0.9387989814651767 -0.8632355451065648
Ni 1.2561699206193544 8.669300891395862 10.601365050689303 -0.3642546126172759 -1.510466800096231 0.46741678452976276
Ni 6.107400038342634 5.529523672160148 4.012339876835889 0.05275903686958656 1.14240309814551 -0.2313710023809564
Ni 1.5051396960816485 1.985720313934146 5.707228644715696 -0.5026514393623408 -0.3390392896939129 -1.0313388977771272
Ni 8.129999932040244 7.793285082643503 0.22499152620425997 -1.5804473430504267 -1.5071014831684237 2.1096119982119474
Ni 7.246986507218566 2.8002856859659273 0.9353473934167937 -0.08460909150064784 0.012561895825410624 0.3981054997284499
Ni 8.441426459183816 6.198657896908416 4.577284164000256 0.20120604876180184 -0.529048955519263 0.5758273493253825
Ni 8.693415179528213 4.500389587952255 0.17471770795924474 0.4432718118524431 0.5501461425091945 1.20184700323444
Ni -0.00013138000875817158 8.511635563154938 2.2448594611381893 -1.6170138293205505 -0.4990374967588373 2.3581980789196098
Ni 8.54265429004543 0.4662191988809394 13.07339638711327 0.5495308775226988 1.5571027547872152 -1.2872832186220733
Ni 2.109059120737828 7.740816938720292 8.441617472671727 0.13309881157091916 2.5079838642279064 0.3578672210336934
Ni 1.7519291224624236 4.810129605763541 0.7560975410419479 1.3189491822667865 -0.1190554461039756 -0.6143712710368516
Ni 2.593497279273012 5.319902675207483 7.8417876002030615 -2.4240897965164123 -0.4286422348647263 2.45682868151033
Ni 1.3617491319128894 7.711419497044262 4.447960578499739 -0.7829572197707871 0.771538179300568 0.3065192055790205
Ni 4.963331740799135 9.324067174760788 7.687780413198908 0.1811038786952881 0.6387031629139968 0.2816101010421666
Ni 3.360672670840676 2.355112446360313 3.4654645338547736 0.8527223042800669 0.8695807705983024 -0.28765733567751106
P 3.4094603109724333 8.101236096080209 10.921803687369819 1.3203010683089906 0.9623798541089104 -1.9459499691421904
P 8.305592574951431 1.2618257834077382 5.710078938664569 -0.033804607254270806 -0.825371680181256 1.043159544561139
P 4.569573741500442 1.3118340463159017 13.221198896966214 0.16941255840028888 1.364513758270463 2.132504329429089
P 5.213410326264422 5.212944439708543 9.009125999439657 0.4738319440274872 -0.16056204998819443 0.7708655787135756
P 2.3431857505297837 5.059835481984126 3.013193046683771 0.5716521349017704 1.9446420489640444 -0.42591043775586007
P 1.039029514654785 6.457420607775308 9.788395805997967 -1.0521164966441106 1.6583101169661763 0.5491971483323638
P 7.027973237299359 0.7085100246781371 0.9129978835581164 -0.37874689269618 -0.9347795758931385 0.34379531632165955
P 6.147978757359786 1.499008629006267 9.583889311655753 -0.2925961677400251 -2.2898350169641795 1.3596931969533679
Ni 8.38113142112182 7.691535458839302 11.630869048822564 0.0399711410762989 -0.15486345694152037 -1.3896460345617163
Ni 0.9136603742405777 4.37675261375281 9.994526380873978 -0.7404378583513378 -0.8048113395314009 -1.0680845899375928
Ni 7.971617138503264 2.6194937490911183 8.616271820059373 0.5271471105108598 -1.628110196344028 1.776306011457386
Ni 0.6424351980038943 5.38015112461389 11.951130648611846 0.3123458395631266 -0.32921279052179436 -0.28154942300756025
Ni 3.135649464350616 3.372711179444616 6.87118377578349 0.5965414419442824 -1.6645599545306302 -0.5007436808166666
Ni 6.561564888476733 5.238885003139943 1.1973098131494702 -0.9187158375620564 0.6135300060824789 1.2267625355291971
Ni 4.133345523767724 3.3830352255229177 1.1599540973258966 1.4601323135077369 -0.7961130404264547 -0.020219412370668405
Ni 8.05711663923837 0.8205948758379807 10.53881046283129 -1.5858335470630043 -0.8586301851240696 -0.18668728632033654
Ni 1.281374383292465 8.846943435152921 0.6897357282492832 0.5227618369589707 4.947356297935002 -4.911356739911942
Ni 6.693187158243961 6.944523637410127 8.23595092080537 -2.5028228888522577 -0.9317515877000921 -1.3416389105548183
Ni 6.6174433219889846 4.211204484986396 10.754459100043931 1.4588213080057972 -0.414519422310099 -1.0330232274580855
Ni 0.04939422442751371 8.762385025260693 6.695942411335436 1.8848572155959282 1.1980733951246205 -1.2941537204896614
Ni 3.394030148241687 0.29897058418556344 4.523471471476776 -0.4480370944515703 -0.37767397134697533 0.6616230049349637
Ni 6.556971247035755 2.0390177359268224 6.716848604643998 2.4745690362128867 -0.7759116257779154 2.4207959562564887
Ni 5.788798858238509 0.84386125043863 4.905619577802939 0.48528826549354487 -0.5775574446426117 -1.814588194867036
Ni 0.527186977129625 6.602329962116237 7.5874629246674825 -2.5425011812784857 -2.497379092128867 -1.8011230705010657
Ni 5.312141005186521 8.6352818550855 3.3282041049882842 1.1201802821915676 -0.9369135915170058 -1.1773343628050563
Ni 2.085625026977062 5.394369982299349 5.390703455104572 -0.8825180474852607 0.38671242740015976 -1.3188977602035608
Ni 7.637017414070219 4.714641497270369 7.853420787503386 0.673546495845427 -0.06227134723539597 -0.9297345572700633
Ni 0.8525379216553399 1.6215740641271883 10.60301522087023 0.29344437467293333 4.074147186555493 1.4403214494293968
Ni 1.150534802939114 3.461061905901707 3.608630540703598 0.8064393620531272 0.0660855787751636 3.589983521584695
Ni 3.6643561634255213 7.2427469395600586 3.790717642203753 -1.3455058497093924 -1.812474490958143 -0.23080355991326057
Ni 5.412614099827611 6.11179800743014 11.17080980198347 -0.7539441203678886 0.8587425423322179 -0.6146330093386705
Ni 5.111176180442107 1.2249368859131566 2.096851961200659 0.3956598664014347 0.49598636863733936 -0.7945639507717799
P 0.10975914547289062 0.46674751423530736 4.08577757463926 1.5476724626122507 -1.519462575836938 -0.29609286803937396
P 4.596241087959015 1.9059884887608356 6.1196649678127315 -3.6205230849344487 0.3680750148046306 1.1585737943681014
P 3.1797316502679855 4.613972730275809 12.500760312911323 -1.2164642389269826 0.7693139179557396 0.29434040412464146
P 2.453088389061885 3.3427546739015295 9.196122613465677 2.9815885227359358 -1.7739135999658096 -0.6687773565915579
P 2.7775038333833932 7.362545008539052 6.218414282197065 0.23225186232401293 1.2995628073203749 0.15852059407813346
P 0.39724376250978755 3.2458968589340693 1.8383548056706185 -1.8026099394592376 -0.58305652008397 -3.9999122392003175
P 0.28782657776891285 4.763978883538065 6.201190456226179 -0.8331487530235137 0.5338530617761258 1.36757491369429
P 1.4242338367875205 0.7511656659614018 12.462998344011023 0.24955075861377665 -0.39359064257723186 1.06106496408665
