# total energy = -340886.85876194196 ev
CRYSTAL
PRIMVEC
9.09122554010530 0.00000000000000 0.00000000000000
0.00000000000000 9.09122554010530 0.00000000000000
0.00000000000000 0.00000000000000 13.30592753310606
PRIMCOORD
 96 1
Ni 4.978864072162973 2.983649224774614 9.619932759562332 1.285695048199347 0.5562280870372163 -0.5599322753616808
Ni 4.740537601437276 0.49043342073142504 6.019681180492367 -0.3724235215813134 0.5576761323376525 0.4162330625670961
Ni 2.776314741029802 1.725923663357618 4.721940591003689 0.3080554397178888 0.7358828919908037 1.3814601563168145
Ni 3.847333808863215 3.2424309523812123 3.0033871839808914 -1.8428878131426778 -0.2786124518664234 -0.40499579909037997
Ni 5.4710266439427295 3.33864338952369 0.31794923997650004 -0.2807986608844648 -1.4754046662857754 -0.8367141017772688
Ni 5.444562087151485 4.869432993462793 2.8875058809442677 -0.5719740370175633 0.5011146910028401 0.3219108575437423
Ni 4.770284090554746 4.632152013644342 11.49809080848531 -0.5905366305110991 1.2184655856277273 0.42236128695202096
Ni 5.156733894774007 8.327462353368702 12.69740706572079 1.6168896450378605 -1.3538513934606105 -0.3291053184096525
Ni 1.9617864120323265 5.540356327931064 11.385335977822617 0.5426027829442978 0.5370862240014428 0.007589382311483703
Ni 0.6354939204280222 7.776088631337696 11.684600022480309 0.41938986302852294 -0.1662120491851202 -0.4074067225247177
Ni 7.882755977552634 0.2710385175296338 7.214912750209363 0.48616218345806594 -1.2577412432988984 -0.05465445412008652
Ni 8.559943166239101 2.2699607665873396 1.5551304505048473 -0.0356210916377193 1.3181768228771362 0.08945227852556208
Ni 1.6706217399769423 1.072973681268699 2.6622898661954357 -0.36113355048979096 0.5744235269993204 0.19414040016427211
Ni 1.8146903869954476 6.638767257534322 0.6414150354531469 1.0882245552205774 -1.21972259796328 -2.049463867967141
Ni 7.616937641579006 3.808096080553007 4.043684274224248 1.44829006945717 -0.6294078536549998 -0.24087199989285615
Ni 7.579890898561374 4.093678740286225 12.801486140098397 0.9162015557806349 -0.5156175126047056 -0.288039144496962
Ni 6.673932116918912 0.8871263084741132 9.590259909369633 1.2210114919780326 0.8743599371545006 -3.7979533714328912
Ni 6.650913134508937 0.7356083114608477 0.6924586289124831 1.1031845189645195 -0.18818881056652753 -0.7903753666117292
Ni 1.9065935833550154 6.945041546005733 9.209005740398121 -0.10029539188765307 -0.795107739090392 1.8719474495127957
Ni 0.2737577030110016 5.085558692053752 1.7305692794759024 -0.05752560502029448 -0.9610899316528932 -0.11163858481461418
Ni 6.433660123983209 2.3186715516397256 7.171682155756003 0.5615456425953878 -0.3296303376751871 0.8867840218504663
Ni 3.3989091219074643 4.417980928488669 0.27826695075008023 2.2028072887197094 1.4823042216190858 1.3478671508527174
Ni 6.275181884895269 5.7918378016375 4.931642429811517 -0.8465776248349097 0.8986800019571038 1.4865054041846268
Ni 6.2069704216164245 1.9297034780177933 11.595556925593955 -0.26652595301553456 1.4301601926256788 1.50013173671881
P 9.12595376097155 5.708071251903891 12.609960387993674 0.7173539799486807 0.6075413925992118 -0.1283913787929208
P 4.184490989612145 6.329347405115895 12.821924123651266 -1.3976537353575411 0.35217248464176126 -0.5394855774715547
P 2.3960287875506525 8.503123008236598 1.4140473618684255 1.5949751043529563 0.9509168477746334 1.0553468306559504
P 6.405250044981957 8.17464794763045 5.945634059706035 0.7098551004684742 -1.8683286218132855 0.4531780152225615
P 4.664616779120652 1.3156275752278666 12.991628207715443 0.03735375805810986 0.9938725254005528 -0.6078758931204951
P 3.9805202592210813 6.353048229421898 8.286944580539013 -0.5528159760318737 -0.23354898386888165 1.9509265964211757
P 4.824349607297288 1.4573415948987483 3.888777068426448 -0.06306041879559462 -1.7544007267438624 -0.3575674304050874
P 0.3631562668058191 5.716089712601203 3.958593132967283 0.846894127634064 -0.05402067719082954 0.059930872027677426
Ni 0.7771943032609834 0.2688284406639685 5.094799922551279 -2.5119798727611773 0.36389388684374746 -1.4105570736827706
Ni 1.8643375682517143 6.997343365043876 4.967740958032403 0.4448358139054532 -0.630305682878921 0.8407281080326682
Ni 8.115036783466865 7.217087371296435 9.547561151595177 0.8922229334778505 0.5185683677029134 0.00993937060089901
Ni 8.338444553507426 2.3633640151181736 10.564732892092776 0.07799415728729148 1.3854173411923496 -0.27916061106040957
Ni 3.7188202482994743 4.364460885262951 5.1918532980321945 -1.7806573464475461 2.17554356790775 -0.4103460076586997
Ni 1.5210983577901964 1.2998724818169325 7.3010157448400355 -0.9836364494948415 1.5200215336642016 -0.2985765536931761
Ni 1.1324302946025175 1.4558869988538843 11.57808631797261 1.4445352304004284 0.022554231151432125 -0.09593917180148638
Ni 4.038058624020735 7.0466996270911695 1.6897460414767924 1.3217246881293947 0.35017268060291307 -0.08040533783194541
Ni 5.758709376715721 7.786034431794454 8.241931196808165 -0.8842496854643869 1.3757191400679791 -0.521816699436882
Ni 7.0912375397398515 0.874405866061777 4.983615146494509 -0.24211230005786047 0.9129087439619762 -0.8581928404763349
Ni 0.8818215785229996 7.7572152476555845 7.245011069745185 -0.7055055652505269 0.538836116813014 -1.1816396750486293
Ni 5.327294372259599 4.910543514180763 7.318765453077489 0.1925036358917975 -0.18946973416148014 -0.17055978463085464
Ni 0.46572710690940883 0.1608955958899986 9.204161935568724 -0.6229662117947142 0.09494184088522359 0.6688184942421385
Ni 4.575731869554177 0.689956723715317 10.271178136911177 -2.1932816086174616 -1.9767335301819502 1.3418422848148759
Ni 8.339799146074204 7.463559579873371 4.901025001312184 -0.05141820657097597 0.7077776491141553 1.3519634324092782
Ni 7.37749295014382 6.403431799925878 7.263825360462973 0.8850631825046176 0.05058105538166128 -0.7474502851134289
Ni 2.5549524966773323 5.6249592703904705 2.7898533937173746 -0.47883762477219466 -1.3866494138272376 0.8370154350677714
Ni 3.1664464914876254 4.41301711948557 9.464811909970445 0.8921257457783539 1.657925737043564 -1.1930106358897326
Ni 1.3500287716889017 3.592761318561442 3.8895352766148337 -1.0973838531223423 0.08714985564463056 0.45314690487430986
Ni 0.7220596584254669 0.24566308952698018 0.4924253081903608 -0.3623571384842469 1.3147410577227099 -0.6649309862622742
Ni 2.2416143261630515 5.4617172292555995 7.13002070678604 1.7895225101476602 0.3892763314725941 -0.4681981427804775
Ni 5.537538048094139 3.112926448261908 5.122769077126431 0.32007457566595204 -0.7049473787542118 -0.8718600535507824
Ni 4.253766126248796 7.023098806263251 6.315737840871135 0.02722155472011441 0.6986252931909259 -1.8027945446662177
Ni 0.9963619258307645 7.516470511005301 2.7392516338066657 -0.9472473693428461 0.7504821299612172 0.7118633891477547
P 0.4134071054207044 5.867467704745151 8.216902144488696 -2.188203936984238 -0.4041738174097168 0.6132883223853179
P 8.447475618295266 1.9453403855000821 8.399313034127289 0.2961879988563415 0.47892118562493646 -0.4337116789678337
P 1.5944554545777474 3.4507291060057463 10.42565987336585 -0.9745591697839217 -0.6043820210346236 1.4857718684527121
P 4.206291747834545 6.381285575142822 4.047463496573309 -0.02458411709726734 0.12169519771966783 0.1471771440408562
P 6.5988658697786455 4.173499698248141 10.705789616175887 1.499649911986385 -1.5268141311060026 0.9621479406037623
P 6.15669594581581 8.073889897847772 10.370892514031663 -0.5469985980191483 -1.1752962493291048 1.1902230458422665
P 2.4703404629926458 9.00740418331513 6.097055689731328 2.6125619426513134 -1.9970236478895542 -0.03515675040679107
P 7.305444989796647 4.320359351427729 1.9153747978533542 -0.46910805618925655 -0.7569289140278254 -1.395337942740171
Ni 2.6891935291677247 1.9693503114656197 0.42695121284344495 -0.07866238699890968 -0.17341859423588843 1.0835973408612112
Ni 1.1237390832344547 3.681909873661049 8.19315131844365 -1.6950141572554291 -0.7187788853206653 1.0864669490995222
Ni 7.745042097005129 9.153045612307142 11.410737770378583 1.295650359639846 -1.064565778151057 1.2505853489804075
Ni 2.7031485599731395 1.8293727158232942 9.241765061573517 -0.2640600079735452 0.18447330938815326 0.49007308847669795
Ni 5.917560356040157 2.5079690444282225 2.339035896267822 1.7831747135527614 -1.0948641720242822 1.0473658693330028
Ni 3.720620310904994 7.188113636327798 10.738455297730892 1.2529451074618356 0.14635387680861248 0.040366062521872415
Ni 7.038281152481519 6.772071893820834 12.041770626561513 0.5721956661100661 -0.6476248908836588 -0.4157957179193613
Ni 7.442558849475645 4.076205405297296 8.754222650481257 1.6278623419992806 -2.3292348589180403 -2.2618035647482597
Ni 2.9474116008069378 8.946711163343176 12.542898964712801 -0.9503136669729956 -0.08285611336528312 -0.43632674799317755
Ni 8.850953287464717 4.866332885642176 10.496873259232284 0.28026747097134314 0.37645192601441624 0.03885425386303631
Ni 8.726267132744027 2.6765930909290896 6.14709924840982 0.26873555907234364 -0.7215466778737896 -0.26513164377116916
Ni 3.5019036131091204 2.6646654033612047 11.568399617436345 -0.5002420585898998 -0.28896474163502495 0.042510362558384855
Ni 1.4729603199304762 3.8787439922069984 12.929755146702096 -3.9498603168492488 -1.0157963220568376 -0.6130494669016344
Ni 3.1647737060360317 8.593207959540086 8.217673989515001 1.1685440182069358 1.0236932083064112 -0.5877536684493232
Ni 6.026591420828 8.154529066084924 3.4878294872525326 -0.8290560710113787 0.08322223845545022 0.2615598672595108
Ni 3.4759299824830165 8.54357896073438 4.094446948822418 0.4528941654335555 -0.050673357985151435 -1.043649339713364
Ni 3.963146927710236 3.0714886434338426 7.13478450883297 -1.621653384975091 -0.9523672070679147 0.3766203332714804
Ni 6.302146459076937 5.781264706636394 9.376713391390723 -2.655790928543278 1.9939390954269596 1.6016674287714674
Ni 8.135755685880897 9.080343083739782 2.5105754987161135 0.123121131532917 -0.3775682990070465 0.5171907706290964
Ni 4.481646779127313 0.4100078962883627 1.6016747965729135 -1.0117339790620061 0.09265844416768558 1.8680666264011507
Ni 5.8608311102904596 5.561584338960799 0.6805645788781353 0.3191957726054245 1.555872739034856 -0.5968558878609075
Ni 8.693684181339071 7.419848968725205 0.6304455630298158 -1.465558626729631 -0.967351853402205 -0.02405369851509406
Ni 0.057130168784564284 5.114450605994865 6.146141033265265 0.17848161058109263 -0.1241284897515088 -1.071464047932787
Ni 7.572481549957848 6.3223471616499864 3.0882128614596676 0.1553167424288551 -0.8239614300972906 -2.296872897647567
P 8.717630468727647 1.7046229225256397 3.7440220338992725 0.7649600118624181 0.4401589772550742 0.28401202561543987
P 1.9913056205177866 3.5777244319476598 1.7998925996065398 0.1147287937041637 -0.5279968601056649 -0.3257754827054712
P 4.788939284830128 1.3450831451363638 8.16905411671542 -0.6500476413925386 -1.01285343737843 0.43435831141289705
P 8.405028687461078 1.6509483284701556 12.748368838152603 -0.9465274604576862 0.8198836604834912 0.2159515825020926
P 6.716415412654222 7.503324599249842 1.388153734024789 -1.214144332544554 1.4060422165315527 -0.2561829192183136
P 1.8124630368017496 3.385599568096958 6.1692927475643335 1.2022668643806778 -0.08787207852263577 -0.8693488570931545
P 7.109383625399531 4.20640084253791 6.219177209800418 0.03173255521659051 0.6774319469427623 0.44571384563503236
P 2.2209499711007012 8.938529060590815 10.38494391182505 0.8427932180918131 -0.40896146860634736 0.34352895003415035
