# total energy = -381167.1453957149 ev
CRYSTAL
PRIMVEC
9.29989079743282 0.00000000000000 0.00000000000000
0.00000000000000 9.29989079743282 0.00000000000000
0.00000000000000 0.00000000000000 13.61133022940797
PRIMCOORD
 96 1
Ni 7.104809801909066 5.909755212947869 6.202710148290571 -0.20353443978466237 0.18153248159227445 -0.7849061159670417
Ni 1.243711618497274 0.8854863283961626 8.322634243912336 -0.07253519105524928 -0.4452898707237364 -1.6769503577751828
Ni 1.050004189558637 3.6403028204232317 8.98949408552546 -1.4873569535516449 -1.012443603534521 -0.5309610849403114
Ni 8.352641272104446 1.901213909820029 0.5262008507248842 0.22680112362208682 -1.9416233167423786 0.9995238101490592
Ni 8.903064618840352 6.769399934315764 1.141878742404558 -0.3009975044298429 1.499541668543295 -0.18785328160397968
Ni 1.072984220136551 5.257646858385612 0.1460138681066767 -1.3341683132093862 -0.7787547516536654 0.22202427105873376
Ni 1.9396689589659921 4.546670194006198 5.501727146743623 -0.3295850862595485 -0.661607578315996 -1.8262656312049645
Ni 7.274942007247941 0.7180873610123052 12.011930749924629 0.9893275863423479 -0.2972298098572946 0.12312010309165246
Ni 5.790818907378892 8.731295632691394 10.756517078624364 0.23884622771207897 -1.2932993429091661 0.1402513634553004
Ni 4.356124727996128 2.3545928943218057 11.905544647214777 -0.08199607935783297 1.4717087054914266 -1.0235975632688112
Ni 1.27866990863988 2.7015346267134137 0.7721178675487541 -0.5460922841547949 1.523575569564047 -0.14190663967053624
Ni 1.1939014024813663 5.279213305536637 2.7028831109035383 -0.04271090860496515 0.09169248070999046 -0.35427410436579626
Ni 6.042399557801284 0.7457796463428817 8.682082469675526 0.19830815838871652 -0.5292245618651789 0.9101417227398003
Ni 4.533389949706214 5.711909332529195 5.585627043085877 1.200193783901733 0.419845976729335 -0.7189876588973617
Ni 0.23655202662072972 1.2374806915498024 2.7028561412197356 0.4546785110274879 0.2205795681924072 -0.2458067181903122
Ni 3.7014961029819835 0.2827408650943307 7.615307786737225 0.36545480357296417 -0.024929673362144165 0.65953192673389
Ni 1.2810878802911376 8.258182279558968 2.3329957575305915 0.5366985016447208 -0.48337330785901916 -0.33018518173739264
Ni 4.7045823426152555 0.36596279938513604 12.700105941632684 -0.01626119905386877 0.05857281533788622 0.8393417692081028
Ni 4.78550069391369 4.594276335863075 9.877334216325211 0.5322186114964964 -2.3899656011391937 -1.2720905700420349
Ni 1.9054453602097297 2.4879719305615646 6.994128079561844 0.3570611801926303 0.7684685392363088 -0.09019558444948983
Ni 1.7657981974586336 5.696462213634045 9.054147857512799 -0.7085024430953217 1.8736533764603087 1.013367658010687
Ni 4.634916859386136 4.554072907215433 12.484230362597497 -0.21454570329350148 1.2119455251210225 0.35857530284431144
Ni 8.445528583076605 9.123341836269923 8.480770519893685 -0.5791067914076027 -0.5473994330019927 -0.8935215976846159
Ni 6.966790120077086 8.477975902658288 6.5016151538735585 0.36706225726940006 0.7983524712799347 -0.06369162462169031
P 3.8924972636494055 0.9170585282379112 5.5059604571115175 -0.6409320522445154 1.415864344828297 -0.43039572722072333
Ni 5.93061486838545 6.2251052157267 10.853430312395867 1.8340257347663576 1.1368412877870162 0.7749885997430137
P 6.262267580028336 2.215922220122179 10.742456573472301 0.2644140488788543 -0.3389549575102227 -0.7986201231190245
Ni 0.3273180324634589 5.281919573807852 7.086276049202176 -0.21923231013589337 -2.06648817043928 1.6265983876851922
P 6.211527374915791 1.3063370842648476 2.3325196031131132 1.1979960049194658 0.8932125510846294 0.37074973342331635
P 9.007214097772792 0.493406645210154 6.155410902835584 -0.7897295054976141 0.15316704307570395 1.168734022730555
P 8.968098756368216 9.00134586657301 1.0218022702031029 0.5650464566597946 0.22087138840121318 -0.7092542336596817
Ni 3.0489041540894752 8.307806497755548 11.661779625160525 0.3888726682762722 2.618664970225258 -1.1386315469182196
Ni 1.5578340356685427 1.8349428867936366 4.8624163721401965 -0.86735676636379 0.9884081598518718 -0.6165466814216156
Ni 7.477865628134257 4.044150585638093 9.99934599583677 0.6591249211034584 -0.2624913779348447 2.083002366044219
Ni 4.613666608527968 7.480460297713876 13.194306797531366 -0.059253900565310845 -2.3148173979411295 0.5716354227312219
Ni 3.687220770348597 6.398417983776075 10.662952735589853 -1.1079292327383563 -0.0843460676472483 0.5186784109182164
Ni 6.34362302620219 7.050619337247996 2.2865400121862556 -0.6612764202288224 0.6715212378852822 -0.2727595926300722
Ni 3.183789772665787 6.792510163367207 3.708216204194287 0.4595677207989891 0.31467628746851617 -0.510955588352662
Ni 0.22451145778656323 2.1694320651812675 11.951510288305183 0.5196366610664276 0.6137737466621688 -0.41833468229113113
Ni 4.072106057883017 6.400138463604854 8.322212028862465 0.9315086184513506 -0.5580756817689163 -0.9076649790645337
Ni 6.43160929463507 5.813873337084537 0.12660034571436765 -0.0013660271095911958 0.4647081273493481 0.22290127434704837
Ni 3.992740788375968 4.419633683405507 3.6757939943182114 -2.3372929533358264 -0.12742592955585796 -1.1852788144631135
Ni 8.180862986064522 7.722973554444052 10.480234057817086 -0.5051688064675558 -0.3994530148952798 0.036520463523537106
Ni 2.6460142776441518 6.673834254745288 6.328261466303931 -2.8332057884227524 0.18705829650651012 0.9163406524616606
Ni 0.7272505435814751 9.124364824276226 12.456422758618936 -1.0699956909173767 0.452081439724273 1.7183281493910212
Ni 4.088762162603796 2.562454757311267 8.101505156470244 1.0765183225272428 -0.07406396899494987 0.5243965443489162
Ni 6.271353573502486 2.3213085845531474 13.512934081886748 -0.48541810620318976 -0.11147146310913059 -1.8595791577554295
Ni 5.829701751509308 7.748157659180998 8.488393640518822 0.5892449082828691 0.7913780968446306 0.4036439130481758
Ni 5.851974990373778 1.56697582848849 6.516274572003856 -0.6375574793453278 -0.5131006597201228 -0.9907908011514356
Ni 2.9472749456089224 4.506606263723052 7.566143913143481 0.47179383055153584 -0.17420946556829997 -0.040286358323872555
Ni 7.917852769644453 4.831553753979182 1.797743322928134 0.22604727617519782 -0.6671444489738252 -1.148203249767055
Ni 8.617623065409385 2.648906543734694 6.630391674074058 0.37776447417825265 -0.2053640367942334 0.3489372655339152
Ni 4.012558856025314 0.6436547536738214 9.961003475371498 0.33515769525131955 -0.531298413675072 0.18942139742204797
Ni 2.5678207943988656 7.887367727056674 9.064274508786085 -0.44685207300453367 2.005252206446934 -0.26046226331995787
Ni 7.4983625878241495 1.3115450232060177 4.758058575650108 0.6988428085183706 -1.186825333014627 -0.06898758291330699
Ni 2.325530735051882 2.042711750873434 9.926825446080972 -0.07656410970898427 0.8945276703516272 0.41053292685852516
P 2.4030174265837236 1.3640894071660399 11.967952495533735 -0.3805086125822931 -0.8401290409960885 0.8327736290722819
Ni 6.751339546059063 2.8071348886366088 8.310915451305608 -0.7177668991163833 1.3911773836045782 -1.069052353167501
P 5.342517663344756 4.6659877951047966 7.198733120734881 -0.7720665410002123 -1.9761619739491965 0.046556250492984334
Ni 7.821440799996037 8.83707259254295 2.880321310585598 -0.6513563329016331 0.2171605152085292 -0.13982044656546888
P 4.53021868688668 5.974826550039599 1.7041389903624669 0.40635154178732596 0.971742783381049 0.4307739364957484
P 1.2523140176411716 6.46224313547831 4.540848462261247 -1.4618881198565792 1.0361201212158544 0.9523762059289792
P 6.563584047338906 7.428194910482845 4.6704424428776905 -0.5376117574876097 -0.565935029912335 -0.7963300415332673
Ni 0.1379443527151526 7.318418997515747 6.49038553553166 -0.5737884645184829 1.8644526837976472 -0.9467886845388727
Ni 6.677582110804738 5.560432708468869 8.497049979030326 -0.3908161651558882 0.6551875337222651 0.42225227217798245
Ni 3.083295150883132 4.584948545223799 1.1179854625337458 0.35158061669403323 -0.7239802270159467 -0.1223171475743829
Ni 4.116271240082335 3.300261607128675 5.68010370542419 -0.16247932161556533 -0.5955148004519808 1.6343888302638885
Ni 4.849567642781051 2.1508787827033484 3.8103699265253423 0.24501944640232642 1.3016310027033131 -0.38915111874863945
Ni 8.61614438274573 1.8727004441171213 9.545040742194741 -0.5985864973987691 0.7113185723878781 0.41647243227141173
Ni 7.609393986071707 2.9906031376212665 3.050871081028864 0.08488702775238284 -0.9619368530342207 -0.43056876246347786
Ni 0.4982723481637617 4.748310429939153 11.178223424461956 1.1997374130906049 -0.22695564692208012 -0.589044876456921
Ni 2.7655829757988424 4.115276151748933 10.884517987918269 -0.32239551048964477 0.39287279057460084 0.3061715924316147
Ni 8.720386860587835 4.665829696958369 4.976261917394179 1.2553377760637283 -1.5899270004060877 -0.5002608276429771
Ni 4.1602132248984605 8.168261633805082 5.765868229905203 1.6320362708713119 -0.5694278735569418 -0.43387905778363345
Ni 6.7069883660404175 3.416835740392193 5.194560118026106 -0.9353418761545118 1.2501312921621244 0.9740835156990837
Ni 8.219094837827292 6.328064308615443 3.5627519596437227 0.6698867876056528 1.712695633695592 0.5063900804691666
Ni 5.99694169075764 5.110634181989147 3.4773408310194327 2.0761210655433535 -0.06913079335939062 0.514578786927546
Ni 6.301671218052869 9.074191912512628 0.847987308041543 0.42284002636065243 0.14531489402113681 -0.46967755553948143
Ni 4.475135432692837 1.8053599336295956 1.154847440357169 0.23238170303365785 -0.018842329517483675 0.6847477638778853
Ni 2.9071366161980454 0.49480720878969014 3.526274067317211 0.42636603723603994 -1.075373410289522 0.18739331124842568
Ni 2.7599658416551516 2.628623481537029 2.63967268199418 -0.5377320851155578 0.527899158185536 -0.05331439515242432
Ni 3.7488883473466337 8.387125267807766 1.8747705998462367 1.5227535878833838 -0.8011241204878009 -0.046887408580157955
Ni 2.559274194600766 0.832617378241414 0.7564754509433104 -1.2056548070163042 0.020361337265171385 -0.6396387873543887
Ni 0.3489439989166687 8.712872548687004 4.3778939127702206 0.0345931645938372 -0.5355638738196454 0.6521482326753091
Ni 1.1903395442412446 7.326919097859015 10.921827290497175 -1.1913309341944642 -2.2678217459178813 -0.17065517255813836
Ni 2.3003652300968693 7.9990036182170465 0.12526767133888603 -1.0272806685473534 -2.360925248042786 0.9933315652954184
Ni 7.882196987679369 5.3725470112751825 11.986586687063062 -0.9020939127346592 0.6954332686161895 0.8495089395490919
Ni 5.614186078254519 3.9640971241995313 1.2300454287221854 -0.6458431163928877 0.5498579218448143 1.7215697962567704
P 0.7609672982800699 3.272743229759169 3.281365158674096 -0.8031887163263135 -0.20531929959922707 0.5091691858762005
Ni 1.7341971679548895 9.195806586679922 6.293757010840484 1.6381593530499141 -0.7310399620762055 -0.2119550597481898
P 8.659491174540008 3.8001121467894303 13.341159515803211 0.26880857840212413 1.288174362977775 -0.4894305697966926
Ni 5.49482197770109 0.009918333715639575 3.9621906465514245 0.2997250654753225 -2.3374251080383166 0.14458752893680904
P 2.3967957995272178 6.119858349660227 12.462928962339015 1.2256767586641857 -0.018068170355620496 -1.3530350682069021
P 6.71799013705364 7.697919648180637 12.726171676033243 0.4443321347961573 0.18522972793820358 -1.9755163699453977
P 8.627899444927229 5.768601467860221 9.2356956790129 2.368154161691057 0.4663520907106742 0.9829152550581006
Ni 0.8123278061200724 0.23209644885873917 10.264372428618348 -0.3927064402000656 -0.833315617618681 1.4117924887517685
