# total energy = -340864.3893296129 ev
CRYSTAL
PRIMVEC
9.29237421870092 0.00000000000000 0.00000000000000
0.00000000000000 9.29237421870092 0.00000000000000
0.00000000000000 0.00000000000000 13.60032895665178
PRIMCOORD
 96 1
Ni 2.2363956515741923 4.121669659028293 7.319180200036751 -0.5162615739466077 0.9300672580191338 0.9897464190473214
Ni 7.588477844863467 4.5842440369539315 0.5799519293962183 0.32639023347133467 0.42151076602626764 -0.5004364339888929
Ni 0.8920037870159413 7.1618556619598115 3.763591743728709 0.5421279001904082 -1.0414636449159547 0.7568913759216706
Ni 3.352716417812454 3.954602066808023 1.921114693988034 -1.6398336554285435 1.432398080817262 1.4143257966965836
Ni 4.944304944865998 0.8198968232186862 1.7201420167388912 1.8628719695740885 0.08749849723330093 0.3198100091506557
Ni 0.10154799235454327 5.767423434151915 7.699907347734004 1.561681375296833 -0.7457237893406253 -0.7609025539635929
Ni 5.015995610307867 7.220537003795899 5.209700721848379 0.6885928486555882 0.8648298861768782 -0.3536583251586683
Ni 3.613850712076542 0.3332682059459548 13.321807558794225 0.7479141121237249 -1.5186215679928814 -0.5172686750548833
Ni 3.7488689063565643 4.533284657915277 11.380523767030226 0.04030924114200799 -0.6285933281735046 0.5588696384251214
Ni 6.471785383665041 7.394545999397254 1.1580528178908138 -0.350444446207061 -0.7777252819478864 -0.4999661792206938
Ni 2.020394417848169 6.539601129147188 1.7657982379333876 -0.15591375258290568 -1.6434167447941117 0.21174654328180953
Ni 8.204376393857265 1.517453967248586 12.151880016163533 -1.3073275388674581 -1.8805907270100901 -0.48244873916222075
Ni 0.39213167831252266 0.23061720879712116 3.8532854545661825 0.6195139915800556 -0.1282579385388501 -0.7495621892501091
Ni 7.488398976838978 0.9393103338335715 3.814279785446443 -0.8689449367865164 -0.1617306163749989 -0.5237391132705754
Ni 4.157937794766417 2.5202219231563676 0.4068758881448772 -0.16975991443737862 0.1708911998283444 -1.8636684973334547
Ni 1.3373491743005201 1.0595164839510094 12.731757606567717 0.19819117319487803 -0.22644939670962289 -1.8775041176649667
Ni 2.1945799685556033 7.423882024128296 7.573696465535097 -0.8449881688606029 1.5533646279010216 1.3476272669277694
Ni -0.037756774053584824 4.9242705865130905 5.393251127077177 2.3671578592160585 1.797036559136518 -2.097056787254756
Ni 6.542500349836477 6.5830243928684915 12.575842721627206 -1.185115549412372 -1.8053165397571231 0.45500709801150024
Ni 7.772857129853433 4.0695766103611355 6.6152680014254255 -2.2327398146130837 -1.9978518002178045 1.9944666857956552
Ni 9.104974697589627 0.7683408737689669 0.842678936564614 -0.9618802887646725 0.7709162294458529 0.5329763155981273
Ni 4.111234323021654 6.804024923808737 10.48753963455685 -0.3723875261370554 -0.7318082077007977 -0.5910354245243885
Ni 8.901927033225363 2.710027954564746 10.199783618008325 2.15752784805662 -0.9678359921274752 2.507841425112771
Ni 3.9619337498972826 3.020291030188674 5.996521339799361 0.5423168762727628 0.37678976896980915 -0.3249506728113307
P 3.4594021637538814 1.8003788785523607 8.092209076490802 0.608591688240597 0.6409791034323671 0.5388988517301493
P 4.66450227122761 8.18369156932407 7.606160303355928 -1.0492443173026382 -1.1985678182625359 1.003206915427601
P 9.181274380537547 3.021433992191182 12.873962522902536 -0.20095330932104744 2.3427611755392492 1.4691828537457794
P 0.6072482780333529 2.17761209362406 2.2707105302966473 2.4167174153117412 -0.9251603076358196 1.5746024542338752
P 7.043600910383241 1.8292967464532162 10.368618619764181 -1.9484089722056446 -1.6669845048117227 -0.7083690028412509
P 4.829757850517074 8.04292139553549 12.186628848751981 -0.5000757082153646 0.4251740738104677 0.593103877017643
P 9.235820615941796 5.8980370431539795 2.043829785086587 0.15092067024368847 -0.6084677610682231 -1.0991982806232616
P 0.434004044812537 8.212943962689074 12.239520112346094 0.3217313945430846 0.08875113869347942 0.32499643844760157
Ni 8.976005838786294 4.988555229873668 10.200545592676665 -0.03330632746161361 -0.009252628946519547 -1.2948456043503636
Ni 6.8298112616702005 9.13989543909715 8.329167401308341 -3.0970649932394014 -1.6042850688999728 -1.5791800463022287
Ni 3.5966505277948952 6.120366383576816 6.475184534075751 0.8293915999739264 -1.7382973934240964 1.3913375633315264
Ni 8.095246753552752 -0.32027467937597853 10.20544174453944 2.95877486727553 3.2311364531362354 0.6774923678670526
Ni 4.548682121640122 0.5564868265609869 6.356915843938174 -0.5590493585360953 -0.10420089758964635 -0.739862702574158
Ni 6.348178224662091 7.816521995298845 10.585340012475527 -2.9295167417413612 -0.07910127430854119 -0.4543563518013788
Ni 5.599054909571067 4.13763395756739 4.692997336111278 0.2593996263833985 0.48955526830001495 0.056467853179741456
Ni 7.255244020701327 6.439745278098797 6.464031826795994 0.5946755923801371 0.6714075951255534 -0.6634562014889606
Ni 5.9314524200728345 8.266049880122683 3.3341344575163934 1.674832797211548 0.02597276991467785 -0.7340234701845617
Ni 4.690604549805214 4.353105525975178 8.836704789327767 -0.26781896079534523 0.9522052275687537 -0.4629703187226349
Ni 2.6193529690324366 8.713942307121794 11.192607804494287 -0.45897585285126113 0.44549015966000055 0.4608159913837935
Ni 6.9557508065481874 1.7284094418903666 6.079972433780859 1.1679223254625368 -0.06506227971697182 -1.737777773475201
Ni 8.826491541059829 8.890804061542418 6.49772039951057 0.061849172096312834 -0.6263659815048825 0.6544920503171373
Ni 7.250477032837209 5.708723507567821 2.853226225680605 0.08552054757132369 -0.7254539833479958 1.0418649941194313
Ni 8.23783823264614 1.4831186453033223 8.305421668778186 1.4511576208129524 0.9522072844512828 -0.9362828999115423
Ni 5.658442471831467 1.309936670988334 11.928848172265983 -0.7344590150600835 -0.8753860644261697 -0.321730108991504
Ni 4.018161904996279 7.8945872293075485 1.7015647026298326 -0.5442878839562045 2.219289345535133 1.6264672614239668
Ni 4.246020207951574 9.121292106340881 9.730830954566253 1.1529147963101112 0.5307913921316665 -1.5459020009753894
Ni 6.747759599213724 3.9982576398794305 11.790764423801997 0.12755859847898032 -0.11287708520740561 -0.6473726656635367
Ni 7.971825442029885 2.835261279018419 2.2875483119921323 -1.1522398817302737 0.8042639516683632 0.788147762832791
Ni 9.275777824159558 1.742422341888596 5.527962673015063 -0.5496020970802664 1.388823024439789 -0.385313233059788
Ni 1.4857576795204954 8.445290482288364 0.6643694302741462 -0.5209751773721931 -0.7266644587163291 -0.6066103961445101
Ni 5.918340880353005 6.493408737972652 8.318464444930383 -2.4133811518496566 0.9859329588385021 0.2438845614669348
Ni 8.365719883690991 6.868792770617531 11.157233595135361 -0.024005104665345754 0.2921523953343872 1.6325803163002397
P 1.7643802216603572 3.53549741447371 5.254024416610683 -0.6142154621852777 0.4518312713866799 0.6364889288714974
P 3.0539294240836283 7.3572742872666845 3.7492294504679244 0.48985120227387896 0.11033889216658417 0.15383321590479315
P 2.512778731579059 4.881562835590104 13.431643419523054 -0.7728494419128238 -0.05725409652646268 0.4041010551902524
P 6.455068402831609 5.603115677010871 10.141520433002425 0.5272885211847306 -0.5913419000212138 1.589935999267152
P 5.311037777313028 4.329967514704892 -0.20203851254741645 0.8180034127416429 0.40463121666210955 0.44840656197584705
P 7.098388747511597 0.1522778497552953 1.3847170507865776 -1.0505365537515003 0.8520731007318423 0.3160307446138815
P 3.2709806960721184 1.8719115736361605 11.76750747014446 -0.15237000109570534 -0.14491611592082138 0.6065036953633168
P 5.1632332764033215 6.197390871697058 2.7495512089165164 -0.342672515571126 -0.308535721788417 -0.25061185288843935
Ni 7.493138087581083 8.796570096766526 12.85492151933067 0.12861892142269463 -0.9653978149996276 0.2970829998667851
Ni 1.161119301312177 4.124615341587603 3.2772168082662905 -0.7640125603474842 0.38803397442506077 -1.5351671310563881
Ni 5.630249409102934 2.184850852973278 7.648294714802859 -0.9371668451783924 1.3015777808678743 2.922882524254295
Ni 1.071494354042334 7.111360901621365 10.074687820689915 1.2688602360301955 -0.38830933957363445 -0.8334256608339841
Ni 1.999031250012672 1.8510594863708907 6.524240834918359 0.09531953593961648 -1.310306161879808 1.1903572574272854
Ni 7.091549560244557 3.6051065881386544 9.200336756569621 -1.8875527601502202 1.3577869810695904 -1.1782699872454483
Ni 4.104292919640568 0.14679999527986012 3.882444924191146 -1.0637957327542518 0.3911563221041263 -0.021426802415208262
Ni 1.7268483230576726 3.1766073456861648 9.59360396298545 1.6093581125475058 3.5242476128394657 -0.8271076890357563
Ni 2.359259420656812 9.170820459782899 5.412346026418265 -1.0737399884511574 -1.7778900681150542 0.21663189639856884
Ni 2.3426353635634216 7.021011149179199 12.565928687802199 0.1487797126412857 -2.0846684408927323 0.37256004715917773
Ni 6.525235118936801 2.355876996519308 0.3029146662614611 0.8461667625497362 -0.6114065319815729 0.46113789349958645
Ni 8.542089142289397 7.977252188448298 2.231583131077453 0.25787753331191715 0.26637785747344445 -0.7608614163130122
Ni 3.95832830878368 6.1296773423289554 0.5062271632848439 3.376653435865849 -1.5867887118874222 -0.9532958895297713
Ni 1.212227358334897 4.2748730292344 11.911031903587864 0.3168488696398027 0.18520093158279716 -1.3517811411951428
Ni 1.78188705428414 1.1006259465452846 9.94076612654238 1.7707182329569633 0.7211149896530097 1.314455408161491
Ni 5.586473035169473 3.8416904302838284 2.1391825516925764 0.9419303280053068 0.034378991700502085 0.14405531058242288
Ni 3.1384528580252034 4.940894643606481 4.4900537463358585 0.8195589301542208 1.1070596856492096 -1.1033220729836484
Ni 2.1869323447502036 1.86619676362362 3.939811395105648 0.3419963154397078 0.3522822707467481 -0.16656223343568732
Ni 4.386585949512062 2.36708359956829 10.049472963829704 0.28306200299734474 -0.555281663963547 -0.6013388633329256
Ni 7.946698862722714 7.5573855614456455 4.4624721218167975 -0.07656128149550685 0.6648301990183518 1.0093446528942231
Ni 2.561331385750643 0.7500562694410384 1.7920333974592506 -0.6431239176895118 1.2817764298712313 0.7188354495902136
Ni 8.024262308535196 7.051675983392831 8.815392729549293 0.6490230567827662 0.7146031566764209 0.5989274256779556
Ni 0.04799882868093793 6.055180379937838 13.15524454248238 0.06687053657030419 0.4487703730731691 1.1550480406030301
Ni 1.7009969385781802 2.9367247107695245 0.5269082708684377 -0.2694143303069231 -0.10695583462696419 0.11792158960984853
P 7.684802593790288 3.6794177030496895 4.4079751359947705 0.5687244197320142 -0.9331253281191672 -0.8623035202105989
P -0.07168137306786604 3.5721837070420186 8.250571572744002 0.8050563656626716 0.4897835822607371 -0.24439055456907588
P 0.7946289998266532 9.042678622265933 8.976216775676189 -2.1542625470417867 -2.7476492454071715 -2.4884013141102885
P 5.744090283027543 4.891329120668447 6.889573306602968 -1.285735157408663 -0.9967547320443543 -0.7516982617565054
P 6.556541126956718 8.94941106438647 5.812930048124945 0.834405251138434 -1.1941491203695498 -1.1590479057910426
P 4.836420482678037 2.16553200741869 3.5530181856584986 -0.5655213394136841 0.9989849069264537 0.37032267318822676
P 0.8869366554714888 7.102821209911568 5.940610054653906 -1.101662168782722 -0.0640376951071994 0.011910892504973035
P 2.6776626159083583 5.225826707695148 9.459939667597828 -0.13737121369402794 0.807244631563242 -0.0751641440376641
