# total energy = -340890.78915327473 ev
CRYSTAL
PRIMVEC
9.08332541754279 0.00000000000000 0.00000000000000

0.00000000000000 9.08332541754279 0.00000000000000

0.00000000000000 0.00000000000000 13.29436490517796

PRIMCOORD
 96 1
Ni 6.438033814275933 2.122164515016372 11.340557846173416 0.42861498117121666 0.2002107747280681 0.22627276192244258
Ni 4.924779086954953 0.6844476283400254 6.052977125988027 -1.332082377214635 -0.519601436953118 -1.037570994729768
Ni 2.7647643558557786 1.4052539907660213 4.479828769003794 0.7119700899289481 0.517175858230761 0.9660971550594974
Ni 3.6856954472853496 4.376191661871965 5.069460107307744 -0.08015954036972647 -0.03246609094850538 -0.1642739516221429
Ni 3.756899633479994 3.0266275378694796 2.7263682319288263 -0.057372624382197965 -0.2658060441303745 0.04194549119385034
Ni 5.228470981486365 4.8281870068434785 2.1828683772869173 -0.2211768354567739 -0.3704396583820653 1.7814795852385255
Ni 5.24539321632252 4.617417529045222 11.588112974341755 -0.07716883317251871 -0.3008666352789334 -0.4726078418123989
Ni 5.703428972547949 8.441697268813247 12.20510419646212 0.9303025139583914 -1.5572991870687374 0.8118278800585502
Ni 2.0180060250184146 6.571595027926405 0.3163286165411057 -1.1419063610147495 0.09602247554391205 -1.5697659520771803
Ni 2.6664736939330536 1.6900525688942107 0.16732665839359634 1.3420615999145338 0.036226586432202126 0.245330549884842
Ni 7.901584586136127 9.058346049573805 6.4057834681751435 -0.1300659382818663 1.1798316753056133 1.095647587157526
Ni 8.81856443110637 2.5452930525218083 1.1671618707846438 -0.3364895266888656 0.6688688878640996 0.49476149509130274
Ni 6.77577001163392 0.8494925554449249 4.506550095059082 1.3551094342374277 -0.321132327506505 -0.5237270290857173
Ni 0.9969040233509899 7.5255621730860325 2.5953258243546107 -0.6538148217444546 -0.338375687967985 -0.1764165005219478
Ni 7.83381389686476 4.016882567178566 3.704926663385783 0.35525086645676884 -0.4645746870952773 -0.525193843439231
Ni 7.914537407862568 4.0735988496890085 12.625937377691068 -0.9730090516879825 -0.20715738124923033 -1.363492773205116
Ni 8.153646860265656 7.27082940134951 8.959258780031577 1.5573693781850406 0.14997758960412882 -0.6805666359170021
Ni 7.215866200601481 0.8418471206292555 0.1590962574354426 -1.0412332740727035 0.05159458424784018 0.1499346521813353
Ni 2.293739444603135 6.496158012191422 9.109710436880027 -1.1389187391413353 0.9750870172629337 1.3161487367035138
Ni 0.27046599930480275 4.994457274517029 0.9754937175365498 0.7537795697655664 -0.32695587616681754 0.010647195301201017
Ni 6.643598546738108 2.0716248936377517 6.885137788630554 0.44204950940956766 0.8301099661971897 0.37744025806961445
Ni 3.5813734574339033 4.551608838015729 0.5350105789157302 -0.6837290928053837 -0.6449910528052376 -0.3837931968708358
Ni 6.2059276055973065 5.560866183630364 4.513543347125833 -1.666987075914884 0.22219704919117217 0.5096882916044642
Ni 5.671809917548132 2.8768980053739424 9.074002068877936 0.11559525546951706 -0.19624253410893944 0.5199590774028529
P 0.29297629580021894 5.907867372686086 12.101195497906994 0.716289029019276 -0.932785171170929 1.092898306547163
P 4.092546666043394 6.310440345277824 12.619887883111959 -0.07277301809766822 0.557567117563614 0.016751251316409862
P 2.3482303124410824 8.580199811369177 1.1365846731845635 0.23794145650962242 0.4602973998761621 -0.19297106244651926
P 6.257266559592986 7.973315605192016 5.577557702006596 -0.44775787264825473 -0.7067350667822538 -0.48389549891107625
P 4.902388690352095 1.2281109828354235 12.794829093015567 -0.516080054063421 0.38165481037159427 -0.46538278481886947
P 4.130551298654492 6.238709326221936 8.094486254945547 1.2080225359175325 -0.010333520715524139 -0.512281249142621
P 4.898955193428817 1.3352488034969658 3.6610551110319736 -1.7502278263130957 -0.801234163703104 -0.7437342697144224
P 0.2253636563872257 5.7848973162116515 3.8834031034548393 1.1784782466015122 -0.7210967348205646 -1.3293824617849685
Ni 0.6042055335774934 0.23419719013825152 4.588509846615773 -0.9745347443038892 -0.49099688584254797 -0.4183128279142603
Ni 2.1385690003164775 6.275996376142719 4.8896802100733705 0.24957698386602178 1.1437912367422882 -0.7322967173014421
Ni 6.179704045762642 5.859416916102053 9.165680070059533 -0.37569525035404977 -0.938387862069687 -1.9066961658478905
Ni 8.39816089115909 2.461590210860417 9.824601737939783 0.37269528718546135 0.3745369683798905 0.951862242407038
Ni 2.4809195268729445 5.246792048402373 7.101823236127569 1.212794246274563 -0.15046224255003118 -0.750733583850391
Ni 0.5425152221908949 0.10793533661356292 9.114430132650757 0.47462307247021485 -0.08796001025075173 -0.30040486515116654
Ni 1.3969972481648052 1.2613196197441647 11.166268819018729 0.25763379273222725 -0.002123731211222149 0.4533376807288773
Ni 3.9417725511505637 7.068134999648592 1.4832252542300888 0.7037111923542655 -1.5535343207096663 -0.1770585049813209
Ni 5.610951638749292 7.989720090492121 7.873985810867112 -0.13825618740214254 -0.42115029736305537 -0.20763226400311985
Ni 5.572347506675399 3.060826257224351 4.777263160809158 0.2974432114196813 0.12157204187824222 0.14888101410584037
Ni 0.3661597385546047 7.542057491638077 6.588673495955894 2.087087591857186 -1.504872593837905 0.09970532371213796
Ni 5.405659406042931 4.374602079963039 7.079329289617501 0.05603153697327124 1.1770481990232051 -0.19511896202745752
Ni 0.9961137740591243 7.770067120654272 11.254211756880613 0.5728325283631167 -0.44954298957313543 -0.011258603632954806
Ni 4.720486020019917 0.47067883656275805 10.354183213387145 -0.24266894389227883 -0.2192989017077707 -1.2465600298710984
Ni 7.870783030403758 7.2310262703500285 4.237605552724251 0.10952230980255975 2.053371944772296 1.0435207845552996
Ni 7.209462456339812 6.342241066781517 6.757260011553878 0.40932733658619824 -0.5686562854982401 -0.11569295738964591
Ni 2.1298035915044053 5.301764332475596 2.5771255656636796 0.045623197155753685 -0.13906428512573468 -0.05208540784132965
Ni 2.6064147477512716 5.237863139736812 11.34652740749082 -0.6500964923526029 0.27161442328203544 0.03339117386593604
Ni 1.1339895671766784 3.293804465121587 3.77287447749843 1.0002619738666645 0.42516636050098394 -0.05822674485237714
Ni 1.5986016508424594 1.1683336197346512 2.2738415124334717 -0.37969820086585576 0.3688879976242292 1.1267723335867885
Ni 1.3019947499622557 3.5520615670333267 8.301359894568156 -0.45689120240809056 -0.5831868750142473 0.1324436944854235
Ni 3.7093847593909284 2.820399722668152 7.3651706334779465 0.31059183298649734 -0.649642692644636 -0.7268218102297999
Ni 4.153495778094174 7.1625743316891235 5.900450837665302 1.053502835468676 -0.7835357179820763 -0.2779272528739407
Ni 0.5066805959686099 0.5363985110053515 0.09856316167854134 1.1095533986053407 -1.1920909522889402 0.17394129950857784
P 0.47641677308771746 5.6706835852240935 7.910359986605912 -0.3880141769307188 0.9659716852252266 0.509791907061864
P 8.710836194307227 1.7136782977234326 7.8337312386054965 -0.1316538515942765 -0.1261977135757117 -0.501757981013794
P 2.0841144657793054 3.244363926091424 10.39060916407955 -1.2116105103791068 1.5670750355085787 0.07382022841525997
P 3.971965524094944 5.9756743952582285 3.517755664441168 0.40171224324310173 0.8627490923884495 1.1119969750498266
P 6.9631408437328 4.299610147162556 10.304688174405818 -0.047511158207085916 -1.8754585479898473 0.8485288350240097
P 6.442875226604259 7.821015491666616 10.009832538622991 -0.2021247039213293 1.5903851709894288 1.392026876089067
P 2.375898120981571 8.429571029679447 5.507894956097349 -0.3330087672291168 0.4063659399650292 0.4435744306945264
P 7.138412686673464 4.207341729843358 1.567711078523191 1.088645701918396 -0.4437099278311261 -1.0515325991161826
Ni 5.60484764421902 3.126798448107334 0.22114808516475667 0.0012901795663332618 0.34313300014731224 0.34075292995090994
Ni 1.5111746458515865 0.9658481345131931 6.922867196488278 -0.6020181487881373 1.402875645878113 -0.8441083373588109
Ni 7.08336773599869 0.5868136908288156 8.952677910928628 -0.48931769836791206 0.09779859360772834 -0.014513877345458875
Ni 2.717848981229508 1.6584425972195886 9.192295121210055 1.0114082202914711 -1.645803242748417 -0.9126848008766282
Ni 6.442148560588749 1.9525697503218693 2.226407479938632 0.568676340102898 0.7784806720566722 0.6733860590081628
Ni 4.621078109098346 6.7919019971782095 10.554595883799365 -1.893842449813674 0.948850709274224 0.2904238426790547
Ni 8.542694761643743 7.512636601335174 0.12420448036828001 -0.08831662225922209 -0.10008044766336958 0.22430124001836854
Ni 7.8985689221717665 4.135683377389021 8.071154825852606 -0.2501886493080917 -0.24540125522177736 -0.48827331626379783
Ni 3.295630213485552 8.610083951256966 12.226295594139387 -0.6427238540376157 -0.46544320574315967 0.3941274889173083
Ni 8.913249012927135 5.107108673571242 10.073113340251034 1.3981476442748244 0.2727104845596916 0.4522123088751825
Ni 8.75629823690248 2.496442929629246 5.612468554056665 0.2400435904542898 -0.6017330134475508 0.3754072867999857
Ni 3.806358339160545 2.564486118656428 11.37078987741613 0.9675295166306498 0.3588876918784077 0.5199660193813884
Ni 1.320897149690672 3.618124591168248 12.645785351572165 -0.09196604608635128 -0.6432442453174599 -0.8998318561733598
Ni 3.092072895891219 8.566120657318699 7.654123924549806 0.6472099148334273 -0.562383822225967 1.0376288445508968
Ni 5.575444920566505 7.6174490907470895 3.1838807886230884 0.5309292032611115 -0.048274004515039444 1.078344577102704
Ni 3.1110207122456046 8.312078218296909 3.380996211989939 0.5538449315170203 0.2648151409720149 0.6553441139047875
Ni 3.8197380771710963 4.401752138967478 9.301043415428467 -0.1368467086491256 0.07890972712302538 0.12902849815628747
Ni 7.256704830673061 6.5177218262016385 11.631119794137108 -0.09350382288711638 -1.0713804870800452 -1.1647539550368844
Ni 8.204222814945052 9.012184590938624 2.4620234854721637 0.2733905413458518 0.28740151091296307 -0.2143479854603986
Ni 4.658147159214476 0.16900525688942108 1.4726168387361833 0.21972313372938287 1.661156585276036 -0.13538066562656043
Ni 6.000753456118467 5.8168706208940275 0.3076567659785305 0.8592104831075719 1.3974488184355869 -0.47466189612795034
Ni 8.05177736821655 8.887715785807202 11.220629795306403 -0.4651256745027409 0.7908726179631218 -0.11768761922217152
Ni 0.5562019765929984 4.832056503376061 5.8026316003201375 -1.613003165499261 -0.9018961949015565 0.5613677222566267
Ni 7.92622764738706 6.286969032976898 2.064814216407398 -1.9318382123311566 0.2838441325790079 1.234712386503893
P 8.670651563649605 1.8452230131808682 3.3047262553346806 -0.8113938778449252 -0.3486840118725285 0.8673207709195321
P 1.9013125462529348 3.341800755445927 1.5744645308048235 -0.17100844213249902 -0.1853055754814615 -0.905714283096066
P 4.936251326674793 0.9983391887316193 8.15554800022873 -0.31421168912727176 1.0808184925644935 0.5572092200035629
P 8.626542936508235 1.8827916461826606 12.05174042555652 -0.943472475681446 0.9672274120091987 0.13497854509213525
P 6.64918479173233 8.118866808098378 1.3391546333303246 -0.46147547934466326 -1.2507663546429622 -1.0443103703361305
P 2.088310962018867 3.0682019172817627 6.019143556305949 -0.8486568759614417 -0.0014233627100878712 -0.7831544233832577
P 7.272028400275099 4.181708586146294 5.944056248590932 -0.7069582385366534 -0.045907046944759645 -0.619026767530992
P 2.6054973319066916 8.57973656178429 9.985742651876363 -0.008823511828900933 0.345101950948225 0.24668526414052355
