# total energy = -340889.61583513784 ev
CRYSTAL
PRIMVEC
9.08313267945480 0.00000000000000 0.00000000000000
0.00000000000000 9.08313267945480 0.00000000000000
0.00000000000000 0.00000000000000 13.29408281350268
PRIMCOORD
 96 1
Ni 6.4772999187815286 2.1777536995219857 11.279217851034598 0.7961433794437579 -0.8771030471172766 0.5105930628069206
Ni 4.821808175962198 0.6776516472012926 5.954699161233888 -0.6085667485399325 -0.7589708841585187 -1.7623801454049133
Ni 2.892223824609365 2.1036080883257045 4.722430530790399 0.31671157273099004 -2.3735372803798414 0.2555972219181727
Ni 3.2817085493547444 4.456793410369431 4.349465299256177 1.1320384670817343 0.12116143670338489 0.7721318470205089
Ni 3.824198642298257 2.549380985628153 2.4853285513473815 -0.16022754946691115 0.4170252194510882 -0.24308520549409104
Ni 5.1209611472655805 4.605765867704995 2.4025330730014964 -0.27871606732382326 -0.04678610711560329 0.20752916276635228
Ni 5.300389348119598 4.2935513517611295 11.500564708714638 0.22460514441203255 0.8082566177675241 -0.9715108698759012
Ni 5.758442640661219 7.669915225662787 12.095900466969919 0.14420263479356457 0.7558773328348595 0.8745219166536616
Ni 1.9459067405871484 6.634274615914216 0.4312099108475917 -0.6199873316720484 0.6727234857234995 -1.1464574707205417
Ni 2.8131188230280326 1.7097089611496752 0.2732297109390337 0.9626881293779486 -0.834271296663731 0.7230430599136579
Ni 8.202313958317303 8.756448627219854 7.0883912787985475 -0.2284340312398195 -0.03899283632342962 -0.3127255915000485
Ni 8.540824143061025 2.340378105115299 1.0896053169933757 0.49800648439116163 0.9190770775562171 0.8401871479275337
Ni 7.084316585526141 0.6684477089647138 4.555018406017671 -0.6936226977700118 1.7938465914443105 -0.5664111982178052
Ni 0.8686563005200475 7.992784256115195 2.499420123221682 0.24337214060689058 -1.9738811483348198 0.3877858629699967
Ni 7.660686762968259 3.815497001292984 3.5901072413045436 0.13579332768394675 0.10163339397278624 -0.5945380383610084
Ni 7.947277761922695 3.829839267626309 12.331271681343216 -0.6442845136565162 0.7572305044286443 0.280881193295942
Ni 8.406884270134361 7.259130555032894 9.407730123934188 0.29843951389467954 0.5450180772540097 -0.9633931258647732
Ni 7.078675960198089 0.7228938222359068 13.346461618102884 -0.9047372638947773 -0.6808831387161564 -0.09013310664267057
Ni 2.0174273264697304 6.61654434113103 9.284719984433039 0.3992110740878028 0.26675066743183096 0.11018385464595863
Ni 0.45699419928356905 4.808428721681648 1.1281450485021127 -0.9759521934767063 0.7081838834136385 0.30814362855632094
Ni 6.784400631086596 1.9388128140473597 6.880977038172773 -0.16538466818781838 0.9069278437881929 -1.49515742343267
Ni 3.254940557661073 4.615984391850017 0.6624228671288088 -0.23484096320742784 -1.3907978887779724 0.6859322711042897
Ni 6.244308485142449 5.5580414866953305 4.295011919478925 0.6366210835739874 0.7114687248124972 1.8601070052344415
Ni 5.1266562713890735 2.8987455137970324 9.458141509716299 0.8028393034066947 0.29983999378663195 -0.1832147543907038
P 0.11669827067592557 5.749105180375813 12.158262530278789 0.9201109181373702 -0.5645553759559889 0.694488902425049
P 4.039550632479885 5.809862254158971 12.408736269181802 -0.3347144370663139 1.217858805281664 -0.008258383354050294
P 2.584823368929377 8.588328926419662 1.3374776467273797 -0.24412290272998605 0.5118523891353185 -1.2849064908597805
P 6.662822901592265 8.05453139134885 5.596343240130646 -2.035290661790553 -1.2559558692637016 2.345244604082735
P 4.98711210566465 1.145610095814156 12.525631643834569 -0.8372416921459644 0.6817038348452388 -0.7917257099920365
P 3.9380193765749443 6.229584727241043 8.112261965358567 0.32132953111897566 0.42845994365059115 0.4568492934265616
P 5.023417386560342 0.9214383839038022 3.387411688050626 -0.22508748336508977 1.0053296181975588 1.4177363650400294
P 0.1953091498452671 5.882091324382276 3.508840454170754 1.1456018075884657 -1.5938579600293774 -1.5561617310301845
Ni 0.4472343733335012 0.315700622225518 4.625303685870277 1.321201725746389 -0.43762618353089144 0.6293104088451871
Ni 1.8189790460071125 6.759412933377301 4.768799922577367 -0.6122143725948488 1.2557846337931597 1.7922010854210877
Ni 6.17282423179016 5.726869671836244 8.928917331896168 -0.4034382247952729 0.3643883099816628 0.6557866007588449
Ni 8.830312661306362 2.1392048848806753 9.940996295749459 0.15160329813300988 1.1290025084688877 0.45539687725075123
Ni 2.5138931866640624 5.3476670531639 6.640966159681006 -0.6102027414814588 0.011657124622954118 1.0465066066565007
Ni 0.9300128610530475 0.14541277768006663 9.088978477477282 -0.5915869261524843 -0.6186691270812571 -0.062498889865169785
Ni 1.5794386737826456 1.0060114312942927 11.328432988256797 -0.35651353521927637 1.53182315428482 0.8649363298477555
Ni 4.169067019843326 6.943600695699755 1.483526243687581 0.7862613444433556 -0.10938527000406323 -0.438724815911709
Ni 5.704425251247489 8.35229464336851 7.7291663160652835 0.8579275026300902 -1.083006758465064 0.23430643086019645
Ni 5.184561241544199 2.9008073848911833 4.836878909527905 1.4085868373302772 0.2782985201704304 -0.6783310617182641
Ni 1.3169815580756086 7.717320094563116 7.164765890728329 -0.40285792681177074 -0.4857886021687311 -1.0874498818380818
Ni 5.414627906494659 5.229886073085231 6.779450323834118 -0.5897030788662102 -0.06444650050984385 -0.954855006486775
Ni 0.8635960873634326 7.727193459670351 11.394012297123147 0.45011788823999893 -0.3225592897610187 -0.18226113222818288
Ni 4.810027353014559 0.40506956361473884 10.267524920315672 -0.3696014787514861 -0.1892149378381967 0.4753208698681879
Ni 8.342966266215676 7.317998337240795 4.639661393528976 0.21070421806022424 0.5804188253508069 -0.06243949738214407
Ni 7.623691163996992 6.292948660072755 6.91617962677406 -0.05532525493486601 0.23860685800776327 -0.05207229521520709
Ni 2.3823058450738968 5.990098853812016 2.797632990303723 -0.47439732961265396 -1.0638466405968452 -2.3296665471388196
Ni 2.135780543900521 5.1925907307390435 11.443706115431961 -0.1070576503121511 1.1473229040446304 0.325630986707807
Ni 1.157291004303488 3.56642842299907 3.7244831045947295 -0.5631518107402431 0.5696268769416255 -0.5109442754987523
Ni 1.736050045612399 1.1544933994708952 2.7159411125655 -0.24348012693966453 0.9918269557254338 -0.8013717177222327
Ni 1.4502401960592712 3.379933545002985 8.12744351314167 -1.0736844526228735 0.4531019105689874 -0.6387556134184871
Ni 4.141009223324239 3.2214237984653997 7.062255473131981 -1.2479178294505735 -0.0378306976945284 -0.2949816372530662
Ni 4.019313413106453 7.11457250012798 5.944648675041472 0.4073781832796274 0.7664265691056155 -0.4698881288883907
Ni 0.6438551275223604 0.2817079068830015 0.41055850062881616 0.2913725797455691 -0.39127562129081 -0.19774457257576264
P 0.3691385077810688 5.9051988136488855 8.061465454755346 0.0888131022796664 -0.6959138077970337 -1.4221080117451637
P 8.896119956800305 1.6132097606903724 7.671935314347101 -0.28430461715519423 0.45393983308925046 0.9462248416156027
P 1.6400867499749239 3.379797298014384 10.384353988100653 0.5000872781795903 -1.3541774093414614 -0.6496380646589457
P 4.352464549631898 6.289487986562308 3.7445704522806995 -0.783606937539644 0.2627369182867475 -0.14137364998520172
P 7.145745811119728 4.021602362514939 10.142973373216824 -1.7227651021164525 -0.3421881197355397 0.3130860601632608
P 6.301750215536334 7.847308804820372 9.915165683337358 0.32981751398532877 -0.4478116087043256 -0.5028967226039274
P 2.594633152108598 8.89239587244523 5.544430412534162 -0.25939936927308227 -0.7310667015490828 -0.3014991266566098
P 7.035431166016354 4.061704392826293 1.3184530255524918 1.5316159233700204 0.9178231505444581 0.8203102064979486
Ni 5.455592834400481 3.1890696802391165 0.33145622398725627 -1.7457505072680324 -1.5839846667797235 -1.4286805227563588
Ni 1.9223269284267237 1.1772284803019981 7.044800417265768 -1.2479563959979927 1.6702698604312138 -1.5474832294195802
Ni 6.844122227756392 1.1012753257236199 9.00664805551915 0.08591392635500042 -0.7491407854419743 0.321910086212794
Ni 2.8790986980408695 1.7518365300248868 9.169899197260026 0.6461215668652549 -0.059636480715710205 0.9527089066780495
Ni 6.422256135387009 2.067938626710147 2.2052755912192454 0.4123098162532899 -0.26636243085447675 1.0220237910237882
Ni 4.141136387180265 6.843549990404271 10.513266347147967 0.13726811245726037 -0.17051247633268696 -1.2644811331258934
Ni 8.380806596516265 7.367982815791957 -0.08450946546247697 -0.8467773995505417 0.5761973310702916 0.8076110137637252
Ni 8.03938980934907 3.8305659182321774 8.182069472437814 -0.8606284465010211 -0.14625848888132875 -2.0851790619805635
Ni 3.3758824678752695 8.462364043892402 12.439525363665696 0.026284644728141827 0.10929990937910854 0.2555427145311534
Ni 0.07078757708391249 4.836014195306922 9.965629751288393 0.7738226044593706 0.5813637057625795 1.0858120891243428
Ni 8.795560596080712 2.4355784176166124 5.501410880040246 0.23465944332424102 0.2744832601893982 1.0388418910223916
Ni 3.320448109780095 2.950319540548531 11.538891894921159 1.4045306649830327 -0.6428102431038348 0.279935284442905
Ni 1.1296782812804946 3.1128985304789776 12.705234240833994 0.582676768147048 0.7517208874643247 -0.3864332055968442
Ni 3.324635433896411 8.72412175839129 7.97731386471626 0.9638782930313077 -1.3186061971050709 0.9199322264676608
Ni 5.820389604811488 7.944725401669584 3.25698335417682 0.22871890947008994 -0.15544864002102904 0.2846026080115873
Ni 3.3094666024989112 8.417802195487532 3.3815630589866443 0.6789483835872887 -0.1143313011554289 1.3168336785856805
Ni 3.3466166147239256 4.3455250363458555 9.267571030134548 0.30940655442914455 1.2853302086607605 0.11707029735314677
Ni 7.290839770846469 6.067341813215811 11.104852588276968 -0.4884278395637911 -0.38391352449878396 1.018280521931272
Ni 7.969495104197118 8.992637323524754 2.3632358082361415 -0.9859180464401667 0.6390839432921832 -0.48019799545483105
Ni 4.751559228639885 0.2831339586970179 1.2000298680008863 0.08058402950165476 -0.17152291987507234 0.3227387527616764
Ni 5.842298120578415 5.600750376055237 0.255273266154772 1.2062371618823355 1.1340562688427114 -0.01937814741629566
Ni 7.838598080682527 9.069780368470242 10.889156347370811 0.6725432513918934 -0.016657920271655184 0.9515182288040581
Ni 9.011484823614461 4.857386806252022 5.46514465661462 0.6182788336213739 0.63643827813922 0.6864030400931211
Ni 7.536747419004858 6.195550229488689 2.2292977519359924 -0.01606605232392717 -0.11707878199357902 -0.45554445857220893
P 8.724693995743412 1.9286669549629243 3.3188013378445462 -0.6564463458300308 -1.6891031910876328 -0.021310331442002006
P 1.6924873417905977 3.1351431221511192 1.6339093115117866 1.4904181089754718 -0.4564769976888074 -0.63776188204665
P 4.8283207820172915 1.4194483766356043 7.937670532599861 0.12086858805331442 -0.8909211839472914 1.1609232684368846
P 8.71463896798471 1.645500296988642 12.223550270589536 -0.9246296319433301 -0.6195247902133331 -0.4372191779004599
P 6.440604063185182 7.811484929951067 0.9762087650078639 0.3415178331413925 -0.5596054881498814 0.6356360939528989
P 1.8973937295128696 3.421543375321515 5.955443069791645 -0.3189561457907926 0.21152362863772603 -0.03223931964967996
P 7.016465585203194 4.0388148987414425 5.98556727897117 -0.1681833139788781 -0.5875551792852719 -0.7143874411211891
P 2.7213610177720198 8.663482765331585 10.327241975419183 -0.12602982053927972 -0.9889264942491873 -1.2084423970637705
