# total energy = -340897.3337430718 ev
CRYSTAL
PRIMVEC
9.01606273795526 0.00000000000000 0.00000000000000

0.00000000000000 9.01606273795526 0.00000000000000

0.00000000000000 0.00000000000000 13.19591917458870

PRIMCOORD
 96 1
Ni 6.373698041275839 2.0419037470628574 11.504294739346003 -0.08847474510364119 -0.37038360833314926 0.0520553259343426
Ni 4.578176235168618 0.5142942392502429 6.071996245410353 -0.30167164767873206 -1.0359146900732676 -0.23387962773542303
Ni 2.6089509682185934 1.5277988451258966 4.839048791834134 1.0939342040108448 0.39891925387899685 -0.18439669051394694
Ni 3.4641154838149313 4.307234539861493 4.977263227317784 -0.24115173591680403 0.05820540469613847 -0.46566560616661096
Ni 5.074726863345538 4.548125698731939 2.6807774304216556 0.28555571595347595 -0.3284476302209956 -0.6591547459001293
Ni 7.4617745003971505 6.060389868106141 2.650386988427322 -1.1248429777745594 0.28818724003905205 -0.21511031754771984
Ni 5.175445297949242 4.467801597587512 11.561049951411784 0.19989992835586862 0.43900969414197943 -0.4854769844655833
Ni 5.66601827666396 7.94524282183251 12.299308593725025 -0.715737013170548 0.03395064591383185 0.3003411017927666
Ni 1.714629693022947 6.555020074962624 0.5149109379277913 -0.24355828847576763 0.40457310973066446 -0.8317729557219095
Ni 2.5732383445085167 1.5635745812737345 0.3190856660435731 0.3468346173686156 0.8887277758403985 0.485044524913855
Ni 0.6965647627159481 0.09913341080965377 4.742890681661775 -0.8359679676398635 -0.43044663506331676 -0.17141904730735638
Ni 8.563762744013449 2.4056748222535855 1.2121428892714965 0.2627500309128701 -0.16258627950707483 1.0898667188096909
Ni 6.906078501975821 0.6444104473629283 4.731699944840532 -0.16214919196965621 -0.7323519960194097 0.6549947009851687
Ni 0.8580379347269614 7.507954772712983 2.802562796749915 0.11169592041511085 -0.4863429320103043 -0.6750914717350438
Ni 7.622756296999883 3.6161443303181673 3.7847086355147335 -0.21550601032424174 0.5150282157601388 -0.685697015165032
Ni 7.4760829916437785 3.9034231309428034 12.565140886392285 0.44632731084931515 0.5351144449870525 0.03396684386374796
Ni 7.936091518357193 8.518484077951342 7.198004181232159 -0.3040938839669795 1.0401420978910538 -0.5791867527159186
Ni 6.806153480875396 0.7602443108103442 0.50329013492352 -0.36886125815135185 -0.1687499851156255 -1.0237960524328626
Ni 1.9270391103381965 6.45019933190447 9.095049556327663 -0.14836447948073803 0.4937952745232915 0.5052654799464202
Ni -0.029500556621906572 4.972241280484532 1.2931918818439192 0.2666341964586247 -0.990113572578753 0.23310572568387597
Ni 6.361355051662334 1.881084239585795 6.968210893738823 0.48177459591333155 0.3708623477417806 0.5502459013118522
Ni 3.272470058522986 4.530084557594886 0.4380715449540142 0.3322574908853891 -0.7411145727033881 -0.32967533198050963
Ni 6.072904162907854 5.522771075072012 4.676515330868739 -0.02834975478728666 0.5610031398283565 0.11742022449339778
Ni 5.103749568652971 2.833279620208098 9.459626667509221 0.29849556394359555 0.015392937516302524 -0.3522583594873482
P 0.1257434177821156 5.5943135313051515 12.395335970990592 -0.20049308185517728 0.19795154638024615 -0.05962336808958764
P 3.878313396776541 6.175110247830205 12.356513707311418 0.5886491836803992 0.02439796922839024 1.1028906418731845
P 2.31183564336581 8.550220618082488 1.2868644091552717 -0.45866706336159074 -0.6029440030365164 0.8359216877829604
P 6.417777571020491 7.630185532530583 5.69601832315043 -0.5031018966361981 0.4263213000410335 -0.12636406395024688
P 4.6523784298502475 1.090330474755625 12.680235432711646 0.49661577469122214 -0.285525891156805 0.03046654401997334
P 4.052314387683074 6.1411918205650435 8.239334159310298 -0.476712865119708 0.5458598564290147 -1.6955939410182992
P 4.5456012012215075 1.0343497424617933 3.7774768517535997 0.6984291180197197 -0.5045247451256537 -0.0024052670073829545
P 0.3449257012753531 5.439426592977604 3.5867303278966185 -0.28638592516425515 0.4010118747419675 -0.17853071865147319
Ni 1.5289168368805168 1.149674198375854 2.523086496645022 -0.5519482287149398 0.3395280564048733 0.10325318896439638
Ni 1.979404401554588 6.3159862249748535 4.850120516629887 0.3206813560120155 0.541017697845365 -0.9604283868094944
Ni 5.970797254673413 5.642937156568581 9.129847049690206 0.6390263505813705 -0.7231926981176449 0.2620931140551615
Ni 8.686534467583284 2.231132867594818 10.030838407950917 0.3502410719470032 0.5894469969913461 0.18359939142363219
Ni 2.3815929192165712 5.1542305027990745 7.026984802206698 0.012868114211919773 0.019158575206321842 0.03116742674173987
Ni 0.6732293896570182 9.05735610367815 9.160989431300148 -1.2044798128715966 -1.0461021721292305 -0.3984214883069719
Ni 1.40246655979548 0.9595705197777794 11.427837627423804 -0.03027422550350915 1.4697875772093136 -0.8116252771294408
Ni 4.0264202560760705 6.8153408486008615 1.390889033891388 -0.1007993281072651 0.6578257426760606 0.5130111853301099
Ni 5.63488581272281 7.750883561716849 7.762341173989196 0.04532572051999291 0.4227703494649816 0.7969126535096147
Ni 5.238539703584969 2.776216960409795 4.889708244018476 0.5484582132838103 0.22448224568092304 -0.03412805203196058
Ni 0.8679060151739899 7.2828327072202 6.729390724433185 -0.06242072832906669 -0.037053967429503926 0.9240197662734732
Ni 5.188356299502595 4.731900101428859 6.8831894240124845 -0.23021297751711317 -0.27362091218910295 0.42787836011550834
Ni 8.154974468574194 7.049866667320003 9.10989540490151 0.2818790384328371 0.27601435212194403 0.19673001526831924
Ni 4.570287180448518 0.4264300050059072 10.580593722766448 -0.28450156365734874 -0.3305672476671597 -0.7593583494049245
Ni 8.30460504244252 7.182952766432461 4.725537466096316 0.009888462758305551 -0.22219550652927542 0.007518162753916084
Ni 7.42561107356021 5.977532253388745 6.791846792841276 -0.3129071113832353 0.23848858726234407 1.162193907619192
Ni 2.334258590895969 5.228820388169806 2.5620539189310487 -0.08849222860513792 0.46330019125822786 0.7930763104826599
Ni 2.199838114527997 5.178790257150564 11.313376008694558 0.5552742077643793 0.650398596974054 0.7216898883198732
Ni 1.1074970578265635 3.229806050596683 3.859819649300119 0.10557540933966977 0.6696497318941822 0.12103699531037865
Ni 3.6167484065081634 2.709020246319615 2.7360945805127455 -0.34352843581351805 -0.05502186476183427 -0.16149895998016703
Ni 1.3662310044582422 3.3108424206815537 8.25874484034676 -1.1460190976315425 0.5498291254894079 0.651759996097955
Ni 3.747526393611084 2.9009451695502153 7.192396190333985 -0.12430538164900527 -0.8292157365176944 0.24646363504802069
Ni 4.16075057181867 6.738010080218804 5.897098156281363 0.09102862187374645 0.9673976190384758 0.00985940929258302
Ni 0.825637812393073 7.3260196467736645 11.257214053543729 -0.8454838775500987 0.003860511396670771 0.10427674513290427
P 0.2942608394534882 5.475544939501858 8.06733834071205 -0.010112148733337425 -0.11754518010703628 -0.7746427863678207
P 8.481635430361571 1.5152575021365715 7.877461866889915 -0.31322592817523476 -0.026657454686528283 0.23101284771058922
P 1.7629738203477214 3.1924434874422882 10.518519935409936 0.34886476042476694 -0.5450340180936097 -0.3638527491931669
P 4.059184627336464 6.167915429925474 3.6444755036289913 -0.44068605340313777 0.373078381556493 0.8329682615815912
P 6.9472728917085504 3.806293089228928 10.217613356260236 -0.47794005265858985 1.0026528426963444 0.7079671394171421
P 6.300857272037336 7.788705944060645 10.09436287976967 -0.16256956733652647 0.4454284531841296 -0.27329721030109705
P 2.4972058891318243 8.456814210196502 5.7836923184752305 0.3613893752543389 -0.6032221963985676 0.2853050333952506
P 6.8126450459022205 3.8564764933113036 1.5387362305898438 0.655372910260194 0.5603544505007639 0.2898785116985459
Ni 5.08431995388518 2.9413641779047413 0.5941170473175985 0.1215771840845648 -0.26369388288337814 -0.2058972835898841
Ni 1.5574797229985486 1.0494696793367742 7.023699349018121 -0.6996578482204983 0.029311347369607586 0.2884296950671613
Ni 6.722186890465917 0.9676128475610132 9.368653694902038 -0.2540866988109172 -1.3731341529496224 -1.4093936495022887
Ni 2.5083587584904117 1.4722689159589277 9.312742386289743 1.870305285923682 0.34552258342541137 -0.11286217280907014
Ni 6.302579339981952 1.767950686868288 2.65990163922289 0.11947453591926523 0.7124755688104568 -0.4540691595782631
Ni 4.147208445887709 6.921378760101547 10.329554083904064 0.23720123590948827 0.30103555675662996 0.017946557176091674
Ni 8.014170619929843 7.296861700528173 0.17876868477623445 -0.0601869539025415 -0.7806640528612362 0.2185540531219462
Ni 7.750730288653716 3.8018211222104483 8.167970221115397 0.11405876422033258 -0.23332889743827556 -0.5847467633021993
Ni 2.9594143351043303 8.35477041439982 12.365605504773987 1.4060558433783075 -0.705272109083482 0.34375597844329187
Ni 0.050363725333120446 4.8155601457120705 10.284305170848329 -0.5024647772728315 -0.5011745977064982 -0.6793299352964236
Ni 8.535821966210488 2.198368496334424 5.650333934274148 0.6920309278028598 0.5805430096334969 1.040282223013344
Ni 3.68399020091103 2.653986200592195 11.522148346382279 -0.9479837332882384 0.31811102418167797 -0.2411327097534105
Ni 0.9954724808011388 3.498502746332031 12.63412909210862 0.25693419556204133 -0.5163286797391172 0.07881511052669007
Ni 3.176791602877609 8.316226747053044 8.01141350800595 0.3011993360280038 -0.010160999693401855 0.06294857580807868
Ni 5.578084618738088 7.9204576659175885 3.5369941205160913 -0.34849555001080623 -0.12539527227907438 0.04733555186117009
Ni 3.028621631140319 8.391177274925266 3.5296974211046885 0.5996640467336639 -0.64331263666155 0.2025376230890318
Ni 3.504137785417817 4.4761234233094 9.397368050870698 -0.41957035447044516 -0.6476295188693492 0.0695982199141124
Ni 7.175469434526537 6.151416035482293 11.261515616980253 0.20532547024681413 -0.583012554219912 0.6519389448779804
Ni 0.4897498122050667 9.010896333423661 0.08879018386691195 -0.20163773698258178 0.33560506720138333 1.3732562803497834
Ni 4.4242089352198715 0.2734725040613336 1.5249596870329145 0.47437933189052495 0.08033411827437778 0.22844020188740657
Ni 5.911128952801843 5.73091589480714 0.38371190070438116 0.4183930463328923 -0.7274473596289408 -0.0019375833423450502
Ni 7.868011230138362 8.849995681383763 11.261292018629328 0.4913527265200699 0.2624582107040641 0.158873606542178
Ni 0.1082585677036121 4.823566409245156 5.665100441497667 0.47989306261990256 -0.9921457725174332 0.41811305319862835
Ni 7.859157456726775 8.698075027630974 2.4386186131584715 0.24712852232552926 0.3105015872655362 0.4510062043822233
P 8.570867401292809 1.562294300393444 3.4486078562508484 -0.7058423797646554 -0.23538655129825267 0.19012330858507903
P 1.7681400241815701 3.3712049593684927 1.7099269148035132 -0.3154411906589987 -1.4869144666975875 -1.6164168191665
P 4.572378906957161 1.0906189887568174 8.282787974314864 0.5701061305708891 -0.13854929316252912 -0.5254165009729983
P 8.49415874122582 1.8045288525819414 12.260183390344595 -0.6065412334694715 -1.0325372889606024 0.7302570611635939
P 6.233867927385512 7.689574336463499 1.3557092594772626 -0.3818003348105231 0.04086357098358124 0.34861304942527704
P 1.8076754584074444 3.0685267239302205 6.1689865381549005 -0.028738762695589216 0.9640117332853784 -1.621850845697878
P 6.968289333482898 3.8819378539165186 5.978912612563199 0.22347051658695707 -0.2670795115261594 -0.5067119825849595
P 2.4562549330876005 8.37515573179656 10.255168863152928 -0.15783462375470236 0.5283449874737031 -1.0639664540041613
