# total energy = -340893.6339061754 ev
CRYSTAL
PRIMVEC
9.01826470736638 0.00000000000000 0.00000000000000
0.00000000000000 9.01826470736638 0.00000000000000
0.00000000000000 0.00000000000000 13.19914197940191
PRIMCOORD
 96 1
Ni 6.238411483668481 1.7085282353729745 11.386648266416895 0.5554629267364175 1.543420372204116 0.11775806744879075
Ni 4.792026159142696 0.3332952136544735 6.013370614568796 -0.4511311599958618 0.0356552873097644 0.3058437767785507
Ni 2.8107856069946084 1.4125037050110998 4.874363815339405 -0.2559633470083398 0.6462678626351321 -0.5509668386382769
Ni 3.154994724278753 4.311713394875417 4.796119549373656 0.5146129825995911 0.15998252333564061 -0.6300794258007278
Ni 5.351744741836063 4.40383496616701 2.916812440231822 -0.2837227765097952 -0.4297814906754921 -0.6554266463162648
Ni 7.253345000682529 5.996388320795012 2.518937434896575 -0.06699703484583945 -0.20742451886768792 -0.9338580925201337
Ni 4.8433310655624595 4.336252092426511 11.454967030535991 1.2216516966651927 0.23353561413244295 0.14952944632311665
Ni 5.738312647211896 7.657904343623388 12.318600223152957 -0.3686352581834748 0.6357517935951567 0.730383045218497
Ni 1.992170688653757 6.416323804612246 0.30303262366101297 0.42215585580943427 0.4528648548575168 -0.07976770424794649
Ni 2.6326478294397537 1.4864444551843523 0.368458328546598 -0.6332087154583288 -0.30612274147155016 0.7750531344323619
Ni 0.4274323670492162 9.13450987229975 4.99297112747547 0.6468070229680537 -0.2621545634207163 -0.226017708488843
Ni 8.754967194925497 2.137635294129371 1.2847094868863176 0.08296641369090228 0.5949900382967623 0.797731292756168
Ni 7.0533649866452235 0.589313821117999 4.8338158947479934 -0.938243623182339 0.8890383651022817 -0.19307133546980942
Ni 0.5567182061129735 7.147822288427714 2.0789309017336173 0.32216513964639354 0.3346002800859528 1.4017173639039537
Ni 7.690712789669283 4.023724138132809 3.9266650670583325 -0.036436902670795315 -1.3818265385172976 -0.6185855662285152
Ni 7.426270221388971 3.7965179837402094 12.578055691195948 1.3246403191142928 -1.1311635206759485 -0.7905314325736192
Ni 7.706602971618944 8.891233170668617 7.132618396402213 1.4987664809401673 -0.30573707599735733 -0.7248947684104161
Ni 6.671432469193411 0.7865613010288878 0.4492881309283328 1.219750365877422 -1.13814072332473 -0.6833534546335199
Ni 1.7404348549745072 6.494322773785129 9.160784585756241 0.9186680150432565 0.4177942364066289 -0.20873243904583405
Ni 9.141995031787955 4.67175858452256 1.153646147900722 -0.8722979124191492 0.6399743163169365 1.6872468546051844
Ni 6.330037050415676 1.9350760564611895 7.141368818391859 0.05110736019877649 0.6999044170136657 -1.0477916440165118
Ni 3.8136346496542033 4.534230051757333 0.9332623105597226 0.2968829680408371 -0.13844490637418094 -1.4739257677474036
Ni 6.151421304845309 5.7162178993250246 4.705744815904792 -0.6093162251114473 0.42752303365861855 1.1279036189777543
Ni 5.134783335851417 3.0068156212056083 9.202811501716406 0.69549034710637 -0.5960799289268316 0.2682509061264412
P 0.33080256536225655 5.586039252081348 12.360138349180279 -0.17542688291516886 -0.8706773460965908 -0.4675417401434012
P 4.021316261526362 6.122265255899081 12.544978500869632 1.1052102911452966 -0.005859029883938297 2.3549623455911313
P 2.361143960100086 8.39127862644313 1.332717315825492 -0.3774340874220274 0.8382837602572337 0.36697535398254866
P 6.373613304207255 7.780002625925579 5.69686831113479 0.6955479398171828 -1.502465269947993 0.20750448017600395
P 4.534166923906228 0.9073185674083124 12.660880333672612 0.9005995875773201 -0.731028906332612 -0.7596033755361951
P 4.0080503945297945 6.205864567291452 8.28854616520717 -0.2862008057366426 1.5401668982638248 -0.18119052487182344
P 4.832599330874549 1.057012738907985 4.021079081171495 -0.007322501803342227 0.1556201326018868 -2.4245279124950954
P 0.24078315151247143 5.537079094416928 3.5588317042376776 1.1407341950835193 -0.9761951627254479 -0.7040210102852005
Ni 1.633658603962029 1.0138693618096999 2.6201088345573424 -0.666690135045226 -0.08717350979371438 0.04272530678266836
Ni 1.753096498253352 6.467096633429835 4.97439981550672 0.6291610277515165 0.01664763585901004 -1.3633392783463876
Ni 5.908784899989673 5.552527381408851 9.226662105690451 0.35287568135637293 0.4160682548544576 0.12549940195710643
Ni 8.610097794903162 2.4012211272875397 10.408908777447675 -0.49914933974635317 0.6609498901273392 -0.5334787091558425
Ni 2.55586632596676 5.2937212284058015 7.04592582030568 -1.6790527488301665 -0.6569718793161976 -0.2729647666623428
Ni 0.3534798931321871 0.18429274303762652 9.201055645629234 -0.19325516934584136 -0.07333480413840919 -0.958331909291782
Ni 1.31882197397076 0.9451862598070789 11.316970449846142 -0.2067909990487471 1.5751979217260292 0.5132456699384192
Ni 3.952434757705981 7.032641014953781 1.7952154005108416 1.6993125275204668 -1.860099291924958 -1.3312881634481135
Ni 5.598980461557945 7.790409703093518 7.731120025335374 -0.26650641263150876 -0.3489043554134507 1.8324241946071922
Ni 5.132095893047218 2.9408650533294045 5.001880270919324 0.5199588202925367 -0.07835514017113603 -0.44679113785961116
Ni 0.8901306572052142 7.590988821451717 6.995122329388983 -0.8396161059154119 -0.28681298539934474 0.3398281041437954
Ni 5.005235967118796 4.8053551539903685 6.985856964499606 0.7293962558251953 -0.7727900494297981 -0.32217953782409675
Ni 8.069831608614686 7.093757793088204 8.995267869290233 0.8062383017859147 0.025467548143485175 0.1935865845433311
Ni 4.6135637240678715 0.3252428053327639 10.438580671120079 -1.01985995060325 -0.6039475046003664 -0.8754796525812407
Ni 8.227380688444752 7.093027313668271 4.462589860843648 -0.26924026662290407 1.4506310588855211 0.9617062250806533
Ni 7.417657778845312 6.051706354892187 6.8426992310686705 -0.7257105794434922 0.5552191861567276 -0.2829792134755514
Ni 2.3619375673711245 5.2855416625554374 2.434937712562907 -1.6819673513737998 0.26909139974986557 2.434376266044085
Ni 2.4996915567474423 5.169151941646059 11.467757634996381 -1.7113861708555493 -0.34940674897116597 -0.041017322952626126
Ni 1.1092555448298842 3.2538799939030625 3.598297433095854 0.3480543487083296 0.9228275457375849 0.0478716268702982
Ni 3.618777009820874 2.729197368573165 2.7106684424473 -0.13338189002897674 -0.49050194848400036 0.14972047928800022
Ni 1.2040014310745712 3.445545168123349 8.349394199061175 -0.6794656895433394 0.975697911374055 -0.19096354509818725
Ni 3.6726611398715123 2.8324204233948564 6.927674729615138 0.5768920431444711 -0.6358055296512276 1.1402323157464362
Ni 4.172687830212548 6.895491249295186 6.0024684346829025 -0.31706792762914426 0.08814564389899658 -1.2726657258192147
Ni 0.777116472677083 7.379835177768763 11.273532175500549 -0.410306412670016 -0.07995179523429456 0.09280191172408533
P 0.20071229711012814 5.521107748087275 7.8814184205527695 0.7394276719192685 0.1756973629677361 0.5262659934574871
P 8.580247339594774 1.9104832493234338 8.068067636089514 -1.089877260332652 -1.0527109356949997 0.21401682737322497
P 1.744015105958625 3.243752482932875 10.591215698654816 -0.22136555442881228 -0.3702206003927237 -1.8507186220410063
P 4.111859636540322 6.013261493569028 3.8418347625694076 -0.40185828190266276 0.8379914258277954 -0.625902925825535
P 6.813388969800456 3.889090468253984 10.486084379076853 -0.20278522032346363 0.12916219552067434 -1.058271974722545
P 6.2757651349939625 7.721365870513152 9.947955521461518 -0.60709787730389 -0.25034985747630434 1.673959136357343
P 2.45894703799116 8.39895316948465 5.6343176289538315 -0.44600335185099316 0.7344248193880384 0.4536418422328575
P 6.905402321918725 3.723578260920199 1.483306099157972 0.5109237066734621 0.6170007382398986 1.1424735463721292
Ni 5.21238550138878 2.656726595504223 0.5199408218854409 -0.688903952138104 1.018472069116788 -0.2115673373914679
Ni 1.361775967515729 1.3186596452107746 6.906278897222646 0.14259466687649638 -0.8708820059082292 1.1514721503263137
Ni 6.75468006827248 0.6781834062512225 9.102616780094882 -0.3136298484818728 0.3709271395414451 1.0288600972193314
Ni 2.7450334409361643 1.7886735514834384 9.10038566147153 -0.10856637364719368 -1.1511710741461272 0.6711420001689926
Ni 6.413437959990287 1.8817149857482813 2.5751131059423376 0.14717971514401748 0.5719346991391956 1.3723653931043978
Ni 4.141710091848709 6.846062141879696 10.618089224870362 0.09280705393040792 0.5315069301414523 -2.3982275840376697
Ni 8.078462087687232 6.920426750481799 0.2653777623031159 -0.5471796036817027 0.1896751653040669 -0.586991336362002
Ni 7.415872162485475 3.8778266559639007 8.087444279073079 1.1820387102592609 -0.018686006445277497 1.1862563478850343
Ni 2.9126649404142 8.434142437343663 12.14697182887351 0.9751818909695849 -0.6303522198461401 0.8551599671872822
Ni 9.1757233408071 4.941485855766835 10.25226152406197 -0.18995361577643416 -0.7595763789530016 -0.4860079172683888
Ni 8.495836384402477 2.4620583392242095 5.815646970295284 -0.09100522483497875 -0.20441941349277698 0.34853360233759334
Ni 3.451244711251718 2.4946503469234576 11.54679370458028 0.6607431734331718 -0.16375124634945346 -0.2394653493533166
Ni 0.9967526958957065 3.3766366095096374 12.626285369440435 -0.15690259885873623 -0.8088914231380456 -1.2931988127755598
Ni 3.083660252529707 8.516055333285077 7.729403849611752 0.15124951433801695 -0.30432194081738556 1.415365807925324
Ni 5.689054886820836 7.955660380758438 3.516700176409967 0.11677256360706986 -0.23944246653518117 0.06359289426029693
Ni 3.196586959892735 8.311304657357095 3.5231410208756015 -0.1925450306526942 0.2752034261848744 1.2473370172464389
Ni 3.4101574984465786 4.532137814406412 9.414499026654422 -0.6577750919437833 -0.8322036155014247 -0.39824588196105604
Ni 7.29854454207396 6.057081240500585 11.310370883926298 -0.20336526119664977 -0.12584727221482844 -0.290458552571732
Ni 0.5188784703339823 -0.19283484311862478 0.21073609803921342 0.10476474051291634 0.40694906616200877 0.15308142534043312
Ni 4.701104017022104 0.30958258912641523 1.6203792095687963 -0.957624341701796 0.1452598724134853 0.455016611093197
Ni 6.014965945548873 5.350509239607287 0.2931395875663602 -0.7499673951083278 1.581685843443218 0.5607794538533246
Ni 7.8350681486183325 8.816507831488769 11.214874678079903 0.05838332503489946 -0.614796017279096 0.15775646221859926
Ni 9.227758726646796 4.768344196713746 5.7494664366757675 0.40036627073816855 -0.02491964605981515 0.28168363459257945
Ni 8.022954670036743 8.981181340229297 2.597472088977408 0.6253431966673231 -0.5794834580207311 -0.352038015946426
P 8.642437291197988 1.70839296140632 3.7410457373210493 -0.27309332182040713 0.1494278877482459 -1.0109497925978137
P 1.9476384988311541 3.367897911263768 1.3562910590811184 0.297772569734642 -0.82579179843781 1.1290554731940103
P 4.618523769511863 1.086718901985274 8.200679411080078 0.421001687600333 0.06037541576426377 -0.04826166321986527
P 8.369770065745092 1.502460892836224 12.454181712624807 0.0844944202996545 0.24517294126105518 -0.4494504298593292
P 6.559137040341436 7.818095774935436 1.432608121935265 -1.5348516566984987 -0.042861832360532634 0.1939766208928982
P 1.8329983212238379 3.1924565947775565 6.023546824166979 -1.3079782850775798 0.317531240418808 -0.62077820300446
P 6.789355295058204 3.9067662665634817 6.014611527756239 0.24899102945556476 0.7710874649163946 -0.6004731728985208
P 2.2182044686686853 8.504863667110541 10.02713678510296 1.3689692229386554 -0.15296726836007205 -0.680294613202538
