# total energy = -381163.62983063643 ev
CRYSTAL
PRIMVEC
9.29654882446676 0.00000000000000 0.00000000000000
0.00000000000000 9.29654882446676 0.00000000000000
0.00000000000000 0.00000000000000 13.60643891417130
PRIMCOORD
 96 1
Ni 0.6647339094542805 0.5561808994460039 7.21411991879731 0.6523204965871153 1.2018907119881816 -1.8179280578735464
Ni 8.167073797419729 5.35781482670617 6.925949221337192 -1.5897634782450298 -0.12190474262731264 0.22172190932696653
Ni 2.5503500898884544 6.806040477112476 4.153842048126017 -0.21009409528005107 0.7376890919616069 1.4816300783701968
Ni 4.64444416350637 1.4658612032581997 9.133253875853633 1.4685747878481352 -0.8966855972348945 -0.7639865922055552
Ni 8.48669843769434 5.225915393989955 13.191673359331421 -1.1934706062452867 0.3508131424003894 0.011564307798831696
Ni 9.11687428672883 8.666354240995782 12.838790316142921 -0.5880912542944 0.7691349691757141 2.797651288356911
Ni 6.133091207586916 0.7272857372687047 3.2562388907080724 0.00605700482735731 0.037859236939618665 1.2100246539492256
Ni 8.070045718813924 0.584546528787963 11.313862561171602 -0.3052123138421389 1.5001039688046682 0.10065971720560728
Ni 1.77799282529421 3.832102443025994 9.885322352601818 1.3153936037050442 -0.4003174197781041 -0.7363883708723125
Ni 0.19461209082285733 8.258886512214296 5.3360506765841 -0.8152240502242928 1.6500941568142873 0.2692772905084266
Ni 6.66503972323548 2.1482371731484515 1.5414598074945254 0.4419356095395227 0.2525880027782037 0.3784746128713998
Ni 2.5679019738021993 8.947556245563026 5.154241792607645 -0.539350080334955 -0.35270033212077323 -0.20003979636784258
Ni 3.4479132721470616 6.194467021992924 8.358067671495112 -2.2220838775611345 -0.011110508090864736 0.17015329322105535
Ni 5.8516474927539095 3.516270794614099 8.675383978731704 0.251140985919032 -1.1364203981995136 0.4178736834943126
Ni 0.5283126354585922 6.025697477199425 5.289707381398708 0.4732539600368301 -1.195529031436212 -0.6189735456955534
Ni 7.156957300254494 1.2225798207694323 9.329935378413355 -0.7108015235421435 0.8051301563234005 -0.6254835788999292
Ni 4.163961341367601 3.7846807481933604 13.304294539043436 -0.8904522147306728 -1.8683065103260987 -1.0606965250036378
Ni 5.713101027729258 1.4011851140696807 11.403474782892875 0.5946370258327178 0.19966981462293354 -0.5283169624492449
Ni 2.300644792259646 8.446072519949071 8.393009679375515 0.6135629162029433 -0.806148827395902 -0.3494304031202498
Ni 8.554051932903599 7.244224002743014 8.438318268692475 -1.660390910754605 0.7230888255499289 0.3898661425377931
Ni 0.10261995263870442 7.211509447927089 3.194465184018426 1.9716090644711914 -0.5863742716032934 -1.6947205372744103
Ni 6.217838545382308 5.889344997663992 12.723326251843607 -0.02624967772514834 0.4552076440580805 0.9040379238349076
Ni 1.3604848239349479 5.180882912168884 0.3109714127603561 0.6928354259820262 0.6274540723627388 0.45806311122900467
Ni 0.2160090272719439 4.096291763503115 4.178986423349272 -1.1568041040621884 -0.705296020342882 -0.31929604562871466
P 0.803174393823944 2.6574370341694014 8.415105716285574 -1.3852952137921886 -0.7314060871663727 -1.449581534575084
Ni 9.247667430151752 1.7468307941083663 5.0837191039523075 1.4666644581992998 -0.35014465557845503 -0.32057979743714465
P 2.1966257090441306 1.965680846657874 12.80126386772861 -0.7064260201822673 1.1182478410555452 0.9236243306072675
Ni 3.193754927699035 4.914890061247236 5.530091959317812 0.40997242636936493 0.5376014730749645 0.05996558192035478
P 1.3904104141459357 8.572979706022448 10.825241540315623 0.48169592015659624 -0.18989859416878263 -0.14247022548349014
P 1.3042221113046595 0.7400220089645896 3.5792549119422885 0.07571384589354703 -0.08728355300901743 -0.5481460813600302
P 7.198773176231203 8.910630354193643 4.989345189995537 -0.12179932739769991 2.756782832277323 -0.3232835695215529
Ni 7.968034690113965 2.6168204129728165 7.632776973573807 1.0112894353254196 0.9704212363561481 -0.13677240376776445
Ni 6.151163698226917 3.874838677322332 6.409776019149029 0.2400281638353221 1.8135170732900443 1.58813237039951
Ni 4.930852235336166 8.403754630343474 4.423807314299966 -0.19025572039788524 -0.5166094442043296 1.155747637773216
Ni 1.7031091256516169 5.308729049659255 2.8108858667331065 -0.12638566121680167 -0.7396894102210874 -0.8736703672866438
Ni 8.336178017965821 3.182626958925331 10.569590170149088 -0.9196517191127644 0.9295934037065088 -0.31590913143435273
Ni 1.5876831772019042 7.3074591268856475 12.696290028963336 -0.3214015220074916 -0.9637386821296499 -1.5456747154559314
Ni 2.410929749287589 1.4786439576975001 9.01715020900492 -1.3596147783069488 -0.18097763753006896 -0.03094322654607574
Ni 4.674453422655507 3.7841973276618375 3.937839528438151 0.15211829009621544 -0.10914384341721849 -0.5778243251507533
Ni 9.208463884355004 1.9065919832279146 1.9774921117597877 1.0347286401849665 1.9396975604745754 1.524379296412265
Ni 7.00864945911256 7.406309329033344 6.374901876074012 0.6585947596316013 -0.7416025680834003 0.34948619605884973
Ni 5.314399944355963 8.310473060856973 8.128214223924255 -0.42992213001841445 0.4726394663812828 -2.140698178093791
Ni 6.576982814108894 5.678899025124032 8.98439939764913 1.4229842437025297 0.6911438972122161 0.7276147384447403
Ni 5.264403105538102 6.2563076638330894 7.196268686015968 0.7227047027376328 -2.4519924364639514 -2.168647612118865
Ni 6.6820338142282365 5.345878058197033 2.7488407008219125 -2.2168377986708467 0.05240499596427748 0.7420162585820511
Ni 2.875152907779568 1.3292205307135896 6.730506948716932 0.5174463382833283 -0.3353950080731063 -0.4495370760358645
Ni 5.187920399522012 5.939983298340988 4.69801738460263 0.38623857308753484 0.760741088685064 0.24310423165748454
Ni 4.206902099734968 2.2598329435407156 1.9016090331337583 0.163780299815176 0.3071285570282452 0.2767391461031105
Ni 2.5247473948151207 7.405714349917624 1.1353279927588062 -0.06448583838821152 -0.3883175671037506 0.8808296040392444
Ni 3.9395147665108508 4.846402387098635 1.7889339334393828 -1.6145643393387936 0.09478088982732709 0.7480161849192279
Ni 0.13596109483587338 0.09105318676715703 9.25342571240608 -0.9817250914047415 0.09415019822186364 1.9622384218895688
Ni 2.7957417889282916 5.779162302671564 10.656494307238964 1.7771701592298943 -0.2505820280917685 2.5734958298877872
Ni 4.1078938562596585 1.1712163892951524 13.043540293304728 0.6860086328681797 1.0173055596125125 1.945279425437727
Ni 0.9243325941916732 1.9332265952050753 11.02234510618556 0.1545443830392048 -0.7971980459605174 0.39908071915752563
Ni 5.343730555451231 0.6771299274683629 6.507986618747326 -1.0821819485709232 0.04575740874077281 -0.47077618792029896
Ni 6.366276538205806 8.274402451966438 11.996688484018119 -0.31924410934485664 0.09430960661786338 0.6785192664696701
P 0.756719540054355 6.692018307513916 7.208255655887993 1.7768174038761657 1.3140111215352208 -0.09384835071072871
Ni 5.9007797525442385 4.333344458374187 1.0083389970570193 1.356434066586122 0.1676168999524468 -0.061470448600655425
P 8.932077492005618 7.137620478993589 0.8996511870928376 0.42963596623656336 -0.7231988687652319 0.4790312288402396
Ni 1.1717741822161398 6.43376018509663 9.570782924456879 -1.3023095168275765 1.9686322412310548 -0.5244708492302774
P 7.907523454735488 0.8912749967293396 0.2751973637728126 0.09162537491748092 0.8706562630506682 -1.0217445692204725
P 4.614193194091473 2.7208487927370153 5.889384043168461 -1.3116516201641089 -0.3771304401386796 0.30034830088161824
P 7.805902881080219 5.489268025085594 10.900349286781479 -0.29486568050049217 -0.7786593637263817 0.6866557795338755
Ni 8.255112113448947 9.247937030063563 2.2183805626175177 -0.31262197604264863 -2.147743514976346 0.09903940799336491
Ni 6.842352796268773 8.252899534862363 9.648978984395269 0.7580792255821848 -0.1289333673393199 1.560145912488913
Ni 7.40017360690248 4.811465957147441 4.865730841465726 0.24827009212914017 0.3380951806130887 -1.3082438800341403
Ni 0.13279562000926842 2.6927453260679206 13.429609226327392 -0.14641943993922524 0.3172803007502665 -1.1463296868934258
Ni 5.0109791884360435 6.473837606469593 10.72336995984591 0.49107787559212845 1.8396371674158642 -0.16991520906832028
Ni 6.680462697500788 3.057253703384672 12.989699331606396 1.3960305979318215 -1.3131508304174544 -0.9270600957616938
Ni 3.6253750899592845 2.6747565043660684 10.882307474752134 0.962973007608219 4.0709230231912406 0.6161386473499195
Ni 1.6321950522967195 3.459366620124675 6.17937779382534 -2.0674785593770073 -0.9018733120834209 0.08729949384861739
Ni 5.7048270994012755 4.197744999282087 11.29259577640408 -0.14502435936391153 -0.6119024977813848 -1.3296141181798005
Ni 3.897224766551303 1.510670567910875 4.397696098013665 0.2832257822687187 -0.37190004497767565 -0.3627759711892204
Ni 5.1909045916492955 0.07101726504528035 1.165505519439107 -0.30739646597765125 0.7457793251689091 0.012815920817745671
Ni 7.044738661100461 1.9926129481928947 5.426233706394516 -0.7825245031087427 -0.28240611458090076 -1.2956598727215427
Ni 2.085941000422813 3.2903088823219986 1.359786653128845 -0.16324216792351887 -0.9088062917578283 -0.5269889876664408
Ni 7.304800313962273 7.226049250067499 3.7949311227713762 -1.2303129718846166 0.24833025594311425 -0.0715003220328317
Ni 6.662148496595027 7.634837088761987 1.1092455957734233 2.3047458726377403 -1.4646083470012197 0.5317630120163164
Ni 3.106209328750022 0.6817075480399348 11.096922019721609 -1.4428221043640637 -3.297848866862121 -1.094290044688367
Ni 8.774073350587182 7.5040160556930156 11.003227683473575 -1.1346080275811234 -1.509749205203916 -1.2608900733405253
Ni 0.8612926975713847 4.863257029861145 11.619028279279346 -1.2698789071026968 0.4219504246668475 0.28946533542052727
Ni 3.618737354199532 5.97708582413535 12.951914439138694 -0.21833319536039172 -1.2934860049986756 0.005322183543861801
Ni 2.0018909037786563 2.8835290981430655 3.735211953340701 1.4281781291986435 -0.7434193095771648 -0.35310708064088864
Ni 1.5895331903898466 0.33337423577695713 0.6866867795146181 0.3423580696545007 0.7111619922053558 0.1937213103489825
Ni 3.7629361208235244 8.222062882880428 12.417657590452109 0.40927025809601775 0.019068586595676836 -0.8593056139245395
Ni 4.149533097811387 6.9397713299192665 2.6992584880753197 2.366256687558028 0.33086909517829466 -0.9764386461948215
Ni 3.4474205550668553 3.3407891416713817 7.607999812023535 0.893001463515088 1.6166446189065902 1.547083422878
Ni 7.576082901084621 0.32888772138247974 7.102411660165981 0.6332123150027547 -0.7117062947446 0.5859263854325973
P 4.731748052189621 7.372107326428118 0.44901400484638176 -0.38450282134335073 -0.5264709103794416 0.7567391666145225
Ni 3.393565648545497 0.04205665658760112 2.733860242273921 -1.051607675328492 -0.4877614096243858 -0.6217955885253807
P 4.292792913018384 4.67009334132312 9.62248660961296 -0.017097064691602812 -1.2101696641675224 -0.34997933364518435
Ni 8.64158823530393 4.883198126786454 1.99139788928001 1.6937365760945864 -0.4600562303996335 -0.6599960108545021
P 3.862464971025089 7.728964644178656 6.47840686014735 -0.412429886770922 0.31965085786497205 -0.19977600118349464
P 4.425845117771307 8.656936837179773 9.88665640733785 -0.5009753372114985 -0.13701588723713823 2.4667631670152224
P 7.661313659411536 2.9270183528827367 3.429203967922267 0.22985816528085573 0.4323302252392748 0.014307417761607617
Ni 0.5872583320388314 4.7960057966874 8.160502067155626 0.30609060268203414 -1.4368136933864546 -0.3968577433642778
