# total energy = -340889.2528797677 ev
CRYSTAL
PRIMVEC
9.13507619308578 0.00000000000000 0.00000000000000

0.00000000000000 9.13507619308578 0.00000000000000

0.00000000000000 0.00000000000000 13.37010739623432

PRIMCOORD
 96 1
Ni 6.361493414933781 1.990551347754894 11.405490530964995 1.1124194072992262 1.491927346531147 0.35701361478414645
Ni 4.8795100226460715 0.4257219505072065 5.688579959760677 -0.2994795251234197 -0.7118513049628966 0.47544685392309083
Ni 2.850783191957255 2.004866011970605 4.439543748008962 0.6110373215676121 -2.107914813015183 0.9738498024217227
Ni 3.4774950863534717 4.167969811780745 4.6199203927258266 0.7458402603138317 1.5584399855414 -0.2537025759986211
Ni 3.99722610478913 2.7429162136170384 2.3152082975702686 -0.4781102596878669 0.14073293107740922 0.8813397109064436
Ni 5.513730949579183 4.545705207645238 2.2481833308714205 -0.37985349549679737 0.827931213378316 0.8999568117869984
Ni 5.041091248330501 4.771231965882303 11.521475851416572 0.9744532403336766 0.3042970011167211 0.00358720313062608
Ni 5.478981120174867 8.042895518024922 12.278839430909116 0.5273615405145111 -0.45233109384123393 1.0386372312107532
Ni 2.263087207494224 6.585750397595871 0.4317191279530358 -2.6593210531837235 -0.1238667514496899 -0.5442362047826628
Ni 2.980437326745762 1.7276255880506168 0.3137030800891086 -0.09859974935278504 -1.5779536300942953 -0.3058170373056733
Ni 8.172211654998508 8.759670127483485 7.242613524098264 -0.9430307601583372 0.9036198624608824 -1.1117329227551627
Ni 8.998963445371524 2.5565241213021865 1.5251950426639562 -0.25603945166191383 0.789695309825569 -0.32418165585579006
Ni 7.24639909962538 0.8285020709497434 4.656166547591876 -0.3811241346791049 0.3949654114375714 -0.012163117725095183
Ni 0.9903792730991309 7.421801695417257 2.445967776564328 -0.9534519554916612 1.351233753332105 -0.7571837103511088
Ni 7.809165461468962 4.191958521564062 3.4893441935354748 0.24292836820125263 -0.9891311540608255 0.31572478333768855
Ni 7.829299169146963 4.198809828623273 12.301782174481394 0.47190875886284533 -1.0074389512310777 0.7617911272161332
Ni 8.343795788989384 7.487939646228839 9.205185047330948 -1.2880794892711238 -0.9506548523624982 0.6191432385041982
Ni 6.90266445692673 0.8045900958054896 13.505947806040927 1.0362527901389764 -0.571871192891112 -0.09724632064868413
Ni 1.978748829460893 6.718464782870825 8.883607531661786 0.3239890802290098 -0.041560339940289716 0.5214413183753343
Ni 0.27287477106185903 5.119196148805505 1.392175545847965 -0.9436272560917556 -0.18663612136742697 -0.563401464857204
Ni 6.489055617300209 2.2209562366181164 6.957910656529383 0.6521803714648252 -0.820890761591767 -0.16187665503455995
Ni 3.3878251795625194 4.354033041356755 0.3218625300428248 1.4476771184635195 0.38065336569027347 -0.11058006164311278
Ni 6.309615317881436 5.7606611910692225 4.745799914078512 -0.6026784080799557 -0.004574506744559863 -0.5606272445461764
Ni 5.352058373133964 2.8908130953352043 9.297064729025397 -0.41181307912252946 1.5584011618836644 0.2095199679441359
P 0.3271599606610066 5.844685620843386 12.414920091719164 0.23127150068861457 0.18721333402713566 0.22515690315044448
P 4.110747695222216 6.339523556963911 12.905322034895752 1.1309501191135618 -1.1777732501146878 -2.705498065960418
P 2.5612104153306867 8.684990880538086 1.0689802082052218 0.5113330262967387 0.18703438524711014 1.6924618231472206
P 6.529770651384079 7.863318192464964 5.9167266578171835 -0.34763474467240774 0.6496493775128553 -2.4402921173078873
P 4.830308502884859 1.0299706928252907 12.56994598680934 -0.7708866617594982 0.4218668638141057 0.7614234594640693
P 4.175935598121587 6.2382795087809315 7.996072772074666 -0.35004438255516485 0.8375394258920416 -0.9904632426086877
P 5.119625497381216 1.3908518733241255 3.7124638592257364 -0.9104320002867093 -1.1775611341038819 0.2596299972266496
P 0.2729853054824143 5.67543093125264 3.7213020453321186 -0.40132452088637977 0.6880642298456279 -1.3142780020433622
Ni 0.9769415761869985 9.346004985610753 4.577283338634945 -0.11870937561846652 -0.9474548573679619 0.774433241460176
Ni 1.710095377055116 6.9746397213527604 4.6487726170135755 0.8203315466541873 -0.7695905686558939 0.3479900711292975
Ni 6.057130950135396 5.665939587206613 9.097542791862274 0.10595773237975299 0.47961306948563853 0.892218048381844
Ni 8.508647371910078 2.2508918809288287 10.240846892553423 1.0230540320605155 0.8064254780960562 -0.07225005571466267
Ni 2.544895169453686 5.383647466214967 6.541712936342087 0.8115666559773637 0.913684445785736 1.2918543829325235
Ni 0.5679569120716402 0.21371693188220067 9.109188186847717 1.1311534933736196 0.5462216106438077 0.6739766414043102
Ni 1.5544884911263184 1.3293362710084908 11.630830020142442 -0.16334372649838966 0.6590593579728455 -1.804816717302569
Ni 4.311116453937857 7.211356947786535 1.4632108109454716 0.3421932619418623 -0.05582944826479417 1.1637846491450796
Ni 5.8268448172612 7.81577925655012 7.83989677090615 -1.1982824258116331 0.6780351277444001 1.71209939487249
Ni 5.775414338936724 3.108392337383584 4.89684200249066 -0.7051895766720048 0.208960238785924 -1.470253975322771
Ni 0.9413421847073388 7.554506945616133 6.835494242518227 0.4582418028987141 0.4615801232433277 -0.43596036579269437
Ni 5.372922886898282 4.568725599364186 6.981134760444892 -0.6996606764339757 0.3726281813929518 -0.2443445318224889
Ni 0.9570179752588133 7.526042048554131 11.059605491357361 -1.025074404924654 -0.2788801037055133 0.017805403612537078
Ni 4.7220852565775635 0.5102469824504952 10.518824517112982 -1.08890512622737 -0.8413397734747381 -0.8578393137916581
Ni 8.103534153036977 7.670997435774876 4.544017959093456 1.387259536607411 -0.5658941493720706 -0.33373124721743813
Ni 7.476182803315234 6.16753747962556 6.893707514831322 -0.3344982072904497 -0.24062928775443074 0.366166227817692
Ni 2.3480160098002023 5.4553030029782335 2.5380338138107885 0.4811459611903972 -0.9778447825137289 0.5412560391084162
Ni 2.4652829814256556 5.26458088460196 11.455146977514941 -0.5184567818257136 0.10623026931484932 0.11964654272075521
Ni 1.1794205374768776 3.5538734574495545 3.7800899139305795 -0.6130720926094538 -0.07997133561832034 -0.31897362929228934
Ni 1.8053011399499104 1.1636716663167714 2.4366481719485855 -0.1909740866211485 -0.010992494455761715 -0.2472791889707806
Ni 0.9688753040092877 3.2327938034266954 8.358241998300633 0.4779418524308027 -0.12871996577693315 -0.5979745748463831
Ni 3.9813128022596036 2.549773300079844 6.591489965896274 -0.943456534841846 0.9011786000092415 0.09209614390631235
Ni 4.289320162413488 6.975735930482234 5.477545999722864 -0.05719496115375312 -0.12765604328879304 0.5336779696508422
Ni 0.7984960865532235 0.16991880962168524 0.09275116795238118 -0.8782860116817841 -0.28413646700844614 0.05024912596353926
P 0.12622482722846975 5.964839276509786 7.991085934043168 0.8639269147466346 -1.6124475501061066 0.9390985149834665
P 8.388977875275861 1.6804337850267723 7.8877344238087765 1.0091430784063782 -0.2632444540507854 1.2002650034593005
P 1.8152949131802794 3.249392236662144 10.469930849415631 0.09264147488682109 0.5883046558567868 -0.39796717437837265
P 4.217646355498063 5.9235670027850995 3.4093775645555815 1.0295992893782009 1.1462330134145615 1.3518755006811622
P 7.116717559608636 4.057563282290581 10.25620934999539 -1.169409451531025 0.36531005046498377 0.27533918043179034
P 6.199976134781903 7.782299202720775 10.218692506046759 0.975300161715004 0.3803098663079256 -0.6742921157621999
P 2.7266740483486696 8.610074121614636 5.845771781389173 -0.5296495652177394 0.2769448343560134 -1.947221893876079
P 7.26316196423025 4.05713393371487 1.0835780597793805 0.053488973057075624 0.14614433190096768 0.8864037556929121
Ni 5.437553550156837 2.7551024051063546 0.34519077382563385 -0.21442151901081136 1.4173365584984494 -0.8209573531636442
Ni 1.5807975102336882 1.027686923805554 6.995159842748901 0.06364225944099362 0.7897585589633367 -0.32982265619165135
Ni 6.682235071141719 0.9060241535709106 9.261834394619328 0.8663450372698241 -1.403111673148319 -1.4734637405093203
Ni 2.9835706578408407 1.8272618628437012 9.203540733636737 -0.07875777492619339 -0.5870101054150794 -0.2641427974953386
Ni 6.494244340513051 2.2810650372175933 2.366763012929419 2.043888944982525 -0.40553393098203705 0.4414473570491945
Ni 4.010581586016552 6.899202263092809 10.366458756176995 0.673044359398028 0.42424616267955967 -0.2869471969843639
Ni 8.396788365323362 7.447334233057917 0.3401089310029152 -0.12869039809057836 -0.15964108083582182 -0.3885692781032405
Ni 7.728776791974221 3.935820123386443 8.130309061024374 0.8859401857929323 0.3537879087579972 0.6801817417737577
Ni 2.8304667827576746 8.294320216945803 12.160380331855361 1.3583251129612477 0.5917252515025615 1.2369502746954761
Ni 0.2567888155944398 4.968129395687945 10.197595047842428 -0.36357507005174805 -0.044787331518019634 -0.26837483329881523
Ni 9.021636704199473 2.3448826787051225 5.853673622197462 -0.1275773675320577 0.7152842419038455 -0.4218118422064542
Ni 3.5801276661004504 2.9438513470495753 11.75997167716292 0.29565192384721345 -0.603978872058934 -1.320361746343597
Ni 1.1447437886811915 3.556038470480265 12.956730589037639 -0.292901871905902 0.2416153058167839 -1.3847218577872218
Ni 3.2902991073436723 8.648094308255216 7.861569738903454 1.2288165898447483 -0.23788977733608063 1.289242142120657
Ni 5.647468463374981 8.119365239881795 3.578856977017869 1.1561037355610542 -0.2129063679178656 0.10538026260972817
Ni 3.345374481023649 8.470179566541628 3.485747714083193 -1.017076474320842 0.5183907044744684 0.14659144674071528
Ni 3.4549405835145492 4.6239654044135845 9.082353900865808 -0.3962224237731241 -1.3987438830979266 0.8463197431878328
Ni 7.39573018828794 6.28882388472575 11.341968865942425 0.07088325727412308 0.6081412309667397 -0.14824929405911244
Ni 8.430524201282916 0.26555757512262185 1.9728658404660506 -0.698405463870636 -1.04824004440784 1.0621008615503322
Ni 4.9137026124095735 0.4946342239239654 1.5670300370751058 -1.2066192278121026 0.4070627089217377 0.08662303660688307
Ni 6.315388685963331 6.005618256126209 0.4240611936760538 -0.5904042186982928 -0.14655185175203148 -1.3975238946478965
Ni 8.00566094792713 -0.10182777954442375 11.105732144510402 -0.02254780339352891 0.0033367776827168336 0.9684826245725383
Ni 0.2725915837034117 4.999106438671657 5.807359699984804 -0.3740628569569493 -0.36735227770599316 0.49691119444445386
Ni 7.467248698910023 6.382202632404756 2.526375629718835 0.24330760591754227 0.619692683249765 -0.088534394696983
P 8.977523421814233 1.6687865630261138 3.5676126118722924 -0.6974510703771666 0.8338002705645834 -0.06429069165826992
P 2.040638969895765 3.2987673228688568 1.543030365200494 -1.1389012556398388 0.23624247154064473 1.7066260304627447
P 4.88056055639515 1.2170661859982215 7.9607894542273385 -0.556041682058023 -1.3653740493882291 1.0672145286278136
P 8.632327166942952 2.014503517233895 12.5643178664371 -0.31711189349320223 -1.3906526214493597 -0.37123335792795426
P 6.340300038430622 8.078184316917897 1.3571196913950028 2.517718317906851 -0.8648180591023363 0.18609027616628596
P 1.9352658673251015 3.3879896109319407 6.188554549160396 -0.012935734225061593 -1.2548184132251485 -0.5388188904218334
P 7.338279694827437 4.075824299372398 5.980449294513493 -0.10036404034205941 0.8284235796337024 -1.2450227672909655
P 2.6574393067463236 8.796292647483988 10.105661469199115 -1.4424544366119998 0.2790793642005129 -1.077488913970628
