# total energy = -340858.3847686405 ev
CRYSTAL
PRIMVEC
9.32972968946311 0.00000000000000 0.00000000000000
0.00000000000000 9.32972968946311 0.00000000000000
0.00000000000000 0.00000000000000 13.65500246405484
PRIMCOORD
 96 1
Ni 0.29964386115765507 8.240371784537361 9.293936173699484 -0.20119782123168575 -0.733448314407382 -1.7831605724853743
Ni 2.0027664221056076 7.670362619908921 12.653954350968883 -2.1924832810858823 1.3535305197860816 2.5958088915626907
Ni 4.160229092062207 1.596503343119333 0.2593702170409929 0.44380403020682924 -1.097909129498193 1.6054739470017512
Ni 1.06189117290297 0.05647192078989604 10.94126228628649 0.8239303197490391 0.1018686499120439 2.159546164038229
Ni 1.2156731072451625 4.605135911389764 2.3231530712644153 0.8528878833236538 -2.044373855038744 0.03135640282409438
Ni 6.001927060944275 0.4884990482919729 9.146379967973838 0.10440041519496213 0.7709342271679819 0.5788723067992935
Ni 8.006083612772445 2.9510681361348174 4.269482092579949 -0.47840773632362776 -0.5890109378951921 0.6177229611179039
Ni 4.0393717737664625 3.761149904930782 1.8740124206073374 -0.00033244363875426614 0.8828828870238473 -0.12614449174027306
Ni 7.8416004784854305 9.253384503638308 4.681685410454514 1.8683008538991437 -0.7138266835217125 -0.835874893705425
Ni 7.215305054687758 6.278180356817133 4.8250768248502816 1.036428910705525 0.3806975886646476 0.5507392960085031
Ni 6.431327869540975 -0.10330063298086653 2.9913874959269195 -2.188688332819824 0.3657435384579766 1.1112930070042666
Ni 3.3980554851813767 9.346989681534032 3.5042968489578907 -0.5291381727989597 -0.46585046848390743 0.07350012607167987
Ni 7.224896016800466 7.883929462050954 9.499621260206482 -2.5319827982456653 -3.7317767756058187 -0.7981203006644707
Ni 2.805813574721628 2.2821078585030827 4.144675499709973 1.5489557002000485 -0.11544201772110442 -0.42991544515019514
Ni 3.891598185339235 6.164926768211911 8.675432940131904 -0.9471303841490074 0.6774131778896849 0.5255458274620111
Ni 8.929838808009304 0.9992047191721449 0.6117111903593593 -0.014326443925001134 0.6180546334257098 1.666125499245537
Ni 5.858827667087541 0.2631282321567507 11.668363573348163 -0.19953020372127572 -0.7929282149405699 -0.1188351025630534
Ni 6.1289979792079805 3.749030586074354 10.35655506551762 -0.1495186476898393 -0.5528306313198931 1.002220383144616
Ni 1.4831377977579314 8.876108894772837 1.3554539162541432 -2.457550390167703 4.21526346911425 -0.23728299699001715
Ni 7.034980039401348 2.57105891647263 8.208486500377447 -0.930584049754552 -0.37335451803601505 0.30212339050417
Ni 0.10534384378114196 2.9997226764244815 7.3926137683681 0.5059733046467221 0.1479255921711065 0.5777070828465986
Ni 6.76194550026865 1.4977481544393534 13.341401487964754 -0.7505158114126301 0.7435992867984549 1.6813654561237428
Ni 5.648190360065537 8.832539057159657 0.7501895691047854 -1.5746430776638236 0.1305827300172848 -1.5525979249383262
Ni 9.181405639144588 8.530554366824882 12.92232962309858 0.02383309786385573 -0.16036330371382707 -0.11029466919221005
P 3.9127953311758827 8.326867708415689 12.51199691602518 3.1311267108098013 -0.02482554368411208 1.041593999846232
P 2.915587174155605 6.242624757000468 5.644896032514956 -0.6365470358029425 -0.3164845443218485 -2.1883085808829024
P 6.450108615390082 3.6603981540989348 13.264551571604256 0.3080940062653081 -0.4998785046028939 -0.42416748692282435
P 6.412836345311998 6.486214669257962 7.018903049213975 -2.056585052392955 0.7559241269123949 -0.3895876920654259
P 4.9774387743349315 1.9197411576688446 10.610333042587449 -0.8565303651722475 0.5151997083409965 -0.5482746365180945
P 0.81373435796632 5.856056737372099 12.988610821675733 -3.2598808722587793 0.7353128784199465 -0.3314180257032292
P 8.130570195914341 3.288487139800396 9.739307613565186 1.632378998922711 3.9738271120774913 1.617476370779266
P 9.002890591416413 4.834432677775014 5.002974244473534 -1.4528118685869238 1.936977333329935 -0.9247874976774332
Ni 4.675314138054933 7.826234413699797 10.388670794000673 0.5570847786105566 0.524072328240278 -0.4308359000819354
Ni 8.3759047676223 7.348785497242739 3.0777285462925317 1.542352593061234 1.1745719695685708 -0.24290265716963974
Ni 2.296382344915966 7.541537712465071 7.210169038498025 -1.567331631604075 5.430824479500673 1.3101647512059371
Ni 8.609847739388997 2.039273654349799 12.16506438700325 0.37515069070448936 -0.029134198361794986 0.5603922457172349
Ni 8.428319188973658 6.515724604240937 0.8256390930400709 -0.9515891912513095 -0.46441553580959377 -1.1325809698487657
Ni 9.318701941139352 3.8411803261397446 0.49633602122453624 -0.9030344222710576 0.6780919491242644 -0.7925515483274416
Ni 3.2904370533038554 0.5484462933882736 11.255272065207906 1.4792438375262074 0.4110767151771372 0.054119150441906794
Ni 1.4187906521437776 6.295095156729915 3.71716489434677 0.06393999318707053 1.4979779236006008 2.483739389858245
Ni 5.439064469251957 1.5564694730554887 6.591256229797421 0.34328598078540873 -3.001974542591456 -0.7563128777103814
Ni 0.7894238813349148 1.7727139476161473 3.5607603729910733 -1.802740808610147 -1.007215265256046 -0.8506664501923028
Ni 6.416558907454966 2.1851812968407014 2.34777329492125 0.8351357015465553 0.6995691451614339 -1.1680328828984723
Ni 5.435034026029497 4.65845531652024 7.77567754152805 0.04980098268252713 -0.6922119334654143 -0.458563705014507
Ni 7.385190102460432 5.79933198090783 11.585750682963328 -0.34916455105337285 -1.241144258172166 -0.10455313872274251
Ni 6.077301947042108 6.820825424289373 2.7548965749841705 1.2213794168404126 2.6623603542306795 -1.037637329191329
Ni 3.891252985341015 3.771076737312029 9.41197031579357 -0.7831611082514771 0.390239980937444 1.0889161819709632
Ni 1.2194049991178117 6.795364591988224 1.4833971642430805 1.071024132181891 -1.562814717570328 -0.6950478602523127
Ni 7.128165379461399 7.68328429551797 12.752078849922384 -1.2369644157628632 0.8428595525533742 -0.10483518873953558
Ni 5.1875816056838095 5.182207681387194 5.130716903274316 1.685260420302775 0.21079240689865636 3.0238566873765276
Ni 6.583327825513977 8.694337771385776 6.536636260349327 -0.5630579654748561 -0.9107343620184766 1.2541998058045432
Ni 1.1812930533683816 3.55954377624059 5.195742320236325 1.0957774278671708 -0.7219786232048857 0.9079053772101138
Ni 6.305292551271929 5.232970740584904 1.0917080559924692 0.3163205079401585 -1.2643896018533516 -0.9752333130328107
Ni 3.315384750472515 4.652083111147692 4.369068560174561 -2.6970512207446453 -1.2927637821206706 -2.1692294527642644
Ni 4.757686321413982 4.639973122020945 12.370312842161148 1.0011592888699532 -0.8003610170695312 -1.8160686360673044
Ni 7.766318889684414 4.949710817721147 6.83796133879561 1.5840880251268075 -2.2694957911861944 -0.836868882187578
P 4.313273977759551 1.7395280991386142 2.668897925697874 -0.16887828316337367 -0.47656322691572117 -1.8118733670390346
P 3.4435659065683337 6.1299869305542325 1.793734761561812 -0.6128923724984799 -1.7794211600475998 -0.5035405268355134
P 8.682890193066424 2.6882776401925415 2.174491292571498 0.23463270385136364 0.03918695461210671 0.005624545275629023
P 8.095714325823797 9.011044775158151 10.745517093782295 1.0304397830016254 1.6233528841647007 4.6176472845030805
P 0.8150134639056705 8.826138862598064 3.43341422770176 -0.10586080179057253 -0.2304088955780032 0.3546762249002214
P 2.388541414711039 4.238216302470894 11.038881113891247 -0.6663353228089686 0.8590842419423528 -0.16638148488344895
P 5.502450652708904 5.803035883591436 10.136872585569284 -0.8495796448860272 0.4115492839381815 0.7492464577819031
P 5.74615252172258 4.890914861267559 3.178106174964146 0.2315576644704657 -2.8447438709693396 -0.34943348844404337
Ni 3.435859549851313 8.17264727677846 1.4300880218152547 2.9077873204840694 -0.1909316634189873 -0.8605970790424534
Ni 8.096227460956287 0.2414711306467991 8.149564592573157 1.2402613413465802 0.8312507646698523 -0.5634184341380685
Ni 5.282194394385148 2.6039462136003513 4.405922858362909 0.7958734136118228 1.0412209327775293 0.16461153746721974
Ni 8.134367395894762 4.900785715270716 2.8233497346312073 -0.3288440943284659 -0.038463960403153113 -0.19438388363364587
Ni 4.412710236706289 7.365355097157301 6.5344512376578905 3.123314413854234 0.7862587733401942 -0.37041549001234914
Ni 1.8381899905217776 5.552308728127498 7.265963620913034 -2.085066190551783 -5.472811622565736 1.4596036946977764
Ni 0.2912834903899526 4.051276508840213 11.818732692572818 0.5301740702626418 0.8280541121094256 -1.6965601615863104
Ni 3.211283626684965 0.23524633500322023 5.9277864980833215 0.8807815244101282 0.7254557831202086 0.7574354213505988
Ni 7.757194414055787 1.4958355598546205 6.243354341861571 1.3094052473320934 1.1602249568182792 -0.27386542409974124
Ni 4.044381838605494 1.7021065533856239 8.29081203508809 -1.8378001142071252 0.18709917704677453 1.5020860322317033
Ni 2.032873459788205 2.165635513157701 10.107487668964044 -0.38615861177921884 1.2135923166958258 -0.4345778836228709
Ni 7.29619381102743 5.450922555677301 9.10282039306331 1.033665746138091 -0.52482797545938 -0.0025852442286729673
Ni 0.14363398736749106 5.83582988342234 9.918857328315053 -0.7484157343504918 -0.860336369181899 0.6067839456078968
Ni 1.6253975159433196 2.3355951987678276 1.3587967583990688 1.0497310271310696 -0.7131980487987782 -0.8481164300769393
Ni 3.6883780134141224 2.887943185108956 6.18803744160626 -0.9725434249054734 1.3749771196956322 0.2272662361839634
Ni 2.866596763597403 6.487418204386892 11.15553632193839 1.3063919144270661 -2.788914165594229 -1.3321579676475768
Ni 4.0326543683956935 7.021937077306439 3.6098496786839016 -1.2115639734118877 0.14111988210318277 1.7004690097224133
Ni 3.415502079686012 2.9034212066507687 12.285951560433976 -1.2031402681245669 -1.3731133270140157 -0.41688612277006265
Ni 1.3885250090565922 0.8773528516923391 8.029646778056351 0.33356104018816096 -0.004746256435733761 0.35775949181123545
Ni 2.5454954571449826 5.092287746715711 0.0048971751098839285 2.0682151804327153 -1.2452089151598427 0.6430331577479184
Ni 8.921749932375336 1.4922529436568772 10.038803132020904 1.0546739729586416 -0.4233005109368387 -2.3865825435995736
Ni 8.297115200460993 7.127381682168143 7.594448475435491 1.8823161943416291 -0.02209528923714259 -0.13426969195056876
Ni 4.928345736750231 6.516732215046552 13.305475497879728 -0.6849948468916848 2.880874298143309 1.0957640581307322
Ni 0.9592268274863903 0.7883668229619869 5.652774989231087 0.3925624584230336 1.1230848574328722 -0.7271388272495865
P 4.353895620793338 8.945745997116472 8.273634136798284 -1.2356477538339685 -2.0281558505179844 -1.1146719507788287
P 7.58212203658013 8.617591415024744 1.3850403550205062 2.2863470584155783 -0.7320730313264102 -1.587927967698188
P 5.188962405676689 8.977308472629403 4.988636315898816 -0.6180122102235485 0.4577322102521472 -1.0769548958440291
P 9.150972060923134 8.599855598899978 6.335156083009837 -0.3977643143389472 -0.22973320966721725 1.2209724112099811
P 2.413031955125299 3.2748937236542717 7.850233277359837 -1.4638622128638146 -0.2543515224365297 0.17277144757019278
P 1.6719995157030265 1.3113588148598883 12.684104305408015 -0.5822921311141198 0.5778567210505854 0.9212008087674394
P 6.40502736156848 3.3406776476393953 6.32210192523931 -0.08733034708655282 0.5286072399961541 -2.3095353236065836
P 1.832582822983122 6.838663867440636 9.351655479347812 1.3166529300334422 0.08557865450276875 -1.4461506545166642
