# total energy = -340856.3615059218 ev
CRYSTAL
PRIMVEC
9.33516553701061 0.00000000000000 0.00000000000000
0.00000000000000 9.33516553701061 0.00000000000000
0.00000000000000 0.00000000000000 13.66295837640811
PRIMCOORD
 96 1
Ni 8.575292262334179 1.8473358790087433 9.897337451336302 -0.7637389949711234 0.7771020465415907 -1.158660954765269
Ni 1.9700746335552435 8.04866757719334 6.551456411298458 -0.4285159936995072 -0.19997911833323623 -0.22305836875020293
Ni 7.271235003521866 6.780933446913158 8.869240750681195 -0.030010687429477347 -0.4417546038769682 -1.6967355108219102
Ni 1.3199923861328833 1.277470707781856 8.249844125411999 -1.960161741866198 -1.196297019950488 2.691015556073527
Ni 5.038272777421445 4.770474887881176 5.550440091922932 -0.23204077475447135 -1.4042943806025103 0.680416226382067
Ni 1.0872760481278858 0.29414079275404814 10.919654751098518 1.0580390327761326 -2.3156846310374313 -1.987184036091313
Ni 3.6693641246454476 9.188715315270372 12.981831993423665 -0.3666585940730782 -2.139740699276528 0.4586927743932036
Ni 2.3367692652361898 5.303848897598916 0.932989102146194 -0.10278473396841008 -0.30252139727353705 1.2112821805054106
Ni 0.410083546896696 5.9025690650460065 5.389927524142712 -0.33635094422847234 -0.09416536773051523 -0.2150594097051264
Ni 0.8840205585768965 5.543641290969463 12.835434195712983 -0.615845798699849 1.483745839161619 -2.287671176543641
Ni 3.739713931023789 0.5633128186397114 7.916098893491268 0.20528073305180777 -0.10749756606304713 0.3586074416338275
Ni 7.851144812708294 0.88226928154975 7.830487025216968 0.6297809207237024 -4.283491291043397 -0.6906186208363654
Ni -0.4567640414289271 6.782977848133547 10.592386256925305 3.4688567947739872 0.6269236537805656 -0.5642717832772991
Ni 1.102567049036554 0.19393526042570589 4.1283994118137395 -0.6462544928986934 0.12001806712756104 0.8292252495993913
Ni 3.2423083135533615 8.989820281473008 4.86454628303181 1.7188089456821818 -0.9325301177373295 0.14029507220904225
Ni 4.119104387635009 0.07530677920038167 10.545863526688164 0.10570653560089537 0.364198819678676 -0.20107543672120856
Ni 1.314914056160774 1.005817394935555 13.24793181637951 -1.9291997462670452 0.9884613816873105 -0.03310346742218814
Ni 6.609978563127787 6.786123798869946 6.401779169986304 1.113528581203005 -1.103371695274661 0.565333134662278
Ni 3.4644852498331535 6.565636527525728 12.987434026174148 0.03723368754047781 0.14436821383715137 -1.1922645017523272
Ni 7.003157059019901 8.043047807628616 2.714611017909224 -1.3586524143936796 3.274495536848161 -1.1110821765450412
Ni 0.7563173630760435 6.93375010434594 8.307392619491159 0.1440260000063842 -2.432288530277121 -0.023217575767043887
Ni 8.48560932843334 0.9570691612694597 11.92677906918866 -1.9319202305220018 -0.008210560835250376 2.253894594313828
Ni 4.140444575716336 6.140783815465659 1.9812385578450336 1.1164120733983869 1.1337593064275828 1.1140674844256104
Ni 2.94359235624172 1.4262452386008075 0.9567461645469688 1.4830040758995877 -0.7818171926290729 2.400336917071189
P -0.00973937805129022 8.652326047131693 9.15280200049886 1.992906797507703 0.9515747930736065 -0.14409619112268732
P 7.784977160424631 7.35747326139383 4.713774960335957 0.9964899084187419 -0.3660595270364986 -0.3122530227390042
P 0.638526246186194 4.519751015839048 10.92122585943364 0.10087954652589723 0.7909543790436506 0.39524026236551285
P 7.591244473087887 1.188282537646682 2.294638730314999 0.008178164935418173 0.3440089749943624 1.1922809568125596
P 8.653352915324582 5.537900164254671 7.583283444043373 -0.882320586762474 -0.6590063932477231 -2.608505770304069
P 3.840944464511943 3.3332141541202778 0.8385134943341768 0.6197741872199778 0.6891664617708712 -1.6970422434290513
P 2.2654579368226884 7.301126203100349 3.574039016782949 0.37543891136886953 0.17750870514486203 1.2022090145595488
P 1.0101115710149124 3.866494812184119 4.01286553791517 -0.6190370519436372 0.7785086970811302 0.09315929506350408
Ni 7.251640491368451 9.442239736929475 4.925346215216276 0.4488871011566915 -1.5238398789690273 -0.9473473852558202
Ni 7.113321345786195 4.298470255436686 6.227166768401166 0.7336208354295043 1.4616117262667407 1.2079423174989004
Ni 5.07390510371472 7.152034276658141 9.621482380548004 -0.6442847707668324 0.44581668976148375 0.7561172167598075
Ni 4.303931327189782 3.170362193893346 10.383944149483685 0.5141494126996113 0.8571949953394399 -0.7138485378985835
Ni 5.378007451456339 3.3958811193827256 12.71209799058153 1.2253661694023024 0.7609814868306443 0.6132672393393955
Ni 8.730713430910743 7.94206932360599 12.68251765201053 2.326830363241606 1.9719456218750036 -3.258770155693104
Ni 8.465837448137515 3.1218473393619983 4.883550812732583 1.828445669575419 -0.27101175670103 0.1286500317709462
Ni 3.617591297393022 2.0815925193030753 12.347188242523133 -0.4031474330277315 -1.8012143446632913 -0.25705992250662824
Ni 4.483101156518272 7.314214104976999 6.962192486255909 -0.7239979676277596 0.9724629493765253 0.9457216767269389
Ni 5.073671724579973 0.48751874380597654 3.4300580933917146 0.5019649548182774 -2.695916850029886 -1.1277370114929028
Ni 8.128165845653792 4.1849266387992445 12.477641577747853 0.05733920004110125 1.0508602556395061 -1.9673713722407602
Ni 6.9538580505958 6.481031923596999 11.302449742527438 -2.7131949203840433 -0.6272504409923649 1.2290017092723606
Ni 3.2817493873257195 6.1084561377204105 5.382099054446735 -2.454646329147031 1.269759093695381 -1.2149927965877783
Ni 7.92397777308035 6.157745810979121 2.8923936416607736 0.593583387757223 -3.3473469735922476 0.7121017304108059
Ni 2.4050093242364117 3.8913356872866625 12.681848320652072 0.1500104997245933 0.6676501849656502 -0.1784525571153701
Ni 7.5612505866901145 2.7359876131355727 0.368218130672579 -0.46286978858902866 -1.8319567680524707 1.2082086837864094
Ni 5.416048250420212 7.456407344196066 4.4793325502503665 -0.5871412316763049 -0.6244805915567115 -0.13952425548128874
Ni 1.6999522878328879 3.255909649526456 1.9586530587006918 0.9136075698012137 0.8647602092812076 0.6760548640895777
Ni 2.6508509047796185 3.2163285482732493 5.222529338370895 0.056395348070593196 1.8180797529600623 -0.6762489823782547
Ni 9.56938468954001 7.787740369380044 2.791698013149461 -0.7443163674701375 0.13381717779418245 0.7925731455939963
Ni 6.787253353882126 2.01066393267056 5.860548685076417 -1.9636507288560634 0.7684466848594379 1.4067520981143837
Ni 6.655319461426566 4.6735385304723795 1.5679614508684503 -0.9666774530429998 0.31212086803651407 -0.3167791927441319
Ni 8.075459501862374 0.11195103742192355 0.5896622564692636 -0.17564825489735558 -0.010491900670259352 0.12510808005595875
Ni 5.565578929635746 1.4668905487084636 1.4437374715084157 -0.5326395010839988 0.4109988107513502 -1.14371076121334
P 9.080996841836233 1.0681016184170165 6.096220536443859 0.09834469591918546 0.3966366284924072 -1.054960908071441
P 5.675593853755801 8.09211343691797 11.940141424927774 -1.1458306357698202 1.097147825852136 -1.0099650600870413
P 2.6661325705228966 1.8546826541706 9.723039644824805 0.9530979145863522 -0.4177284161656999 1.2679953169267388
P 0.41228104482948014 6.8375512250029455 0.8206599905259792 1.8895865027507972 0.45218402674040836 1.2130595841208076
P 1.5917577209638627 8.396057086847959 12.834176748934963 0.5214796278124374 -2.2518469677561797 -0.843714958575134
P 6.43347859110081 3.9480841576919086 9.83398248438462 -1.0733880044283772 -0.5133757677583805 -0.7637917025859298
P 3.269006886568496 4.793915488175234 7.113509916127072 0.2851960186212121 2.5684361559766926 -0.11946476572725231
P 5.710740751448802 5.115717309496115 3.660511587306199 0.2675929608274682 0.5768172240424776 -2.293643334966675
Ni 2.91840608001975 6.045817177954133 9.0640068408266 0.8827139655461508 -1.4717231036691298 -0.33097656729043645
Ni 2.083086145765461 7.959731456523695 1.4403217344922488 2.634113443569844 0.7774401466072998 -0.8147154860189905
Ni 0.9798376296554434 2.4138590610260438 11.308638957180944 1.1656296727736184 2.57942762199119 0.5467286321872132
Ni 1.0779875585649281 3.101478008481221 6.830016813016751 -1.3228305195990637 2.457178094429949 -0.4143016498723381
Ni 8.363944117906678 4.713240988875655 9.501931584982158 0.5108501731230493 -0.8768608491994835 0.6692165010115055
Ni 5.585117430796822 7.365716212433117 0.3724581627926749 2.0198159631937216 -1.504554291266538 -2.302193538529532
Ni 7.4258346775441195 8.913467963748957 9.732712743201827 -2.2134382860709945 0.5643180631342023 2.340548484158646
Ni 6.149978953374718 2.1407587975443074 8.423951494549542 -1.9258678536803346 1.2967803594792313 0.8974209327390221
Ni 9.2653663582869 4.756481474961705 1.1723091361480118 -0.5676995780119255 0.8826833694185315 -0.5587688511811989
Ni 1.6587281974710575 3.8227502271670133 9.08689199877996 -0.6269231395599332 0.19836677954079385 0.5891016978367855
Ni 3.3262127800778476 2.875940412661062 7.623315433784912 1.0377663985700256 -1.6099098712859177 0.6132852370615244
Ni 4.516978471718245 2.152334402627792 4.639038559740899 0.016856923656338712 0.7471810906124423 1.6827975605845793
Ni 8.620446457325158 8.017366767640983 6.866059886587184 0.3766103059691514 0.4709800764009889 -1.2000212628796105
Ni 6.283901236058328 2.8377689213817314 3.162414234080379 0.7277080694894952 0.571299636658358 1.330124996377948
Ni 5.801515899700261 0.7342098243996652 12.948344888136988 1.433645322960802 -0.1764095585434123 -1.4875297316840832
Ni 5.496993469516097 5.221186008071287 7.966420102525563 -0.6509984353415821 -0.9020432620023819 0.6346349063818941
Ni 8.358100304372597 2.9082867607370906 7.750873000705683 0.4143291606761638 3.274110128484284 -0.24873829001481032
Ni 8.613006330509403 3.264815397308428 2.5857007855234557 -0.6586796060359237 -0.7510421162297453 0.9998153732475489
Ni 3.914374875468953 3.8481138715313916 2.8595338594883 0.5737236727188184 0.3213287597880273 1.2568958645794674
Ni 7.851368856677652 6.648430109368816 0.3394032756635524 -3.943761917260995 -2.4756488995406265 2.129515164893778
Ni 1.885460694461124 7.3689368444926355 10.925502298698756 0.7615658985792045 -1.2956130786440074 0.8462786055372522
Ni 1.945877884864604 1.2030320989627357 6.210716339951072 1.1981412722480784 -1.9375985118537018 -2.3043440092136316
Ni 0.5850021419066219 1.3522080418934532 2.1458772687275935 -0.6593426935412193 -2.125406027821411 -0.7514833175322219
Ni 2.4132709456064796 8.277015057795863 8.855031695441216 0.5536017051579628 1.6980639998253464 0.5905510286888024
P 4.580065519423238 8.519019885363816 1.5178045407450178 -2.4830053399056977 2.9580791267600866 2.9599529467440315
P 5.750097808732652 8.908903067873293 8.277990582579108 0.03651892086164034 -1.1281856689945473 2.5120063551237384
P 6.566626055057058 1.914184998365869 11.204459444946119 0.19558844546470833 -0.02031505740826824 0.2326989771637605
P 2.8880481221717718 1.2249977431251873 3.2637119807593407 -0.12384515418313512 0.7052908781365596 0.3804808446681512
P 5.317627601714419 0.35106383075208547 6.434050836739212 -0.4337217062701627 1.0938537284818968 -3.5798132659199124
P 3.8998773636184274 5.3459038176804485 11.058238081861308 -0.5734462506877156 0.47134105928483344 -0.15393040360428972
P 0.422865255348557 2.9322968061199317 13.775813948298365 -0.1794578584514329 -0.08038039813128092 -0.7547326777074551
P 6.164280426752057 5.459932862918165 13.120060587901637 0.07892283974914795 -1.5293852342672887 -0.005831776190428666
