# total energy = -340868.7542272891 ev
CRYSTAL
PRIMVEC
9.30281874073033 0.00000000000000 0.00000000000000

0.00000000000000 9.30281874073033 0.00000000000000

0.00000000000000 0.00000000000000 13.61561557038564

PRIMCOORD
 96 1
Ni 0.24103045610791432 3.967791804783865 11.296100420253465 -0.6932917967931543 -0.049680912164895084 0.943122034320563
Ni 6.007797659394487 5.567895261887212 3.57979076422317 0.30441964273751443 -0.4202604385589343 -0.7473250723894742
Ni 2.3945734943127 4.963342272600355 1.7641893677754679 -0.26615854237378683 -1.1772767700942435 -0.3177706101231237
Ni 8.698972928819254 3.0135551557194598 9.395401487882618 -0.616663409505138 0.18527420802289382 -0.32262485289163145
Ni 4.369822426533486 0.6393669284708087 11.239418344672188 -0.26106672967317623 -0.44044385548534465 0.908003850461191
Ni 9.264268022331784 5.651583420746422 9.04598388872572 1.30857863766574 -0.7462351817594052 -0.18706575270567782
Ni 5.194098695510836 3.1951461807229906 1.8273517870051794 0.18152296851057767 0.4247272160810363 -0.5099621140911411
Ni 5.995303973606589 0.9409522236696801 9.545050353897823 -0.07829780457063934 0.3529188758894825 -0.6260538495811024
Ni 2.0934040351188314 8.27832736644299 10.791709951822678 2.0551773734121506 -0.9005934169297328 2.109735411163689
Ni 5.126290448520531 8.503129985254995 7.235678587079991 -0.12812244140225032 -0.12929794976759024 -0.27344196340907745
Ni 7.41497925806939 3.7827308283291905 12.886758725323713 1.65000365398301 -1.350235651084894 2.4492806939597433
Ni 9.298307036701042 8.897513689865635 12.296262295400602 0.2763714783510466 0.33908197000639023 -0.09900109855626175
Ni 6.025761402697857 6.001434531264239 7.856945951091431 -0.3670450308782195 -0.9487542929056758 -0.5123527258105047
Ni 5.75700296456507 0.5897224353903094 4.908811008749653 -0.29911571402609777 0.006514918300382328 0.5084060824579308
Ni 5.37911315787099 8.229124757260426 13.058628304572702 -0.8599021098579579 -0.5937093718121259 -0.42856021667388133
Ni 2.289786542179515 4.085463161098909 13.038313738932322 1.20066018201519 -0.4781989627469313 -0.36178018293485437
Ni 3.925798880251799 1.5467145794140411 3.177149877553455 0.4770561073917397 1.3047165836071724 -0.6308191321802298
Ni 4.386874493584278 0.14086235356050034 1.202376319378657 -0.7067967732581247 0.619278735640798 -1.015472877279148
Ni 4.437872546815291 2.089441034265783 13.287547420749668 -0.6810294344860335 0.7420293712081737 0.9023898467085232
Ni 9.0861562515983 2.170319741816024 4.293684435496656 -1.3849298600329698 0.11752461128174597 -0.71021068403568
Ni 8.540145901673492 4.636134223294556 4.976357846528758 0.09961096422611877 -0.657148771213694 -0.09697224105169105
Ni 0.4670731406798046 5.613897701366848 2.966597316738398 0.9068931338955156 0.4927467786541191 0.521918772232385
Ni 3.678781129897354 0.4152750450230597 9.052096771027454 -1.1841655267942768 0.22124394124928348 -1.3056748337553836
Ni 1.6827031861508042 5.707316608799505 7.379241548968285 -1.8684538345372401 0.8290568423423269 -0.6404114038543551
P 3.5774083123018885 3.0132946767901507 11.476153689292186 0.4318856815026884 -1.3794469825415274 0.17296248053507632
P 7.355543548092569 0.7775816997712677 7.764713153069018 -1.616344828277984 -0.3155368356965985 -1.6373294009494512
P 0.2679463020424797 4.528686664954864 13.397357895090943 -1.8918537015184194 0.28233875167807504 0.8271873932337561
P 6.278323633119009 6.420070684757267 12.084893877367676 -0.14856605396858283 -0.5009578537100018 0.33477717198344925
P 8.55064878421596 1.6221325322677105 11.537968130062728 -0.4124609971191735 0.9521607474840633 1.2066822198395541
P 6.496279377217765 3.828323943777055 8.785476120678775 -0.18046727355255368 0.4552492959292934 -0.7722328913747474
P 3.8224445622298093 5.953943640759986 7.286696176230701 1.6761602577737198 2.696665298160136 1.5004184147212933
P 1.4773620644856946 9.0933659362488 9.010542009265759 -1.4677090974137303 0.950752297172311 -1.6281693317167378
Ni 3.685162863665408 6.277328231496294 12.27567608744823 -1.2091929020765497 1.3528401785872766 0.6873520342699516
Ni 8.528573194957078 0.8688181658890767 2.2131778285061503 1.289859721099998 -1.290673732360861 0.7111784472655882
Ni 6.297208355493864 1.8005233875683104 12.002205771540632 0.6119048117742301 -1.2541851505165238 -0.16149484621510896
Ni 2.3872149645597394 7.871440673225551 7.59344267535744 2.2690725876058475 0.06088526552114676 -0.8234140422342529
Ni 1.3656166038124153 3.5953906612430684 8.107949029064294 -0.1343751071801815 -1.2727914527638016 1.2729827428390013
Ni 3.757287618627108 4.364761693049781 3.8409106577539904 1.1933505357276546 -0.2778827727892505 0.0950310581649202
Ni 8.083107711745292 7.333300508093417 3.150680566926275 -1.0035535001337426 0.5796217833708083 0.24149163575472601
Ni 3.5801712495163382 6.2989758910855995 9.865603166559794 -0.047489818050847246 1.134875165199581 -1.5496460413988538
Ni 6.684484706461947 2.817516852958219 3.7607557095144704 0.8241527201724902 0.2662811839945801 -0.4350404250815862
Ni 5.610092848435164 4.442086723778743 5.862789039448531 0.4002919658568074 -0.27294214095452346 0.1447561933041894
Ni 3.168726175036001 4.189989634302786 6.647157145610171 0.7102520787965768 -2.8333451422140947 -2.1904225419021115
Ni 2.2822977729619 4.103575749504743 10.14306160093148 0.7529177359859033 0.05223581737626487 0.4120524488268451
Ni 6.793411413007355 3.621596702095269 10.890927306278119 0.4999417537406615 -0.2261820019808492 -2.6492544129763407
Ni 1.001578694466197 6.487748692282917 0.3276266761564732 -0.40002585667961427 -0.08548429501674955 0.20478605280357637
Ni 9.352775041383198 7.68013750528638 10.066337532303706 -1.659740935875432 0.46244529945710033 -0.33961804501551834
Ni 7.7037759681211115 8.668803887114006 5.944836181053098 -2.0129182076326235 -0.1625662249024168 0.13149084365385097
Ni 0.26776768791952543 7.1929953933852575 5.333386081830911 1.4600415535661437 -0.3438953322346336 -1.9585951687100267
Ni 0.046102909923796065 8.084484528943065 7.413512203528249 -0.12934860049986754 -0.7376703229085296 2.60420945692156
Ni 1.8810020739056847 2.9741205063859573 3.5913774251679396 0.33953217016993137 1.4808245517497658 -0.5101675452337279
Ni 5.710312116486549 7.440589918511742 1.8408855279465288 0.5181101971195722 -0.5283976950885093 0.21562299551808026
Ni 0.8195076440072264 2.8634634755244304 6.122179538945122 0.5918270671877485 0.8050748776054328 -0.9807568139542012
Ni 3.5557048357991614 8.62298750401245 3.22651993747629 1.0197051701929407 -0.971434765222327 1.277800990163251
Ni 4.7445678804380575 6.602117547887088 5.275656508841059 -1.4929794419447449 0.3512684847702531 1.9301132592202501
Ni 7.273055452871957 0.3909007292130314 13.597779686119688 0.332531313372066 -1.717055967546817 0.37846509978970305
P 8.13640356124556 6.126808621631687 6.435774773348888 -0.9438931081586324 1.7690588429766694 1.599673024049258
P 2.94640740887133 8.331995328699414 12.920034908542856 0.4944192812605356 0.2500906902776467 0.35307725584421773
P 4.870639682223296 2.6483636968291617 4.866670169397015 0.08746250178904291 0.17421255089209353 0.4136979548500682
P 1.6081131841795793 7.726651599805726 2.881404892062433 -1.9895576785298124 1.9024533314111365 -2.4749372181855827
P 8.39497541267861 7.810944441893688 1.0403974971882635 0.1247121301691207 0.4464931470032181 -1.0521563487431105
P 5.9614603184343125 7.794869170827801 4.101268650416584 1.1330447968590616 1.3149315764669613 -1.0563431331309483
P 5.151231306001805 8.186089917011126 9.826894137100794 -0.06895930077853284 -0.3165629629682677 -0.5241101234567489
P 1.6110156636775865 4.682852979829788 4.981395322965204 -0.37500748025840575 0.31273921834680335 0.056236196784909605
Ni 4.501782912684874 2.9420071755298 9.3528522547801 -0.5663901151718826 0.052801460071747776 0.9757567896364487
Ni 7.1081815934386805 7.871263919666377 8.6333759618824 0.4499872761994056 1.2067868637382184 0.5195638988469633
Ni 8.223105833429623 4.309065716272315 7.463930691141551 -0.5174347683191023 -0.7712023932277041 -0.39053180114624997
Ni 6.262592566352566 0.4051089245249112 2.5353502619392847 -0.7142169769815957 0.3044561524024047 0.43972703192397816
Ni 7.268338923687696 2.4837968304197116 6.213417865626712 1.2819409804735533 -0.8392623221204192 -0.6718719363564817
Ni 1.1442374223570346 1.3860176856686008 10.373070077202089 0.35319269837615946 0.9174027751775876 -0.22054228719656857
Ni 0.0956776318625162 1.8788810311956028 0.05767654692210001 0.4028993215726674 0.18489625585818478 -0.6443027684889614
Ni 4.837698400484694 4.732660272241105 10.994909564576117 0.3972477797138449 0.1769978269467145 -0.17488129482434397
Ni 5.238268479666408 2.204284333634051 7.259370075982476 0.3691170829158998 -0.5851846221705664 -0.6155784039710753
Ni 1.1564799320345267 8.836291838659271 0.8562230793751278 0.4944917863696839 0.436303608064726 0.44384619629867433
Ni 7.267808663010176 5.537493649709368 0.6194440115062818 0.8655595652540513 2.0395846611802164 1.2669334513211277
Ni 2.62270652229229 6.433643497538013 3.974452623119036 0.8026984069534563 -0.857730813238252 1.7154906799422263
Ni 8.591906786054622 6.486399783541856 12.059337173274967 0.027496662758372 -0.6020099212580213 0.4333743502330729
Ni 2.3150157870468084 1.010434978062681 12.342256362343225 -0.32609069995304485 0.7150261031464524 1.4960035734830492
Ni 9.188971006123865 3.2915792014805008 2.061499087406121 0.15440888590260504 -0.04429753636579468 -1.0459576761315665
Ni 8.24863276850184 0.6853200630102523 9.701248404421351 1.2187280952604946 -1.7154701111169357 0.23926557463768472
Ni 1.5696181195553678 0.833083247633643 3.089995488370664 -0.3956560097466928 -1.6662802796558465 -0.4273304580318383
Ni 3.079716803763779 1.5057356621424964 5.417544963326656 0.7787372681521685 0.272229431158215 0.6249225641901367
Ni 3.361629427826638 7.217917645228725 1.1634300680376077 -0.8772969082956374 0.024639652925551113 -0.1686581967327676
Ni 6.954564144879085 8.61529407277895 11.278426924899893 -0.15940736755846097 -0.9442466348433092 -0.2985981509597309
Ni 0.11142823454865751 1.3165163256377925 7.7047778817170585 -0.07319802145022877 0.7703261612703378 1.5853368099322438
Ni 5.1462356922504275 4.771211153778739 13.444276662232609 -0.6144576601030708 -0.1678783811439496 0.4021089644608881
Ni 1.1814486979725123 0.4392558515934543 6.03386880937258 0.5169817399420839 -1.736587095601209 -1.5802398550253107
Ni 7.284163018643178 5.820476097946171 10.086421388035271 -1.442695091867896 0.38395569059062906 0.47649252157878585
P 3.1504461358898976 2.2302764096514625 7.6344662461597235 -1.4037521349457955 -0.7732039970387652 0.710882513291724
P 4.413378224641402 5.490495808607019 1.9275626825195513 1.7801683226262697 -0.8018939087742899 -0.12986950600034408
P 3.062450771878197 8.386974988421283 5.492716391479373 0.41706841398419786 0.5227872908802674 0.17586756999701322
P 7.853132725622736 4.718454867774896 2.8685921195861335 -1.0916299813577006 0.37675531618744795 -0.06584595196053177
P 9.006924142994043 0.12005845964577716 4.474636356841492 0.1785489734839183 -0.9289136040306647 -1.5535127234431116
P 7.073156480265612 2.0604069364668067 1.2153239827290623 -0.7742782039395504 1.9058351033991758 0.2729562820219106
P 1.401972020088737 5.958092697991111 10.791560176438326 -0.2130333804140331 1.2071802425218954 0.020094970977662167
P 2.0707516710879093 2.4511625417049374 1.237696331910978 0.03827806964459214 -0.37356869092935024 0.6033813476842511
