# total energy = -340874.07439542614 ev
CRYSTAL
PRIMVEC
9.23643516294334 0.00000000000000 0.00000000000000

0.00000000000000 9.23643516294334 0.00000000000000

0.00000000000000 0.00000000000000 13.51845649414059

PRIMCOORD
 96 1
Ni 4.879479411673948 8.239057227265457 7.217909277903312 -0.9302786026989913 0.2507918301097294 0.506552831299276
Ni 1.998552141566829 7.544606609520302 7.792579032906675 0.26907365913805276 0.7859026755523562 -1.0114395877500386
Ni 8.83973955475247 5.915188601145625 2.03270293711455 -0.8297695521386355 -2.2559424779817925 -1.0434567640865835
Ni 7.908762304133934 5.872913437186649 12.829731782773957 1.3784522227284262 -0.9079663123550363 2.0451683259155815
Ni 5.702371897457889 8.917381029132883 9.398815436189754 -0.37275056590342903 -0.26562118181307803 1.7937985118151945
Ni 6.870854843082131 2.917383479883409 5.693055105260944 0.30383086011357996 1.0373920459497425 -1.6872285997727392
Ni 0.7033545412881869 3.8682744848160264 6.956827582022517 0.34020657052913666 -2.2035770770061984 1.8375998252708607
Ni 7.731718314016902 6.958850361333641 3.888178079051377 -1.5616602922509106 -1.6206295716962669 1.8594513739283138
Ni 2.972829800452719 5.247366626112667 7.971617169385677 -0.0758305739770694 0.0120265921472309 -0.5572788968992338
Ni 4.061907112571319 6.551172584007601 11.42838167990678 0.7250320653192288 -0.2719995745355961 -1.9061516061983301
Ni 3.970290911717248 4.769999945122551 2.4902075878277636 1.6090251546881194 0.3327040915045044 0.20717126520630127
Ni 5.272896133034802 0.128748517687778 0.8711574779770003 -0.254164089016072 0.710626174306544 1.0822367130682589
Ni 8.081095712293553 5.170140791316731 7.368532445100385 0.6059375384472017 2.090585834818432 -0.564705271270292
Ni 3.563231975550319 6.843468812682663 5.73110921832867 -2.5408330495474436 0.8952840889016775 0.2754227412845321
Ni 4.6663579056242614 5.100913709413185 5.000328006326088 1.1890575647792554 -1.7628421726429964 -1.5104773416191921
Ni 0.37673202479640255 4.338612238610866 11.589386600280582 0.5312907003655882 1.1013685488017033 0.6501893091767255
Ni 1.1105797332889076 6.371486973420334 3.618876879476657 -0.10782486749547882 1.5979293018852738 1.1350458864494903
Ni 2.3820674043819055 6.059858885849459 1.50130588107291 -1.171351405748744 -1.3097281778891507 0.046400184531094284
Ni 8.200236490075252 3.3867514079811345 1.3147714537769732 -0.2827583557139969 0.40630346215821 -1.3939788576091154
Ni 2.1962949829908447 4.533704223129436 4.3543899172376355 1.4354255547896764 -0.535615295882871 0.812799242832884
Ni 1.9074716539549732 6.343833086399758 9.908676819894328 0.8803066416562388 -0.23968517867360659 0.34646052185864845
Ni 0.587140789824732 2.4223013161593365 13.102885499475022 -0.3249277899931952 -0.718968375623652 0.1432076178701469
Ni 4.1455430334034205 3.049547631312071 8.427784384280395 0.434779972331348 -0.27597861378800215 1.26882141237246
Ni 4.961655975742772 4.665397316362357 10.015365035725079 -0.5457120179972408 0.950118263132738 -0.6142517147398519
P 0.7438461496079937 4.6516535007689646 0.4805578693553832 -0.612938395245067 0.3636655728830253 -0.12460645782919184
P 2.7976700431186527 4.554763295409634 11.10838630567861 0.2628546748115344 1.1489825511352407 -0.2924136194155738
P 8.928695662265884 8.129005101731003 2.802484073150424 3.2850745979155875 0.8538667022971551 -1.7867482898366325
P 1.9152302595318884 8.916614405010403 9.664330620971644 0.37470923229169656 -1.6069484746647487 -0.14769830665164885
P 6.733435160018629 1.7899195430295003 1.384235912065431 -0.7593550069708148 0.4208289094678946 -0.8747659143436677
P 8.969622306684112 2.1138967444769654 5.587489116308284 0.19196267578666296 1.5640416479988937 0.5838869864050654
P 2.0620803429454257 3.0005298696493474 8.51218046373033 -0.7472389404335712 -0.43944498190718506 -0.16579167381824994
P 7.838269830606534 8.03300159415189 12.438183592256209 -0.19395296674381438 -0.12717807521111 -0.4294529036914797
Ni 7.42480080840344 0.5028638603890139 10.990613443951602 -1.1468369655471475 -0.16967146848863038 0.38277221180548915
Ni 5.595460159895042 1.3027622407161341 7.906444882539591 -0.24035058017174732 1.7848945244573455 0.6255473422583292
Ni 5.213256470879873 8.421208966053959 12.07399557011934 0.8580429451620321 -0.14597283932010988 0.5492740243168863
Ni 9.08154019213111 4.409742026167797 4.973439819784473 -0.9819775737351798 0.780729615991849 -1.4464949252299606
Ni 0.3884844649583866 0.3000548342519769 11.25199255304618 1.520878225237542 -0.42389083622267 2.6866539366707216
Ni 3.1585006210564637 0.7441749667014915 7.9651285736502215 -1.052637145034271 0.23419870163773857 0.6480079852546904
Ni 8.77557403934434 0.21352606191191134 4.708964657607298 0.006193530405221592 -1.078821773849439 -0.882418288682603
Ni 2.7979933183510237 8.20790273130006 1.0958577792067112 0.9246381165837624 0.5798164158801176 -1.077042313351513
Ni 0.15130758704617941 6.940220471513834 11.207314068645402 -0.5067058119373725 0.7614936505803724 1.7380749930006454
Ni 2.5173811802173875 8.473690390920662 11.753365652792201 0.40792017182602647 -0.34978007315018467 0.27684764665651673
Ni 7.3948470490154214 0.34592112422083937 2.8443777723352017 -1.6580704901515446 0.3416240197019536 -0.810143807487908
Ni 7.269360840244032 4.316712650726503 10.692395736663018 0.24897560283659706 0.3735239537343438 1.1995492083391988
Ni 2.8765584362524987 3.213106426021608 6.306048677240182 0.4817326869318026 -0.10327889999600923 0.07581129070335976
Ni 0.5296245841247231 7.5193819049601185 0.7077760228235074 -0.2592337902294955 1.736084702043494 -1.102407788699495
Ni 6.829651105607585 7.199699645885588 8.291396411029918 1.991056888783158 -0.5789440405774933 -0.00091505561510165
Ni 1.8209262560315285 8.773329585588161 4.00208456899922 -1.8852184555900888 -0.28559505383184364 0.6542951038149828
Ni 6.652440859656762 6.632037574276517 11.095259483957287 -0.5881555318734322 0.7980678501599803 -1.7324992986850807
Ni 1.995975176143068 2.568126155264496 10.929171753287084 0.1631956309562996 -0.6638997167842824 -0.8706356942253779
Ni 0.3960777383450316 0.46176818920643303 6.837865067440383 1.1136075140700563 -0.48888960969155804 0.44641909923217316
Ni 2.652990521979609 1.1587015607362017 1.7976171881340253 0.701654566935553 1.1547053125516307 -0.4658023888547913
Ni 4.653223694754769 3.0183561896058313 1.0231439430111597 -0.072256740582882 -0.6236943482099905 -0.46070543394785823
Ni 7.949033161652206 2.2885392614392375 7.703411411026937 0.7771059031963327 -1.034030328566361 -0.2251815857407928
Ni 4.389255612870658 5.374487683916335 13.500314528291366 0.5883889880404769 -0.45195314167652484 0.3702931055018719
Ni 3.8111933152144375 8.962048429811409 3.251405304622415 2.7463184424108897 -0.4983571828623611 -0.30688713044140054
P 3.262715319537811 2.8848342822012083 2.860221953295487 -0.4717673481889746 -0.5827883540242479 0.9181579081760574
P 7.668384077777728 0.03051348736178141 7.962262507804368 0.26212268174151626 0.12929460733348055 1.4626903040429002
P 2.6539788205471444 8.968707899598261 6.06466367944602 -0.23878837789095003 -0.1876715046104768 0.07823429832255557
P 5.038854101233077 3.440387387249164 6.522560878655685 -0.8853681153395462 0.939389306751008 -0.15490639436431386
P 4.8050522167468275 0.9191777046369777 10.97812208897277 -0.35705603798630764 1.243066414895543 -0.07200091581833405
P 1.5655203495876553 0.47943010061616737 13.339526664145012 -0.39211611491423437 -0.6167235733191121 0.5453590055331963
P 7.442451636090921 4.5836179190075885 3.4657940495829975 -0.5480224112979724 0.8065136669344884 -0.6056161505520409
P 6.989127395954031 6.823084000172839 5.967993301244701 -0.005379776254674606 -0.20483567509458914 0.9999408430818197
Ni 8.11888196874017 0.5435328082648644 0.10013958326642503 0.4193731508579745 1.0034213454312526 0.30398744029610225
Ni 1.683026278337075 1.9869881246831413 4.457913730365229 0.6333758371638124 -0.322833883578644 -0.09210360010548009
Ni 9.102543845800044 7.9378478386121545 9.012511693584594 0.1511574688448429 -0.6216942870608261 -0.3710181565933546
Ni 8.342634611717273 2.6048409852266827 3.5000362858393035 -0.993544966857805 -0.9131568554170404 1.4924449095975134
Ni 6.485538475400984 5.162058910507445 1.424561264551447 -0.5815393121084953 -0.20862316716147944 0.23031196498882273
Ni 2.582304083312787 3.841885989419305 13.228012410916719 -0.49504277377714745 -1.241076638159024 1.0610024862798308
Ni 1.0266851922709088 3.4168806596381542 2.5925426717437516 1.3345565497867402 1.796488914163164 -1.2549099444976906
Ni 5.533677644771252 6.763333500795383 2.843269400109928 -1.3011136967472623 0.548441758223578 -0.23797359529913856
Ni 3.570002282559698 1.336235081919396 12.953425199470965 -1.0703160503712728 -0.6522456774851219 -0.35971070200033534
Ni 5.856999059318763 1.8293775942492394 12.726491528207328 2.9330226980120906 -0.46579544687625585 0.47146215824372995
Ni 5.4096046105870865 5.755970930985077 7.112181651334466 -0.709628586279965 -0.18778463314957336 -0.06238498999512482
Ni 0.36282010608217713 1.0154259777491714 9.115144190714362 -0.05950149779974268 2.3944187518145403 -0.7298464559887365
Ni 4.230702966045273 1.2820818622795715 5.714575999301672 0.3013219776487972 -0.34654511115265474 -0.22643268453907453
Ni 2.176214972842972 6.056700025007428 12.626981869822266 -1.586076773422062 1.0715694631623998 0.07046159635567222
Ni 6.25047119929088 2.4013807904072975 10.196755692252225 -1.0533513974924762 -0.5989706202110653 -0.9048951296288803
Ni 6.665334923210779 0.5911484790626169 6.169971971856303 1.1706088711557645 -0.9416385077965009 -2.020772670680036
Ni 0.4529363098580448 1.2041817677132605 2.1854070731645736 -1.0397075814567964 -2.0382795692155478 -0.704655815655722
Ni 4.428131768672128 3.334851878532699 11.983138604239581 0.807144615650268 1.1107044814906484 -1.337386563036368
Ni 5.826657369651899 2.9720539398950274 3.105392042238959 0.1497392483410776 -0.19815646330220066 0.8019587005739542
Ni 9.237820675894685 3.6390723450646623 9.2657525796151 0.4955595655125659 0.9750433085091919 -1.0400294835725894
Ni 9.237358854134152 7.2761496201238325 5.997030806259826 -0.7326265898370351 0.2747851077005332 -0.09684625699678805
Ni 5.500740516810205 8.090793969264697 4.960043294155 0.16783724349336904 -1.0790454598244708 -0.6808630841114983
Ni 7.196984133933667 7.719008979167099 1.115875905238673 -0.17367441900043637 -0.47529130218183313 -0.18485717509013325
Ni 6.472404264531492 3.9761191023351445 8.149763989866857 -1.2886893549409806 -1.5887795170652057 1.5036760024266425
P 8.869056000110955 2.378576031872294 10.868190037096054 -1.26877358985366 -1.191239917142555 1.3652120698890682
P 5.730330586840415 0.80602490780232 4.157277000694983 -0.5510390866371091 1.0385174178034373 -0.4914841098916116
P 8.480811682468046 5.801543502314241 9.67064464808162 -0.20739855072575897 0.29216653640177426 -1.370004606181705
P 4.807601472864956 6.856427531283153 9.02880107072203 -1.017514590299525 -1.0073479341791685 0.8706410935420167
P 1.3490829632973587 5.678920588458142 6.222639972714261 1.6874111480971907 0.6696150220015048 -0.09058896323316656
P 4.838996116145831 7.32672833933715 0.5532790946991033 0.39924809797332533 0.03188630718563541 0.5412030743832937
P 3.3020071149237586 6.554497700683421 3.5170562650019006 0.5151115195025645 0.9755009648719005 0.38552149241585215
P 6.428808290337398 4.319095651010841 12.947761417399816 -1.0434930166411576 -1.2589509473362834 -0.7691578519938496
