# total energy = -340895.4427370666 ev
CRYSTAL
PRIMVEC
9.01201365813922 0.00000000000000 0.00000000000000
0.00000000000000 9.01201365813922 0.00000000000000
0.00000000000000 0.00000000000000 13.18999293699385
PRIMCOORD
 96 1
Ni 6.361832879526322 1.8427134982255775 11.356267497600687 -0.09834161059539193 0.27912384428520315 0.10457113644487152
Ni 4.708651043579784 0.38481028575989346 5.966532609700392 -1.0868189331223024 -0.7045041205692061 0.47695866258192693
Ni 2.637816439973134 1.6181521382964674 4.618739984275637 0.8701584974786432 -0.8818274491761394 1.0041618231417029
Ni 3.4076406830048556 4.2017523032341435 4.631019754282836 0.34023433844327855 -0.22391274633069827 0.26656991887959247
Ni 4.66565472572836 4.652884702170308 2.368131025733844 1.327361831810514 0.5338571755411838 0.29126305075089837
Ni 7.324469157861171 6.059614996661617 2.5204755142585107 -0.1151928778247758 0.0032352191078460412 0.33710916255073553
Ni 4.9992344166255425 4.491254234623611 11.518886583061512 0.6473441264184465 -0.2020411430685875 -0.17148795287207885
Ni 5.595216913408267 7.4643986961716005 12.311447235715399 0.33094699960408164 1.4558005189016026 0.2553984756438053
Ni 1.7473213321267884 6.7408781800567965 0.30019919177295884 0.3911221264320812 -1.2366435420883348 0.008850765522410563
Ni 2.798825078567462 1.727323673499182 0.5620729924482964 -0.0798648919474431 -1.9770256075010726 -0.6338422352772697
Ni 0.7055460545858443 -0.020945722479622675 4.629120021773283 -0.6565059954233726 0.37317994013136374 0.14295899219445057
Ni 8.366663494043928 2.284094898227505 1.3663907183088437 0.6287529936798204 0.3529648986360695 -0.7785536913864526
Ni 6.7833518011076785 0.6785532708447868 4.802384097937545 0.5971921881544038 -0.1932780521639768 -0.7237002338816826
Ni 0.7487280199215987 7.497265510509085 2.371877319871517 0.14283120836733468 -0.8224174826489384 1.160596224114769
Ni 7.441237820699339 3.7862443948590108 3.8765916356311965 2.358407623827254 0.7227666663238198 -0.5466694968145036
Ni 7.569686053425465 3.8602600642184215 12.570274074524132 -0.6611692052269967 -0.6565216791526564 0.12386495167747702
Ni 7.924678289117236 8.920316561996607 6.644920960692594 0.47428188708071223 -0.046213779551901056 1.4249894470580167
Ni 6.897642160150178 0.5040230067412826 0.2925570040684928 -0.45764839228908927 0.9814628388822902 -0.5723537889544852
Ni 1.8132081650364007 6.6883201155609875 9.128002926080656 0.9200831502232283 -0.5371754412811394 -0.16768503418622088
Ni 0.09485955608306527 4.744014185740545 1.4177393705523658 0.04840101701120697 -0.34269462705831305 -0.15113998534334616
Ni 6.533367550241896 1.986392034277821 6.97625305534745 -0.7208897610160812 0.47088134603959547 0.4002282024984075
Ni 3.268981838640569 4.0441231698157285 0.28456064422159094 0.12880635484315237 1.2240549067900466 -0.30559515110285435
Ni 5.914107021807479 5.414102472020702 4.582348571340018 -0.5582302050689095 1.0719605279532312 0.47213912970609656
Ni 5.086596878426362 3.0605700074454254 9.112847422469098 1.2273019529724345 -1.1317363624602832 0.3691168258055837
P 0.16543083376718423 5.3629052216090605 12.3554619111265 0.7951190519443017 0.3524270238547285 0.7858934195809755
P 3.848337169957798 6.052774878185567 12.817547511638143 -0.019846602412281946 0.08233109409974852 -0.45186623838967344
P 2.3662213800091076 8.664663754449093 1.2789913072514354 0.7799004352223342 -0.12196696332381575 1.8001432230862997
P 6.389860242451898 7.606626298001651 5.720011675738885 -0.5801604294830975 0.5216794025280693 -0.36564917897195737
P 4.6627618692977775 1.09990727257356 12.713280314346715 1.3940194810390636 -0.12657772262294975 -0.790209016237194
P 3.879473677645216 6.183485126376105 8.104182283638306 -0.4731107495907465 0.16391939649620157 1.0669245081912204
P 4.886638316177903 1.0327587577316064 3.8730039529364464 -1.6633967874604645 -0.3766169908373707 -0.5609699725975759
P 0.304956633859265 5.5438123866791695 3.5291676891307104 0.2577980862242334 0.30733733060494167 -0.06828721441217271
Ni 1.2157837460452872 1.1277093351540761 2.621353293158843 0.7513933289215768 -0.10662981874611313 -1.2721756735566734
Ni 2.048917386039125 6.383362580500342 4.997661820217018 -0.5922566985259993 0.7582404337503974 -0.943764295890252
Ni 5.791940162701651 5.548129141290537 9.215135581529513 0.7202215313044629 0.39552102683072526 0.2490545357036485
Ni 8.592342343684539 2.4607483927828633 10.260667066423311 0.31274950275944846 -0.32778428560538386 -0.13037318510964
Ni 2.300217390920064 4.982931683656935 7.0694138468287555 0.45625948236136266 0.7680296519266774 0.03766177621683191
Ni 0.7934555456244707 0.15691357952250157 9.149159529683255 -0.4163104527722507 -0.04273250587151996 0.5479851303021337
Ni 1.489055040576566 1.0715915252063049 11.68192833196967 1.3485562064999421 -0.3638460643249476 -1.9752286635016498
Ni 4.062048065268774 7.0698527319009346 1.6138218656643968 0.10158094346829603 -0.7712491873052395 -0.3467957937108802
Ni 5.504583090597165 7.793733728567836 8.001695860274237 0.10265155082465548 0.09913016793495832 -0.06977305492907984
Ni 5.494228286738164 2.892180529546901 4.852901842508483 -1.0759547367142888 0.21015888707971547 0.701772580570656
Ni 0.7308535917458462 7.497175390371061 7.016232150977818 0.25504392051786395 -0.6049435499650485 -0.15722450097452925
Ni 5.23092427947238 4.737065923098865 7.033484750201202 -0.26329664744495945 -1.1183422005415644 -0.40649372379214505
Ni 8.303137808750552 7.252282927303654 9.108995687769937 -0.8906887562215111 0.016008459613114364 0.25752477795818873
Ni 4.431892099706962 0.3273884374149095 10.456314281268684 0.4732459896170301 -0.18264499793016284 -0.3719656081082884
Ni 8.35280301681578 7.119283627607299 4.709038560173289 -0.9829350525524426 -0.2524435067805394 0.05408469765954556
Ni 7.228590343017049 6.257302531431861 7.123467004414389 0.7115435439144907 -1.1048940454564582 -0.49869605425901853
Ni 2.3449440154215555 5.307805769220965 2.4012510776591784 -0.968429659847416 0.13005102588353087 0.5076830882489772
Ni 2.33826611319395 5.309139547263726 11.44523409785834 -1.0947636418906757 -1.29857756058897 0.3347643164676428
Ni 1.055036455851229 3.2786066693815714 3.7026813980773 -0.5569585374453375 1.2618107853825817 0.22933340312563727
Ni 3.781017426853598 2.571082477766092 2.6970767391338146 -0.3782378142702454 -0.3720273145841593 0.012219424884327344
Ni 0.9952597682996684 3.271207806049771 8.2142396997978 -0.005799123180280336 0.5532708041811052 0.022034096981903988
Ni 3.738291469416247 2.7927149332094103 7.095016076840097 0.028390635327551105 0.3173417501158212 -1.8306406203442083
Ni 4.246010303017909 6.688139875284938 6.03332695239991 0.22632341265471992 1.2074496941331978 -0.6078347554699145
Ni 0.7417725476688782 7.178807978772391 11.274951195859922 0.05220573546927783 1.120896848642618 -0.000393893004308999
P 0.18835649567920215 5.527401509544933 7.932871110865031 0.6110404068914057 0.3421040446621657 0.11067364979818359
P 8.498292967642312 1.7054064559316564 7.999467189260896 -0.49153707461673407 -0.9582264940621692 0.2747365138507849
P 1.7670035702713094 3.1350633135363646 10.430224501310631 -0.16793340275160112 0.40366268210125317 -0.13514823790078018
P 3.8863408321626722 6.154078925338755 3.827960105549109 0.5060473524177671 0.7323833634779774 -0.9598673720997019
P 6.819165543958561 3.8141275655637497 10.297084614198956 -0.7048015972049668 0.5253447671947984 1.4432687049831787
P 6.150789540300865 7.61590867221816 10.223880026081767 0.4990500951643277 0.09597053926005408 -1.0148257306134523
P 2.3343729232312977 8.453755595430673 5.839553335224063 1.4553708875633518 -0.2808755368689872 -0.29609055404652873
P 6.814992981568033 4.060507010908558 1.6465724250238307 0.5430010468239809 0.00987766412502815 -0.019852001728920647
Ni 5.287790086565754 2.866198893754477 0.6607644568001576 0.12275834887685955 -0.1648838172919999 -1.0289079197381312
Ni 1.5032309382877986 1.0445374597713906 7.0332477342381985 -0.5556588447973075 1.179575593430749 -1.1223682909818218
Ni 6.70845295439563 0.6096393024989359 9.11559067947056 0.4827901816620396 0.23712950213128836 0.25246896070183616
Ni 2.811847438511983 1.8150736518935051 8.927752374584998 -0.09353930411074214 -0.8680586775268211 2.0865965111533806
Ni 6.403306167045134 2.0885161746870304 2.6826728374733806 -0.9371115664604249 -0.7108094939619436 -0.5278986439649037
Ni 4.101863142247939 6.611168265398329 10.536878981058324 -0.4859140720030018 1.4704570924725129 -0.4071161878674924
Ni 8.194470946320775 6.991520307930158 0.34588649694579043 -0.7684520841760765 -0.04102375071052935 -0.3020917659352862
Ni 7.552094602483109 3.9280754680817553 8.302230298960648 0.3206163071020349 -0.061478676130771535 -1.0013024993160369
Ni 3.3304077247179755 8.339618440622816 12.537405457783889 -0.1992332413061472 0.35365703960708766 -0.3510399136992148
Ni 0.10896696248939922 5.045493083473449 10.095119977678076 0.9028886407218127 -1.6578385766463963 -0.5286247234976508
Ni 8.635861358336506 2.354487738038336 5.738478193221457 0.6086245983610614 0.23819265328848008 0.13490552576235476
Ni 3.5914947765883607 2.5625481006951847 11.409897991738985 0.09210154322295105 0.04929498958038608 -0.13161657059843784
Ni 0.909240096555413 3.199598344375611 12.656181096095859 0.39452883812078504 0.6309240331892102 -0.17327512667948866
Ni 3.131007907325268 8.477547311869104 7.9737865547294735 0.087378683825985 -0.24904116596720977 0.07817927671490406
Ni 5.680028975302996 7.683588895874458 3.5481343733793183 -0.5674974893034485 0.33321754080581323 0.5281822366435935
Ni 3.048214536522285 8.399719560671265 3.4531928079706504 0.09329762041358126 -0.17363790933554613 0.6832380121015782
Ni 3.3333005811485577 4.484513248299388 9.419013468580651 -0.7566530346586194 -0.031038871583675572 -0.38075775247862165
Ni 7.337167085308804 5.934348004807751 11.23680604503835 -1.2204777309617496 0.4936332950241305 0.3145315343605357
Ni 0.5297216653003103 -0.10256392668276816 0.3406856637804043 -1.2662788484562646 0.5573028081586339 -0.02344820372061123
Ni 4.747709111399542 0.3156836338883051 1.7562080789373709 -0.19895247684093478 0.8788753085263509 -0.6317177327350991
Ni 5.8807535587246615 5.617323383265643 0.3949677265166195 0.49647384979671916 -0.70016512687422 0.8046627297686788
Ni 7.858521095793551 8.604265237945164 11.145689178287437 0.2116724955107645 0.4210677649515781 0.5613913764057106
Ni 0.2800429217024296 4.8956683540079435 5.7076796360516315 -1.118689299468338 -0.6823926333821474 0.12731331523739361
Ni 7.862125901314526 8.900958756348974 2.5970569039474745 0.016704200128558326 -0.6752110280320436 -0.28972578817076555
P 8.336959896551097 1.6937809581265137 3.600182357893909 0.8330330533812556 0.3669642982389551 0.6900028416292375
P 1.8133253212158325 3.224958151215667 1.6439346085838575 -0.7619361374344297 0.16301719639690634 0.3507457794975637
P 4.7606143151646325 1.0378144974747732 8.12350584363349 0.3762945745009455 0.3352677384666226 0.14165955665673668
P 8.531340022255847 1.405027023882649 12.252171616131253 -1.7870329109565868 0.8221302904258229 0.9343556009818424
P 6.351829544205617 7.827456684216553 1.3833008610077353 -0.2247810078682645 -2.0207184204033326 0.3173749173466018
P 1.8804918600853908 3.2114671665534202 5.836400932795971 -0.6068011719990775 -0.42985862377033063 1.0266900861512058
P 7.057992921736928 4.120328758529131 6.0252945444977986 -0.04985703273144317 -0.4018441408352757 0.08861127068150546
P 2.4590180861327955 8.43813777551105 10.389982254877232 -0.4939577682430848 -0.14057018024729984 -0.17039986201422266
