# total energy = -340858.468859708 ev
CRYSTAL
PRIMVEC
9.36408741819810 0.00000000000000 0.00000000000000
0.00000000000000 9.36408741819810 0.00000000000000
0.00000000000000 0.00000000000000 13.70528847299432
PRIMCOORD
 96 1
Ni 8.707206191265751 0.2803570362176521 4.521744652043922 0.15778011636768313 -0.4238759238243346 -0.3802748993049322
Ni 0.15565922767992996 5.591268595921504 11.692256316188352 0.9824295736709339 0.3121321808904237 -1.7810738651596745
Ni 1.5230969355605877 5.764466759620473 3.5912511891390557 -1.9081848345782753 1.4623426908954946 2.550210634107602
Ni 4.3544130892077 8.3041945904182 12.366912606178214 0.6032880166394965 -0.877695686395953 -0.3112839739575155
Ni 5.306516056998385 4.411693212874796 11.2656238044449 -0.1832576918134973 -2.3319162624049454 -0.634196790403211
Ni 5.921568056786219 2.1119013978890675 1.4990022018336295 -0.5376603513373579 -1.464939247978077 -0.09529871000401006
Ni 2.83815193757338 0.40837722302529184 1.8014509934469678 0.8956568988600639 0.4219344838272476 -1.5143463376562951
Ni 1.4044539460457763 3.6101085886879845 10.863346348062855 -0.19168679641745698 0.5442891695077852 -0.5765349169153685
Ni 3.4228736577212397 6.110853722930845 11.490843220231525 -1.61434142469471 -0.4640375836448847 -0.2620931140551615
Ni 7.83110215819505 1.6917909731382776 12.50510312849588 -1.5926505699848377 0.4342079018779619 -0.1679650273204849
Ni 7.111331567109337 5.730297204076706 10.445252947774692 1.1758148408367364 0.2526803053816939 -0.2021103057436261
Ni 7.498283757773943 1.0716730019749496 9.904099517864841 0.5652426318310007 0.452695162048872 -0.4223479172155823
Ni 8.870862349730656 8.033478818762857 13.47883620216504 0.14089825301067993 -0.361001652897617 0.25222162057772046
Ni 0.4639970939661858 1.4954447849656993 11.715185221012819 1.403081848351648 -0.9304565230377524 -1.331189175976404
Ni 0.054157200462424046 6.8850390268871635 9.628006887126672 0.11126937440065353 -0.5511866679585669 -0.3524177678833479
Ni 6.249077019555006 4.1789956367545855 0.4235479812978212 0.1702967607774551 1.4357454000229404 0.871313437018693
Ni 7.960326566664222 5.103867837891042 1.8842857120932206 0.4498762045428381 -1.4851360346409261 -0.527017526911531
Ni 3.9998138210982384 4.58912394415551 6.259781108056536 -1.4474061241903202 0.6620405520883565 -2.222962680621662
Ni 3.3387186027275844 8.605240641713518 7.1178283710655625 -0.2771916602594968 -0.4307464256919227 -0.20082064039792513
Ni 8.164632229271495 0.9049622781446344 6.8815490314497385 4.289343893169432 2.9254947650661616 -0.4161453879492962
Ni 4.377252098791491 8.303267545748747 1.1137795581432448 0.981284147212581 -0.9186024519126438 -0.4094396937943464
Ni 1.960989762607244 4.470677600479673 1.8893704116438552 -0.5773394150945348 2.099892456931338 -3.176285823844943
Ni 0.9184531191070645 3.738125029860596 13.511276210734586 -1.7946120088554254 -0.6117826843740689 -0.28899482354201195
Ni 5.516112429082839 6.321367775597181 2.74002940955997 3.2980614970935584 1.0568691808377475 -2.991618139057796
P 7.150773103955145 1.7714419020106524 5.108701579894795 0.3195289875751271 -0.3200601774882488 -0.626194746034341
P 1.2747613331980936 9.443307751073943 5.695753085030128 -0.44825769510280866 0.48962340253378905 1.08313917027787
P 8.172516791005629 7.554159268305503 4.494841628454651 -0.9199383971152478 -1.2823053057915077 0.8948089490374719
P 2.828947039491844 0.2880889633243909 12.550330735051334 -2.7670549036272925 -0.8350786230563747 1.7180766955018476
P 3.5061484884832934 6.519287130481557 5.5772983136754775 -0.7032558499844017 0.7932321193342339 0.8688413213291165
P 2.0728531527212093 5.518678189077082 9.839931171381085 -1.9531629419508623 0.06898346914824893 2.35207679651322
P 2.6104641483032425 4.751478494448154 13.187489472774965 2.563637706146785 0.7562159471212009 0.2497281647319054
P 0.4711962044901785 5.7515630469486965 7.475014936570679 -0.1248640823659527 0.003645310062071141 -0.2607376284685316
Ni 6.849755144922538 3.7864718139856928 5.729797161800454 -1.4292770186897772 -1.0128783770790943 1.7804341746931467
Ni 3.7206235501918363 5.171879205913621 3.654803378660691 -1.7660961608039198 -1.1093909048855475 1.2066320833279092
Ni 8.22636029453445 7.2259948194068 2.465801168657033 -0.23228348689289674 0.7739300765715122 -0.917029450998569
Ni 1.586267070309358 7.783073753047341 11.587067647694449 -0.5617605868196712 1.1236134762428327 -0.9635044546316567
Ni 0.1401710268387699 8.688665297876696 7.837574615523593 -0.6316696531059831 -0.6025933045653171 -1.112173095616375
Ni 5.995544348591035 6.81602570149457 5.714118869981619 -0.8344363614866855 -1.194567438853891 -0.39678189582101986
Ni 7.690228824788512 6.14001349162454 7.983604751955055 -0.15954877823233168 -1.032762517597531 -0.6426834877179836
Ni 6.173920852716342 9.045942695031243 4.552184491508467 -0.32377927821104885 0.45225447496702753 -0.7137999440488352
Ni 7.583262852473778 8.40031694932661 6.524553493331055 0.17427837113302241 -4.539356421910976 -0.5464427255156782
Ni 4.862068368652569 0.5922850936783342 8.691195474338171 1.8293856648911848 -0.702672466677106 -0.5353728408547619
Ni 8.223522976000671 2.9430484465350943 0.7464451309382703 0.8750340804033898 -0.8698206545232504 0.6403257861190843
Ni 5.825127318900423 0.6604509691458219 11.404171098498992 -1.2557915757716953 0.4982538245152774 -0.7492210038606064
Ni 4.171907022463921 0.8176196877420729 5.619278454661575 -0.03053930623943773 0.860190330522338 -0.2508224262373487
Ni 4.16900415531715 7.44600405686935 3.7895675813364105 -2.4889648999232423 3.7799301953825934 0.9575778047345768
Ni 8.88816718356044 3.741636562699432 7.201074173156148 0.2254440953735601 -1.7346631391056189 1.720690736085927
Ni 8.564319579031613 5.269471726570556 5.683213635364832 2.221153395327065 2.4528969505560916 -0.1798566365517483
Ni 1.8872288448165437 8.5119836936016 9.111248778154783 0.4831015422548712 1.4876675428135282 1.0187476913756779
Ni 3.911707121149946 4.733621179451726 9.253454621222563 2.319590908070373 -0.2661058347589805 0.23363717270731374
Ni 4.143955221066785 2.3923370924423093 10.40785090920168 0.3338739434428895 0.7037536155564267 -0.6643594300295204
Ni 6.810126326325325 2.232295471779512 7.518241437612374 -3.101994312220219 1.792801695119564 1.3720054386618177
Ni 4.156297088484348 6.179970053286711 0.5652406723667533 -0.29866499964192433 -2.5619865436966074 -0.30530487355594516
Ni 5.220319630914419 2.332013640314889 3.9697644640853706 -0.5048186222169887 -0.006275034375434354 0.12807179066997298
Ni 7.3396654784218205 8.070186042038157 11.32824333084454 0.4564579715254139 0.14659813160893465 0.4001680386844334
Ni 2.688916473966628 2.3383905839502157 12.324905309338163 0.6193584398387978 0.9560865649010308 0.8063164633220178
P 5.415645133541844 7.07359429420131 10.226022802397985 -0.16549111185869564 0.48153214088522234 0.6957551707319825
P 5.6247077526347935 2.6286866627149097 12.474978858782451 -0.013762858112047265 0.17848521012551843 0.005456909349513182
P 9.168762067602378 4.401654910999509 3.63612296036684 -0.4189836287290397 -0.3665711765655945 0.03959267469095762
P 5.5821667028032405 8.78944160830751 6.628960260512845 -2.2454336080306683 0.06356358368425828 1.8790040992492605
P 4.894074819967614 0.18434891917760005 2.669941086914314 1.085902077734988 1.7373715391757174 1.381675357651414
P 2.9066221458869004 1.3666979449626095 8.669362167759424 -1.417484139819907 0.4999718356476486 -0.042497764152894545
P 9.147767783269922 9.011632678173921 10.060983568198958 0.09932197223079024 0.3243377218176801 0.6178923968162325
P 1.1263686374726618 1.6773421860174131 1.8478837580727092 -1.164119406776679 0.5604927758508412 -0.19040433016060757
Ni 2.4589438473293543 6.635776379855216 8.167035990550774 -0.004436181394482683 -1.3509997829444282 -2.2252879863207284
Ni 0.7267093799752539 8.924799494135181 2.279450207556918 -1.2415592342223973 -0.9783631169110439 -0.45317158746465824
Ni 4.333980650129459 2.7495395768962956 7.4910097345493885 -0.3794045808848369 -1.919967171925184 1.133493711471022
Ni 1.5238273343910655 4.265604082691641 5.821142899639289 0.7642128492837484 0.4937477091148077 -0.3721841518769977
Ni 4.288574189501414 3.4964004733226837 0.7399867197410827 -3.946825643787984 0.22429866891520728 -0.04305157977383553
Ni 0.7535009709224384 7.463580449238671 5.627377454001067 -0.25268750447054544 -1.7084800529523478 0.44536880359078773
Ni 7.116472451185392 3.4929919454471205 9.416602309732406 -0.6751462362323791 0.7344885827464382 -0.591080161719395
Ni 1.9852614775892796 3.7572933171168565 8.454299041351469 -1.0630159171654336 -0.7947063898869152 -1.054732594110719
Ni 7.423839261590616 2.586604453174297 2.984107161304281 2.014532346197279 1.0009867678478308 2.030008330345691
Ni 4.495464340278072 1.135985555407288 13.610667572613762 -0.27872583751583613 -0.12303499957701391 0.1252489765091972
Ni 6.58909640331762 9.317857069895577 13.456208820960336 0.08850508412094436 -1.4788188341736468 1.5480900097656434
Ni 7.020350092276984 5.277796400420491 4.209784756685501 -0.6699304963593946 1.2000081502534883 -3.5255532190247667
Ni 2.649559213908952 2.7709646092569815 2.812722821367664 1.6444117617175293 -0.9826828273323206 -0.6459408183130165
Ni 1.9999724591621106 1.85813462473584 6.608306828967947 -0.02249663844061932 0.27968588743626027 0.5105766077466883
Ni 2.1977326245577937 0.7147935785421364 3.9156971588636207 -0.2107394421735338 0.30947494577323476 1.624148640593119
Ni 5.27165355897442 6.755262137251348 8.080597034598739 -1.218422648204934 -0.1016994713240313 -0.23458513844287987
Ni 6.98516921527563 8.180804008505282 8.981034585629438 0.31069339156136816 0.9058407813716013 -0.3419623768779788
Ni 0.2229851444923682 2.469497174021003 4.597356849947256 0.15780916983340562 0.6187334046602893 0.026817891523792523
Ni 5.459366058407245 6.269144259218009 12.287572565013171 3.5391209304068725 1.3119732651695857 2.2396936202230977
Ni 7.659879816973398 4.458532378901086 12.549453320046002 0.36707896943994844 -0.045482300702515216 -1.4140794850137324
Ni 3.2224540914556115 9.544533537708128 10.567010432815362 0.9825455304235079 0.23280773482748293 -0.8084851888385625
Ni 0.4098295930074345 1.6032816174244657 8.811596103089915 0.569458212574245 0.19852130284078712 0.312302645030017
Ni 2.135770457105583 7.337886301783477 13.78231223418483 -0.5048723582730595 0.29407275228555163 0.2766075056212527
Ni 7.192302832329114 9.395269981838666 2.3855013085160417 -0.43194121733097224 0.5075820438947388 -0.28815561547016827
P 6.437098533877651 7.293144691372919 0.904741285677977 0.03774507995925758 -0.07600463766108846 -0.6291396875952778
P 3.0161164218455974 2.7444455132580905 4.792643959815641 0.6221874246471607 0.494754038892135 2.676991730990609
P 2.4662103792838526 7.034368131369617 2.186363685838778 0.4928136273363126 0.7780752090881373 -0.5035351275188747
P 9.06248903776784 5.827936545171491 -0.0432873676109013 -0.39746143838654774 -0.10891810055965757 2.0487506439502003
P 8.575771858130006 3.3442434143940196 10.886837098141534 0.9674757805745788 -0.7406358332947567 0.6108915400183672
P 5.3829457397466 4.336405948810148 2.89385795811992 2.3039346895903545 -3.9867461341320047 -1.684944174613937
P 5.458635659576768 4.539100988355343 7.639752647149947 3.384991523417899 0.3899597306928639 1.5095579151287162
P 8.482880109433326 0.6195973278944233 0.7954520832370678 0.3055200748905448 0.6642375597396754 -0.6654560055278088
