# total energy = -340857.7718806552 ev
CRYSTAL
PRIMVEC
9.38261781388921 0.00000000000000 0.00000000000000

0.00000000000000 9.38261781388921 0.00000000000000

0.00000000000000 0.00000000000000 13.73240958016902

PRIMCOORD
 96 1
Ni 5.964623941635205 3.2244585701879465 1.7258480949620443 1.6081682060044629 -0.6193905786283139 0.9831772504702356
Ni 4.998692824982324 5.060580571783579 13.351170470426968 -0.2240770398227044 0.6374083553619733 -0.20462638729726051
Ni 2.1707530643104236 5.073735001895065 5.4712389862768065 -0.36153001459726125 -1.40932782926136 -0.3785628017098319
Ni 2.2630874057705737 0.9404854572646144 4.886403532052054 1.642189814365546 4.209100791946964 -0.34257584209226166
Ni 4.1590329782583835 3.553966723601117 3.850759565378961 0.957006505612139 1.2153553221335198 -1.3847061740579378
Ni 1.4334669600589653 7.117325447588538 6.118475416494753 0.15947910133666082 0.36761504444907656 1.8642110001004861
Ni 2.6402404922123637 4.653618908691154 8.542519753560985 1.320633769058061 -1.4239556064768637 -1.5566044749945578
Ni 5.042978780849808 8.799309804482682 7.319374491663271 1.0184959803761877 -1.0075088852370648 -0.24671791715067187
Ni 8.35531494905785 2.126382664883023 7.3652545542896295 0.849119417420157 1.1205602912388057 -0.08945407829777498
Ni 5.388784541326923 8.914753533506733 4.456235840432712 0.24625306169911138 -0.9540890748550279 1.8104680020510757
Ni 7.416452684667193 7.704893120107487 1.5854475409354676 0.7135700874262163 0.24320321912919407 0.5163651894040074
Ni 4.2697384853093245 0.6933200956498813 0.08038088642303691 0.23674563642930838 -1.57587592162966 -0.0825457812137159
Ni 6.631071281734226 2.8565567448659315 9.122000547825234 -1.0663380395601312 -0.3203172878043774 -0.6936412097127732
Ni 7.736118472041171 0.6135124871725017 12.569850802726 1.0441987844589307 2.4256861944692547 -1.2178379793460576
Ni 2.6176190007724265 1.7638383143068412 12.46342470763929 1.2251489111851739 -0.5057781579167806 0.2984636822643956
Ni 9.232383292824938 8.889964657362265 0.2452550606370595 -1.1630050906665776 -0.9976451050691076 0.1561225261596021
Ni 2.6689419199663114 4.4168297840666435 13.126535588859818 -2.353225565405683 1.1634771452069899 0.4463172835469862
Ni 5.897078476319524 4.798664796774932 10.391987590670581 1.5407569664393401 -0.4537675691774443 1.2337111989328882
Ni 7.051562679648877 6.4220922361756525 6.562814613991689 0.5082255910160085 0.6538197068404611 -0.4519130324672088
Ni 7.119436536586457 7.7519657134522255 8.780955527603874 0.12281902691146589 -0.43776810842539443 -0.5439474698976503
Ni 1.2015661792918615 7.636944202227758 1.9858845316316533 1.0759560222658695 -1.3190011185506447 -0.7663795179177639
Ni 8.150257837726524 2.7739990911205945 10.782701374573236 0.4688368048057409 1.4160834028176388 1.232111458545936
Ni 4.485838937754217 1.7218323345571116 5.052249745466898 0.11341264599590144 -1.9897289140003536 0.2717589192796997
Ni 6.864623403228591 2.6510492678817155 4.954378721261535 -0.7022772881212164 -2.3206075222603455 -1.922747048663166
P 4.014859673627079 3.4115104380214545 11.923672731792346 3.2539367388602023 -0.33109226693269433 0.6420412261482942
P 9.241287397087278 8.899544310103938 2.960047957114646 -1.8253958270055015 -1.1623173205709338 1.497604342311266
P 3.484019308136691 8.506131147069278 5.568615546525767 1.3076039324572966 -0.6225383802286762 2.3006372497860057
P 6.926698802385218 8.79971325704673 5.93056034782654 -0.846404332481839 0.34168572617782444 1.6670765503048965
P 3.2207055230805324 6.597500275358408 12.89445747661689 0.4040717446142138 0.03624201305116984 0.020726176803757854
P 9.080215997854843 6.775131994952308 7.688350626719783 -0.6399126098410657 3.3509768570353518 1.017928280798176
P 7.863074673067214 4.376672180017315 8.182181256422187 -0.5079096024374865 -0.22409169511072374 0.017302752944505683
P 0.6065571526206869 4.549115311985215 11.143561545259965 -1.0648378008655208 -0.08632273175764488 1.500173645700339
Ni 8.696617053006069 8.228461956827262 5.151892207906959 3.049452276457445 0.28037802840727843 0.9386364877453834
Ni 1.178785183349859 0.10269368973838931 6.525201575881187 1.4211281643303977 -0.7501383734685532 3.070812744411092
Ni 8.650595312851406 9.074182974629675 7.539655838585822 -1.0009196620553213 -0.41878976755067876 -0.10206945306894036
Ni 4.1474642105497805 0.2809174525134831 9.784122501132961 -0.1343170002487364 0.4954909170581595 -0.09013002131887703
Ni 7.759396746724905 4.543054140906741 5.0632217786854214 -0.647305302760711 1.040636521028969 0.24468134633661734
Ni 9.141024743612716 2.8882418450702736 2.7994757131474968 -0.1579176703868119 -0.028851634124369665 -0.3076792873253927
Ni 6.49836353601607 0.30221880963338754 0.7660832347066449 0.8087723810616781 1.1283263083374697 -0.00273411110171142
Ni 0.4906874527499443 2.5056186924694273 12.46610250675043 -1.1379185800115952 0.5537593137817496 -0.36259727951951104
Ni 1.658499664619502 2.6457480888424936 6.909008814844422 -1.1820867898883771 -0.5982694803789825 1.9664948831730777
Ni 0.9759423698119071 6.3601763415210915 12.555569520220516 0.6161846700965066 0.328106444831493 -1.3648832257947396
Ni 7.523433292464025 7.079973246252001 3.8419708673151742 -1.5940921875273706 -2.026360192070142 -1.0229357613150964
Ni 5.412062816010659 7.516837312172745 0.4044715163366557 -2.039860540549422 -0.3108923949460517 -0.7961282099351064
Ni 5.5753766608897735 5.802755019892444 8.360785015216907 -0.0689382177326103 0.022210988879400456 0.2202021302483304
Ni 6.826755157914786 8.090246614478977 11.807071187735657 -1.759800043382563 -2.092493593364106 0.1977440583551304
Ni 2.762336497234306 8.207820197736485 7.904333796442568 0.8848117286154439 -0.5688804856939041 0.3255366272217877
Ni 3.3272826783133183 1.1796014710957217 2.6194157720751012 0.3865620178652246 0.9506846771591692 -0.058294621975835084
Ni 5.225817853305244 7.551806328596075 10.097619217324128 -0.5841271274403295 -0.4601644738427237 0.3646125101773269
Ni 2.0153206183568773 8.92886499063061 13.381958592372639 0.8211995510814374 -0.3070709643174324 -0.030638293711147235
Ni 1.9074955749608764 8.388266702660944 4.310163493965057 -2.3488929994686 -3.032051564482494 -3.208269575840391
Ni 4.249640918049124 6.3050909926020235 6.415727068281478 -0.7726715215740628 0.7975741983530135 0.444145472706648
Ni 3.784826033795914 5.432601366305981 10.958256720854958 -0.8939591994426668 -0.06553947646370649 1.5628597118756502
Ni 7.633735346950919 0.9572521952169859 3.1048705388955335 -0.16278399734017773 -0.07369990078731178 -0.30052647833069535
Ni 6.0907357070620805 1.5431497617731362 6.742791988027722 0.027909067705442256 -3.217350712206053 1.4806201490484436
Ni 1.6483570548117161 6.209266317331979 9.932679364785725 -2.1721913636060655 -0.35496470267491764 1.1560263453558994
P 0.3546075942057779 3.4382884291328524 5.599128757770819 -1.5733474987808516 0.4633855518831826 -2.5170251484945685
P 5.302511370945247 4.902614819032529 5.183819379649728 0.30046091520008256 -0.4354253192248307 0.44608999802752847
P 5.014605744717759 9.156900132877077 11.903953284028217 -1.8551218933150242 0.5556493317156107 -0.28396754553074965
P 6.819211533228883 6.226671073292611 13.319531345049693 1.5567158037614415 -0.44194743661406466 -0.5505824587156647
P 2.0961049573439614 5.5882026993793605 2.6740986066918984 -0.3698917562983952 -0.3480543487083296 -0.2124703088217115
P 8.853616396126961 8.21758750283353 11.88082794601411 2.8447433567487073 -0.24516445662062294 -0.40072056875379375
P 7.570064902773643 2.127883883725988 0.37008797526208337 0.6362215341427236 1.214289856983483 0.5387265878183432
P 3.545015706249935 6.477909429280665 9.166809115502426 1.5061074946862707 1.9530588122728298 -2.033813305914078
Ni 8.079419073574087 6.466246835394377 10.520961992778638 0.8476127509676434 -0.5456040316644668 0.44814122412960244
Ni 0.9501401709484365 0.8583687865543985 1.8257513941760715 1.3674466156465417 1.437996400840646 -0.18314636304661364
Ni 3.6285866827142734 3.3855299694203818 6.192506147212045 1.1378095652375566 1.889285940791243 0.6118415626364624
Ni 0.009388247339195837 5.888849920536519 4.870597574159181 1.3086143759996818 0.6379302893037142 -0.9761244573885124
Ni 8.476538370627319 0.8154386189544679 9.827283481129998 0.5339042267290354 -1.4147934803616213 -0.045247816094205945
Ni 3.4378005330088883 1.1935815715708382 7.181144137126557 0.21981055123686657 -1.0424748597892886 0.6176723103856265
Ni 4.3059929203669425 5.095305640144926 2.0383840310937127 -0.1949137879951869 0.6726725778809061 -0.46470864156998026
Ni 3.5100373072088376 6.284346024715793 4.067127422430255 1.715429744797304 1.0127853031446559 -0.010768551370413711
Ni 6.051647721438364 3.696085234941112 6.969829758005395 -0.22291464408348707 2.6409446075590646 0.05620354377476128
Ni 2.95107723626615 2.767131014914027 10.32159450086215 -0.8276306514187618 -0.36020615357951513 -2.284394562674898
Ni 5.013554891527683 8.815823211755303 2.3232900344206 -0.08083831160430593 1.5739205976755022 -1.150007649965645
Ni 7.944506412680326 4.5696820101338425 12.284725246143331 1.0798296462886627 1.3540581101547777 0.2206073361065491
Ni 9.255314410651238 1.1056852083152051 5.1266238799945185 -1.4220519616962477 2.5488332941441008 -1.754533138556669
Ni 8.861572855994678 6.235997395354534 0.4818865572830588 -1.0723189397339146 1.1195537043511623 0.7479321098458538
Ni 6.240623025914422 3.096573490002818 12.613808366971586 -0.857829029379013 -0.911882873800623 0.07888761563583832
Ni 6.159144373212466 1.3957394540116874 10.862527748286151 -0.38182064652549724 -0.7424554030019987 0.23633040326876073
Ni 0.32836722709251687 4.217242738894373 0.41004197650583474 0.5361081763588896 -1.4518654455132542 0.7720583134700961
Ni 2.7752938923726527 8.073780120295199 11.282163451460313 1.3852641034439368 -1.6827438245285085 -0.3005167081386825
Ni 0.6497434656856985 3.597652191931415 9.243394733038091 -0.6411331125117281 -0.6682986171829265 -0.2378738364964806
Ni 1.699576765210147 0.4922581029643971 10.679859439474104 -1.0972622399428136 2.3237692078177785 0.02663765719218638
Ni 0.8973798347124122 8.282290034965346 9.324154677218976 -1.6038857765790249 -0.33187053985961557 -0.6680800734142172
Ni 0.5238709570119211 4.990623773701384 7.270431942597264 0.11323781098093402 -1.4980494002684845 -0.4073853823684791
Ni 4.075311879909749 2.9450066825699084 0.5930002082069311 -0.7347248671269604 0.12461185714583055 -0.12124011246012024
Ni 1.919843099944268 3.0054025931459663 3.8809847302585183 -1.0414340772296 0.5406202052966302 0.2807706358600067
P 1.0005998893076162 1.439828374906032 8.759025535093478 -0.3273762515336878 -0.9766998702760084 -0.4217326522290866
P 5.616144135094057 6.928321995259174 2.8238639515132493 -0.6014177961999772 -1.8883297475255607 -0.11026253040269396
P 1.910488630029039 2.5390114291076427 0.6492452486821894 -0.6496848587364812 0.014889772627638872 0.7439872662654929
P 4.112579637686369 2.9649635105635817 8.294951877643983 0.904086774794972 0.05847408497649285 0.19930728907719225
P 5.5387469211214135 1.4629752929410071 3.2914804854321438 0.00874560740311397 1.203400720874805 -1.3341870822624635
P 7.664097498049898 4.410224421157595 2.8580992472270785 -0.3339215088513733 0.451573389739603 -0.2125101609207114
P 6.521266505989064 0.47711831093308943 8.866124363874194 -0.7789622396787811 0.3653069651411902 -0.7454612797078581
P 3.1309326362711922 8.694346459506084 1.5098649252392593 -1.7536193684931478 0.1171155487687854 -0.5178584861200823
