# total energy = -381160.8274753848 ev
CRYSTAL
PRIMVEC
9.36200672064776 0.00000000000000 0.00000000000000
0.00000000000000 9.36200672064776 0.00000000000000
0.00000000000000 0.00000000000000 13.70224316181779
PRIMCOORD
 96 1
Ni 2.7350073178219105 4.763323548915288 8.020758934733653 1.3322554124573895 -1.057961899681294 1.4753041361521688
Ni 4.050725035867278 4.854294169432492 10.017079571232031 -0.8291802552940687 -1.9069036538730062 0.13203077531772098
Ni 4.0066767936594525 6.401178560505626 7.027360133166057 0.8479454517167139 0.859530585451152 -0.1761102821354386
Ni 8.888401643149104 7.120658148585039 7.854509353372897 1.5024398160266963 0.6073385325597863 -0.09604150170730556
Ni 1.4528149462900868 8.50209715468544 1.743267463867328 1.530780057732286 0.008043696240082922 0.07100178512985837
Ni 0.6501342671745058 3.603623674949287 5.972985644813384 -0.2791017327980161 -0.36813029352259824 -0.6498429815809001
Ni 5.492558348127656 4.651110534865766 4.754815357094146 0.035736534169661036 -0.8959530899442442 0.3175006442911887
Ni 7.036390724969174 5.135744181227151 6.444904749677969 1.4531993338333296 0.22907912102298608 1.1952063579894705
Ni 7.3643324627583215 3.585292865545903 8.10150624377563 -0.9257202939043476 0.7834462435920636 2.532446625255961
Ni 4.744449743114868 0.6198659628424926 10.332683120199563 1.0954388135808295 1.0901492830471162 -0.028217342974480437
Ni 7.485336401235719 8.188132893116546 0.5787002825423796 -0.30254325165040796 0.34749333399853705 0.7105870935384923
Ni 4.785249368947324 2.285612265226785 4.629261483289862 0.7670791150879499 -0.36278188472649137 -0.9878242623239439
Ni 7.5376232094675375 7.803541651905602 9.454657946192514 -1.0034272589685234 1.2507653262016976 1.7142935743103316
Ni 3.908469341850718 5.148982058906613 0.16552028102749505 -1.1750921037380988 -1.0053473588093718 -0.32886414893312393
Ni 4.758352323280356 7.981578936085459 5.125735259708685 -0.2414754378048099 0.7369727826208727 0.5232400621469698
Ni 3.2236853511405297 3.440565601722145 6.0017054732131605 0.3330162234282845 0.6602163543954243 -0.05926058543353021
Ni 1.2798799558409981 4.973715928753008 10.777608750726674 0.9576179139438926 -0.4568364379107552 -1.7453226757019944
Ni 4.0688217950995265 1.1829831849906265 6.546945943289914 -0.6979254389104238 -1.0307159194811475 0.7945410679536445
Ni 4.2960377012385145 6.10010578236291 3.590097447458986 -0.395716430670983 2.5103618775417798 -0.2773598104062449
Ni 6.16425425326791 3.703244789791684 10.20989759181948 -0.04419314957744647 -0.004586848039734036 -0.6896215470304188
Ni 3.517156179724743 8.990953066134125 2.9107125260965665 0.580927132445793 -0.12330959339463926 -0.3503518864932547
Ni 8.385146965172124 2.632774203069634 1.6871019761994404 1.0242411103900813 0.04041774169541426 -0.7790871952924195
Ni 4.2448743338281485 3.006973616682133 13.131955934012044 1.3974904703067998 -0.9565982144301268 -1.5046969874919893
Ni 2.819153035348784 8.83373688517854 10.563867581040338 -0.8787128148065575 -1.4327174118298938 -0.24595275684987317
P 1.9765911432722854 2.666318273596869 7.678257403898466 0.0076305199620642795 -0.2818864946320048 -0.5453168394413512
Ni 1.1920830556444004 3.0335149060889735 12.836001365011732 2.277889928787161 -0.6931408730375869 -0.19393471191136924
P 2.1723694304242636 5.042067940731614 4.345995242167186 1.0148498989831682 -0.13212642035532082 -0.18820115186170167
Ni 6.014022129419029 0.9454128992805747 8.21986635151987 1.5700325754750057 -0.4896480851241373 -1.2039974739185395
P 5.986975291642534 0.44167326934900114 5.8586409018051535 0.7536170760457731 -0.2339991840324228 0.21621100681106636
P 0.6720769388188634 4.5695487312282355 0.6231304946294998 0.5920394403088707 0.28819598178980044 1.1314093181381677
P 6.6799884863698695 3.0799410980355435 2.972907146172922 -0.607456031974257 -0.8362276490591533 0.8245386427569993
Ni 4.06451527195062 6.2352557131837765 11.721405767625724 -1.1033202732114353 1.25238563541394 -0.27158691247820965
Ni 8.435121357713117 0.131188865724558 7.203214197349556 -0.5050934731449301 -1.1161351655879166 0.44689269643448193
Ni 6.282224901527382 8.026591464998365 3.0830736255260294 -1.6101626107266722 0.7163615341284244 -0.3731388024807831
Ni 4.067894956421827 4.054554096667066 2.8099735876368235 0.3068845593382392 -0.6484463583436898 -0.303129206060865
Ni 1.0018845245723083 7.256856624172595 10.393055893743798 -1.077670433853815 0.43306067564739614 0.2595310097549401
Ni 1.5129190302378537 8.546650945262922 8.420686079358124 -0.4316612241967082 0.7883457377762101 -0.6513313932009686
Ni 6.946159702992761 6.742657760193289 4.906417142544515 0.3701660930057044 0.49697212958937637 -0.8168695562475158
Ni 8.710514151078772 6.8245285100567195 12.04880731761989 0.9115190627033013 -0.32143417501764 -0.5537490293691044
Ni 0.6878809425746618 0.11222518465842146 3.678381172011547 0.7335550151885754 0.2787029546977006 0.5545892658822127
Ni 7.392502741356271 5.842772300202121 -0.02949874736931754 1.724077907390605 -2.2031083648998964 1.6760507287790487
Ni 5.826341978188362 0.7091205275049265 0.10354754051337706 2.4755200872722463 0.5624861521317862 0.6514468357329103
Ni 1.0474494118890967 1.0451838062324987 0.4505437708350617 0.778520267045356 1.4874220024616254 -0.27759943722087677
Ni 0.34486356516229194 8.632828218275257 12.952210083582893 -0.5416108513446737 0.3626160485725884 -0.8637780478735962
Ni 7.3723650646317145 8.672869521553233 12.035091041390627 -0.3533595629713269 2.2040918118590875 -1.3620508985522672
Ni 2.5171346945146786 7.859601348896135 13.231968380740579 0.8107865832782294 0.7883429095627326 -0.3554902361610845
Ni 6.085126571410196 1.896330658586272 11.620119151765524 0.11482649562429258 -0.2611276648180986 1.4128983202214376
Ni 2.4247223249432754 0.8366413589474385 12.130308268212925 -0.8130861779456836 2.15835600038487 0.2592520450619406
Ni 1.5810838020795501 5.764777421172705 6.359717976989882 0.7686559726567666 1.2337258542209075 -0.7397891690237453
Ni 8.97410145381232 4.510951930382585 12.45590107848455 -2.3144258189296654 0.7721326183514573 -0.7009079185775156
Ni 5.049192427940999 1.981215974653936 2.1716682161115397 -0.5298845640466809 -0.8422620281786913 -0.7555569733809633
Ni 7.312560564903003 0.8735070695034378 2.9674266273655974 -0.4757067924526968 0.1788724182616081 -0.6100716152202331
Ni 7.69628113947732 0.95621665518022 10.051760189390304 -2.6996662897699895 0.00839233782875329 -1.1781663717880484
Ni 8.279272029756969 5.557203005395465 9.339188826162147 0.31257029686910687 -1.2167941114625755 0.4276952975704247
Ni 8.575148894100462 2.163428713886862 11.801399435116643 -0.33363123130446415 -0.37963932260346234 0.6661257779013238
Ni 3.634920863833615 0.6725206979433377 0.3313083154507699 -1.3076484125419867 0.24018037314247023 2.2618315897727177
P 3.4655621599994864 2.9940727712491078 11.034142717502863 0.00612462484049913 -0.8302475202163184 -0.19591394712492713
Ni 4.10286205198957 8.871681098923135 8.556762848856689 0.04092270635629081 -0.7846258657224616 -2.170443270566707
P 8.968034873376471 6.345577601850519 5.983755697488386 -1.7082435114615098 -0.5221956800428555 -2.082026118173879
Ni 0.3620025910942509 0.3883070217279021 10.356361507913068 -0.30204394341648627 -2.826828424141499 2.082003749576376
P 9.337965211867447 3.439339178825391 10.206417733875028 -0.6703536999397423 -0.21470999678550765 -0.8895641556987647
P 3.6783699376033323 7.182503565806059 1.166807509563064 -1.5900704679624873 1.4414190533689497 1.259303959800328
P 1.9673789285363659 1.3332808428874254 2.28040979802277 1.0952889182665264 -0.9923697156027812 1.3787597266665157
Ni 8.993246757811258 2.0970614473594913 4.266480909426755 -0.12008388736848996 0.557145456645163 -0.06291026637097553
Ni 0.2266092480954029 6.8591492113711805 1.0386435082502696 -1.0392219000696297 -2.7322046287173265 -1.6372165295206706
Ni 6.912531374403917 5.803723369649763 10.935308011235483 -0.9588088489282003 -0.6442292349385486 1.347474286289673
Ni 1.610536675615325 1.2917135324936428 5.7026408455387925 0.005257134633881269 0.008737894093630112 0.9897011676316827
Ni 6.343340082214457 3.995751331670816 1.0634846572139776 -0.7910775348850764 -0.6081229761342947 -0.7672135837832851
Ni 9.28007992354205 6.221306322984061 3.729750503572512 0.34741645801401455 1.8472738580255152 1.705921291086236
Ni 2.1343971306591323 2.854185664964445 3.800673322630877 0.8527642132615959 -1.0732036563317129 0.7214672307861059
Ni 1.9325709870849956 1.472840278932497 9.539282998469876 3.726474132445982 1.8352374956862718 -0.38933083885961334
Ni 2.1294539910447363 5.8524245292597765 2.216844580144242 0.94975882291079 0.44271696779023756 -1.182482482664899
Ni 2.2021312501859382 7.261238043376265 4.270989651923522 0.5453818883513316 0.38074695384534424 -0.15596980263182172
Ni 0.4984500960638963 4.504276819501782 8.194572081424845 -0.3563973213563862 -0.8352521725197615 -0.12860555168625593
Ni 5.416800988734304 6.133799644999672 1.293174941762217 1.3025326885819761 1.6348547141567131 1.0472121173639577
Ni 6.005175032950083 6.910668335041673 12.583126070510746 -1.950647631728176 1.8814695300706177 1.4831609131924262
Ni 4.602259583146226 8.901330574602664 12.288678784612554 -0.6200914613500804 -0.7940451021538325 0.8432665581838058
Ni 4.353136580988893 2.3411383278271285 8.862241387420871 -1.2466446191651046 1.7174244066298292 -0.33884208608144223
Ni 7.2725754336661 6.007712136805198 2.473282118249922 1.012511994878611 -0.7930161466686858 0.31945545402471437
Ni 9.3161610979244 1.835468252084024 8.493417638139029 -0.25629784752962315 1.3536840146448104 -0.33419738822057926
Ni 3.0271300174203795 6.977943716233051 9.353740193402023 0.5869244876798085 -2.5759977703740344 -0.6453283815399983
Ni 0.77418647508078 8.21400948003736 5.834442922711728 -0.11179619343840101 0.6298541971637992 0.8097673979850958
Ni 0.5878029617982072 4.30988410936293 3.0106566301751316 -0.9361414892376717 -2.197253963001648 -1.632078436963157
Ni 7.987664240534999 9.03144374574068 4.869599178223428 -0.8653590192074708 0.1933076198503316 0.6295307523861093
Ni 5.639738457744921 6.107080477462768 8.953100600056615 0.2567292786400869 0.38192374776226484 -0.5745240571329266
Ni 2.7695156750542265 2.9806289294190464 1.1210900215346948 -1.0252173582604214 0.3511676975263307 0.8145493927547715
Ni 8.5501897838505 8.079926817996874 2.624747218400348 0.005984499718209048 0.7691419111542497 0.7574055965539279
Ni 7.832105134791059 4.249985989565762 4.22457937538859 0.21650951188809167 0.41450656679429254 0.821350989057637
P 5.487203280212061 7.84920952129769 10.664620562510349 0.5374304947147389 -0.6970926585964833 -1.696856866891123
Ni 8.007062318718765 2.332487833501936 6.583393172139922 -0.04336114059445435 -1.291403154327718 -2.741975077840529
P 6.551429408368198 3.896523421115928 12.451296843517959 0.5526287997217322 0.4476547714114871 -0.09243578663391822
Ni 6.373766604462158 7.700503404564617 7.335414159813422 0.09206657621995758 0.8135415203155473 -1.059119410324505
P 2.8932907675578754 8.30774189257397 6.645382764266362 -0.006472495098221112 0.5247585556740252 -0.6198294659379454
P 5.123910604574508 4.44416337354717 6.9646721353289465 -1.1634897436124803 -0.42819074914960453 0.7426685474540694
P 8.37896804065413 0.987560654098775 13.723755536532572 -2.095362944492101 -0.7011161779335796 -0.1799743930765352
Ni 1.9623234448398248 5.7179580249386275 12.726739255519897 -1.1793614205374139 -0.20110037642187303 1.4324345904821523
