# total energy = -340859.81183769397 ev
CRYSTAL
PRIMVEC
9.35191280162953 0.00000000000000 0.00000000000000

0.00000000000000 9.35191280162953 0.00000000000000

0.00000000000000 0.00000000000000 13.68746969101716

PRIMCOORD
 96 1
Ni 8.945525419899191 4.496661523084945 12.735273049599291 1.5360528760954513 0.5736941050324635 1.345121212676464
Ni 6.871420793638093 6.992153987759539 5.828466488345651 0.9968478059787929 -0.3897265316361353 -1.6599345399434766
Ni 5.39081660878128 3.52906586624719 3.368021252043599 -2.227575496803325 2.032592803243416 3.3467918724197263
Ni 5.180819407077402 3.738427137881335 -0.1440746332544992 0.3923662832518275 -1.5468566515791746 -0.636504355490465
Ni 4.26028257539992 7.0694662507961 12.142715281004257 0.08445713930381585 -0.15565998470088677 0.4833445115036127
Ni 5.510895169007413 3.8974377110530583 10.545551660704264 -1.5121822401254408 -0.9897042529554761 -1.3180073871788076
Ni 4.847199270199907 0.9497615591468483 3.597012188624368 2.519183846708784 -0.9481004613717605 0.5795922156844535
Ni 6.035107288549127 8.053362291627167 13.576231649771149 0.2858128262696045 -0.8306874359672145 -1.4541187603238053
Ni 0.6654596695597371 5.7647996012612674 3.796123763840457 1.3974462473324254 1.2740278962740639 -0.2962448202362059
Ni 8.719798300882202 3.6261106652710664 1.5116992948842185 0.40415067748126526 -0.040215138766304934 0.4158139727518065
Ni 1.1360703657531572 2.427260908957316 12.029314921701605 -0.8169173787663156 0.2926930983292056 -1.2275323238156859
Ni 0.3628214845648861 -0.09630599791345087 12.06906335663378 1.223451725988409 -0.22418502615547845 0.23880097629644034
Ni 5.962947929459966 9.209782419611793 5.656401580110091 0.29577379413705834 -0.8776162393082692 -0.6561388418919409
Ni 2.3694567360011063 7.763499754695005 5.952748733370976 -0.4884026427528105 2.92264778253567 0.8860851960112288
Ni 1.8756570368531134 7.447825938461898 11.176215668345515 0.6238442435242934 -0.7801935409827209 0.748650218958801
Ni 7.008566594706336 5.211849053715277 11.637292089449328 -1.040428261672905 -0.15596568886676362 0.32841369165926665
Ni 6.833985086738934 8.25784186478483 9.278899601470306 0.29217450682157425 -0.6977560032120951 -0.12577733820884143
Ni 0.8263004120645019 4.6875808226968205 6.962747833182044 0.69071992230092 -0.44998264821371536 -0.4131220277419402
Ni 2.752969327614304 5.6936128411022855 5.1014974179822286 -0.34364979188273076 -1.5339096045002034 -0.6870962095054037
Ni 4.128317734017447 4.95641090776383 8.092086692108817 -0.25797163568762027 -0.5547587015805414 0.2270566912763186
Ni 2.741728328440487 9.22472677625053 1.858046449877893 0.9406779436554445 -1.3633670462605292 0.08698967591768246
Ni 3.3810437906039486 1.4436547774227435 8.889615009282997 4.114429688224624 -1.193453636964422 -1.997537354301179
Ni 6.503984140111244 7.994950244339596 3.525057636425312 0.22708368785951213 -0.02781496532973919 -0.14925305273327844
Ni 7.990218176467756 8.548003662926279 7.15006010003074 0.1874701872329481 -0.7990878067840625 1.431532133272541
P 7.347592137176564 1.0681006635940038 6.690366826828596 0.008063750844740952 1.9834538796249195 -0.37940355244357243
P 0.9361545260371115 8.788095319989012 7.55337536697718 -0.3401461496048464 -1.1611384697714842 0.9592793608067157
P 6.348078401985867 7.27815418470935 11.31727898568157 -0.10859414156133555 0.6983064763989264 -0.5147402522060748
P 1.2974469728608002 4.58747794819055 11.189068002093084 0.29965076059396134 -0.20434947948679003 1.2938665282665458
P 6.666548440143242 2.9136725970010526 12.079917186618083 -0.05770532513126836 -0.8263906083640735 1.6886103106116146
P 5.628701214425527 1.049565172443833 8.51405808988042 -1.5318066992245878 -0.857495300188678 0.18827828495654023
P 7.543486654392826 3.309810270881017 3.517502226082111 0.77598901598307 0.1165499060733025 0.609961314894614
P 5.652529888214949 -0.00727485295949441 1.8640831095839652 0.9843625290275886 3.1963838801463984 -0.6204982098701958
Ni 7.446638245537543 1.2853268938847047 9.695669465348 -3.4865192450507565 1.8241539841786005 -3.138062518697686
Ni 9.5552233742561 6.765257879643774 5.843769023244251 0.6449051779596506 2.3182369651456396 -0.2841724624527041
Ni 7.9230340349829795 7.217759531910256 1.6155597679495908 0.38869551926845963 0.036135312269976474 -0.05219185151220689
Ni 5.8588891958434415 4.860348059582924 5.510233053581866 0.46734479364124676 0.13505362130444482 0.002306536645989576
Ni 8.778752759111605 1.541737638766332 0.03906200453337473 -0.35395580179442915 0.25983568547955255 -0.8675963931784219
Ni 7.612195157662405 1.1790143492857428 3.056945771329432 -0.05791152760480348 -1.3605020660079084 0.3285319624046858
Ni 5.409080894460536 9.392967687346175 10.771518188688685 -2.0598590951585365 0.5645229800561568 -0.03475205876920467
Ni 8.541981031089392 2.8399701723015087 6.330838150757138 -0.8445022303631198 -0.8133106352516638 -1.1977327239557503
Ni 4.213691345879158 0.35255214912997057 13.109324311042647 -0.3890829845148654 -0.8647476108757173 -0.1135435151468109
Ni 6.311942610964545 2.6574956499391806 1.7651221036293776 1.3248802030392408 -1.8508777733266897 -3.3851211070172282
Ni 2.2109324622944735 3.453801672111683 0.20341813105597464 -0.9552339870927484 -0.6489140420087276 1.095497434732907
Ni 1.9707659899294192 0.8548349683699517 13.530597120928823 -0.11479409972446035 0.14206990472127792 0.19475772203329683
Ni 2.4442626864098944 5.9790238675463145 0.13354344426145814 0.7935457939199106 -3.139509021336225 -1.3702344628043241
Ni 3.701430970883315 5.533713836215494 10.218133712389227 -0.8021577039586378 1.5946534593474793 -0.01822629320003958
Ni 0.2708323295953903 8.447760509728154 9.816940394454884 -0.5542732773036906 0.32241479376335436 -2.063799053642891
Ni 1.2581408834036016 8.248592823035324 3.7458357231937294 1.0444744067178207 -0.30307058490878774 0.36486242140460384
Ni 6.128635768363889 3.1319368896114654 7.7697608603080415 -0.2689386762220852 -0.6057192517888084 -0.38877933723151753
Ni 6.420911098795923 1.0338820146946723 13.585115031730556 0.03765046336292226 1.0436447117276737 0.0710074415568132
Ni 2.563901706734887 0.7235668444903484 10.824270458355628 -0.9595313289165216 -1.1467294934350056 1.1611855209593356
Ni 1.5494623187310348 4.030618301098257 2.619329558651107 -0.5621953603642447 -0.717828605592254 -1.346589055471242
Ni 1.8065464013335562 2.4606659414439 5.888184997850012 0.20202160268456176 -0.8891193548518622 0.5901355384179385
Ni 6.873740068010062 4.975236308210497 1.3947938386678003 -1.3278667964713904 1.0420812238952957 -0.4369319856773443
Ni 8.55368027398993 3.524969728445084 8.386135145205872 -0.7007215135983222 0.06640748089095659 1.6682057788133335
Ni 0.1490152487815604 0.17626578746091606 5.721252419353713 0.0009919315996240981 1.0379656590650255 -1.4783660629069442
P 0.4127859490290728 5.853689532332091 1.5249892981503677 -0.1496214918162907 -1.4525187628265372 1.0425771896951075
P 8.072664639626135 8.452548689076735 13.423629942434548 1.2189931759964232 1.4651241102953736 0.34571310216966267
P 2.1348733555718 3.26777342288908 7.841661171412916 2.6032594343034647 2.498808882596858 0.49561767244401095
P 0.9359207282173565 2.0392032877280823 1.4873899327773799 0.9688441216770154 -0.42299840631538765 0.21163341474271297
P -0.06736650378418561 1.3043299806743855 10.245673225173801 4.132757539999535 0.08637878180656092 2.174210965139255
P 5.44862078173749 5.993107848208352 3.1816114447791564 0.5861644695853324 -0.9732178252646788 0.47067694333827326
P 2.537445145451419 7.945628256284095 13.529187787671342 0.18105862727964947 3.220547107656163 -0.6844019505026924
P 6.590367758554296 4.948985489008413 8.824722086431818 0.5234971724630985 -0.15243530711600198 0.8628902459520044
Ni 4.808229849603156 7.5345275219398165 1.6937969351611013 -1.5641480916697708 -2.524449208872781 -0.803789840245422
Ni 2.6811653412111696 3.185701036242309 10.083271648424352 -0.18687600529237494 0.7420478831509348 0.06725748759607772
Ni 4.123127422418888 0.8969868448892074 6.33926983532878 -2.1147873717653 1.579166933676106 -0.6317529568484087
Ni 0.36225195307596314 7.082558928702375 13.504550173425566 0.7185274314314916 0.24233084382656975 -0.02700429650298575
Ni 3.9497803669397924 2.022837440345237 1.1813588738222454 0.838284274477866 -0.9384747653565387 -0.7935907882252333
Ni 3.6633686858272125 4.1718695918813955 1.9371598913178454 1.405606928766347 1.7980236056401355 -0.4993300882985917
Ni 5.907481734701306 2.379294948256394 5.42033405112098 0.8322326689671473 -0.4874821878210701 -0.11368749692384293
Ni 7.536201514329261 0.1802796284304687 11.527942978767388 -0.2671029085649271 -1.5442284699277082 1.8679738095770282
Ni 8.558898641326858 6.452361581509356 8.004719252440236 -1.7790365230146714 -0.1757953219981811 -0.24570953049081554
Ni 4.034284250912014 7.81544963024455 3.763725932361377 -0.970315049795587 0.3083788844955786 1.991898667958163
Ni 2.9549519400569833 1.738492531959291 3.2498158799493435 -3.234702830331255 1.4428604138011667 -0.29586095453422595
Ni 0.31487703326338207 9.123585839424546 1.5006256949493457 -0.7268305519805482 0.3998479363408533 0.5427395656324782
Ni 8.602235405196632 6.779098710573266 11.540453032506838 0.2687705260753371 1.1371791307424093 -1.1189523233217373
Ni 0.12903114634018797 5.20634077708185 9.626151086430792 0.29739307490803624 0.8008474697876466 1.0108677744069685
Ni 0.4080379829054896 3.518675891137281 4.541844354539504 -1.796346217937713 0.7884825204643905 -0.9391049427413698
Ni 1.2802955648035785 1.6184700832099 8.52756692790586 -3.487482894515607 -2.9057368657129445 0.0550300922919504
Ni 2.5096419087261626 6.573235054322654 2.2094586008387385 -0.3573422017681588 0.5613260703854139 1.913266877086873
Ni 3.8788274046005657 3.74007307453241 6.209006106882844 0.08022098973528119 -1.1388639746440001 -0.47513112245488487
Ni 8.319555137287342 3.294005538265583 10.916632754645452 0.9531704196955004 -0.46384526512842056 -1.3780519019662139
Ni 7.850818564417077 5.555101660766675 3.485130579958844 -1.7360502492611327 -0.3238510119892487 0.8085198987312399
Ni 3.2625644074649403 4.290105825287859 12.107483819949747 0.6773121335354464 -0.1245835750110564 -0.11092947456273154
Ni 4.507088905846015 8.529281133520303 7.814969877118413 -0.5165305113372782 -0.2419544343237575 0.8603145148050281
Ni 1.6667727127712686 6.505779707366963 8.122951745081583 0.340203228095027 1.3775127416332922 0.47565511327915505
Ni 5.734471348082658 6.528841524307589 7.646627965364632 0.07053384435450433 0.18681404170618796 0.6037320461554506
P 2.1279061805431025 0.649901827441965 4.8674695411726585 1.1408905181557254 -1.8414623935500607 0.39434551846538535
P 8.578780807918816 8.535631082304848 3.494575076685664 -0.2964476802756314 0.35135024585078195 -0.5509475553645673
P 8.327831580106666 5.146628813916441 6.011604996516083 -2.285749534040896 -1.1083094988959106 -0.8209725226722958
P 4.987524721616816 5.677602366405468 0.4218011929588229 -0.9420174884024745 1.6843667048439122 -0.5630708209906625
P 2.972440016974652 3.609987967620767 4.225910555130829 0.4374788593197498 1.4333221352934284 0.38748221568664876
P 3.0646405251732065 7.682736635838862 9.34269741533375 0.5281220728296194 -0.5847418782061929 0.8301390196629123
P 4.292368988183086 6.981212249795008 5.781915472049886 2.61702177819488 -0.20567385472516836 1.2438570291176385
P 4.172402650910437 1.903703423310915 11.636265249424964 -0.03055087620366351 0.9771248736285687 -0.6267819859963787
