# total energy = -340854.0437836482 ev
CRYSTAL
PRIMVEC
9.40934548044039 0.00000000000000 0.00000000000000
0.00000000000000 9.40934548044039 0.00000000000000
0.00000000000000 0.00000000000000 13.77152822183677
PRIMCOORD
 96 1
Ni 6.050905416539806 2.379360002878757 5.795898981734773 0.3140638506954978 1.415884656543271 -1.5006726968239448
Ni 3.008478249076345 2.6791605676376977 9.87917100616319 0.12659340635223357 -2.885034857278902 0.9022934303399751
Ni 1.9051854482223611 5.342090014372466 8.313596122368297 0.8596753385591325 -1.022410999159878 0.3936225242564318
Ni 2.219655182539371 8.694263424736548 2.345856146531473 -2.056772485813413 0.6288380971944589 -0.08843926388001543
Ni 4.682937137495368 1.0423296516771219 4.0878995405212075 -1.0376483849349227 -1.1246043794011922 0.8000604551099769
Ni 1.2936532686726439 1.9306189089763448 11.236864279975165 -1.1593811207607452 -0.3696415879608021 0.08586687516714889
Ni 6.9564702320870175 8.580890221397759 5.542186331929249 1.2858161471582434 0.21622463365782119 -1.2864761493397456
Ni 0.7819316619286806 4.156615990349672 10.501327277661602 -1.1629469837351325 -0.3956598664014347 1.2791791014577003
Ni 0.3672843903333283 6.576417359976717 9.475045264651119 -3.52982664958914 0.3422894212000944 1.2028433057094379
Ni 6.197691205575004 2.354133547724695 0.35950192071082754 0.8015354969936067 -0.33737064374223835 -3.998621288303036
Ni 3.3936309864210736 7.82707932928386 12.705267912363304 -0.13424269536737526 -0.32899861762845917 -0.229246756949102
Ni 7.250549914811765 1.204800819579094 3.8756105931290525 -0.4661952534178358 -1.0904184775481027 0.47841827784658897
Ni 4.21154774909246 3.3534530813454135 4.6565665059344665 -0.6259124389072317 -0.21677047885896217 -0.6747032351576896
Ni 3.6464883267251045 7.0739647287333325 8.828265677042051 -0.7084299379861735 -0.2711940479151652 -0.9197915871247385
Ni 2.7004633257387036 0.9358459710775366 12.941407668604588 0.3683982024720042 0.4534585225774577 0.31192443575499185
Ni 1.5161372418609296 7.934327048734064 8.203203799668378 0.12051069049326342 1.4988677824047218 -1.3880660916691063
Ni 5.300246655151983 6.358525147368506 10.18952603371449 1.6426803808487194 -0.6079823367913724 0.402482545750223
Ni 5.425908463649744 8.708640904585636 9.15276389174071 2.4614224715286 1.229038218937251 -0.12155584392832613
Ni 1.3482180629428433 3.3018616402377217 13.26647138496485 1.6902956687338373 0.8329685186919074 0.5595139568773396
Ni 9.190634625311791 7.480693095197144 0.8789881193209347 0.09980688228700876 -0.12292392792044635 0.5843654687033807
Ni 9.226870014643492 0.5092968184212472 13.087716403825421 -0.07633271042446854 1.3733010175447897 0.8968462911824747
Ni 6.372789715072183 4.719078433372559 12.883291787361191 -0.2895481249423207 0.13300805162932577 0.053633469054739896
Ni 6.796859505202141 8.646595680681912 0.7041709492527393 1.9380944776535136 1.0063778569564152 0.6698317659980012
Ni 3.1444527001883738 6.916075912065985 3.3717655494620997 0.05926829874301406 -1.0949047954542306 -0.5861274456998099
P 9.693507683593658 6.7802896478629755 3.401815235094331 -1.5370322092895852 -1.9194879182959201 -1.946198337707571
P 0.49046589537021246 3.4369704315682608 1.629653467250573 0.2036604238395654 -0.704358081909645 0.012732617075320007
P 8.068306718610485 2.9298443491425537 4.838227092949157 1.7200669864589988 -0.6492246312706109 1.8931155989499784
P 7.952722319090718 8.53097364378034 2.668274895885466 -0.20919935137992357 1.212988621673556 -0.4359626797855395
P 0.3315467553759831 5.738101136367618 13.30949373517034 0.9348327977285772 -0.4086717052800704 1.561309079559079
P 3.649169990178632 2.8696151289108673 12.016485006661087 -0.5609211216375113 0.19755739626562108 -0.8063501447734306
P 7.409765449187701 2.7819482573441405 11.654072775402273 -1.0919431417227452 1.0668800281065303 -1.4178862603543323
P 5.5007786254031465 7.2115387685720265 13.688554862270108 -1.2873996895952795 -1.4804869659046889 -0.7298246016118657
Ni 0.6918588207301394 5.821307978190584 6.310321070623165 -0.9068229427792123 0.800584445934247 -0.5599903822931259
Ni 1.0190603403768626 8.091688942056157 4.6196320022357575 -1.279240550823255 0.8650291466718779 0.22016356370091114
Ni 1.133957857678709 2.80213130333648 8.85355047013791 -0.9603903344827073 -1.1499760253967615 -3.4027763582051462
Ni 8.627965176688983 8.802517944150006 11.23032290301765 -0.42168868636502854 0.11674608124450861 -2.3919407225876936
Ni 3.6965742725606403 4.43387176340808 6.8859979983974 -0.5849390818186636 0.6469345496848535 0.18904627347081635
Ni 5.789363250384525 2.100222360730155 2.3832178345136565 -1.9036843756047603 -0.43161314456759214 1.2402775392964962
Ni 7.564436269710815 6.34388420584679 8.22008698821106 0.9139855219659226 -1.4337371113436599 -0.2190885854691775
Ni 1.4261086245860082 5.3788523270494215 2.3087278103164737 0.16402866838055621 -0.8442798299396685 -0.006951748727484802
Ni 2.3269593580622816 4.826006235077431 4.689398535016552 0.5858505378893395 1.490804031559981 0.28587993206211415
Ni 5.896441601616613 5.068052237458292 7.555941512637676 -0.6077990171359725 -0.8568322126833825 0.486686174282336
Ni 3.4921280146018723 0.5367551703162802 8.496688811760626 -0.31603280149641055 -0.6080101047055142 0.5136961272122765
Ni 4.228992675558566 4.285185286591784 9.702152049259468 2.078211629523795 2.875863218081963 -1.0837253817986432
Ni 8.949501329439673 0.9987643822391112 5.86994864856485 -1.8558762549825456 0.1444502320279964 -1.694218143716695
Ni 7.035621646020613 0.7883798863662331 12.192154663427141 0.3579155577731255 0.9147049166304505 0.25650430711347433
Ni 9.14116969627602 4.845530626888203 4.212187584583126 -1.4647962946423096 0.9854930430876061 -0.12028494763570251
Ni 1.9806672174300766 9.101114112691223 10.881297347531936 1.1061502864610626 0.6837820575305062 -2.1226048109271898
Ni 8.168619750463321 1.476533306857779 1.5746643115005345 -0.17455527894349293 0.06365768605996135 -0.2755782930257899
Ni 5.586488353116071 7.589926186537505 7.228261998242043 0.019913708204791512 -1.740585675237641 -0.10437778948714281
Ni 5.124545947545941 0.03596157737907843 13.110674265791253 -0.7031859159784147 1.7267947921011357 -1.5933092866147591
Ni 7.284837569635116 6.5539007963125355 3.354661241301319 1.4387348216685674 -1.5517093516857856 0.41703576097404954
Ni 5.417675286380141 2.2849560399691327 10.718462978895555 0.5009131165149955 -0.2330931272783857 -0.17649620471994765
Ni 2.9616102993850424 5.709948374778303 0.5624784389101535 -0.16313958090738356 0.8475726417583275 -0.13291986279089366
Ni 8.28469343594654 5.056168234153711 1.6058431185868827 1.5925122446347606 0.27648820643456895 -0.09500868956741702
Ni 8.49958406735589 3.299217614165998 13.279099667494602 -0.17693406358831462 0.5293921977912946 1.5102937648534764
P 9.376017549386885 4.262433489291329 7.658828941405899 -1.3788769689706704 0.6513421918342459 1.361942655109177
P 4.139509800319801 1.4443815734518002 0.9054133250854508 0.010413224913524 0.17593159046572926 0.5151045775240289
P 0.18375981198480135 0.27359271487434256 9.368454317513393 2.093883274622781 1.0668869700850658 0.8013205527693231
P 4.831999988129701 2.7680036073857965 8.147140096667838 -0.5391431065304715 -0.09381081260457393 -0.14467674621650567
P 8.831442272066301 8.355715175410493 6.640768814450475 0.5274769830464529 -1.078940044594858 -0.04313256952341604
P 4.262621676200348 8.248486274651192 10.660925772397395 -2.37454618126033 -0.2818343012378307 2.578219717726018
P 4.897093839959541 8.915627685816165 5.704869210103867 -1.8323041240895603 0.6477228499141038 -1.2339474833134103
P 1.8434977794457743 5.838865816802101 10.597562299195989 3.759375511159693 1.0278365410508234 1.5699695834475542
Ni 4.114471532074759 8.673487589980796 1.1514940547956898 0.20690695580132107 -0.7803735182040108 1.6239321537069387
Ni 5.777187557370965 8.124838066079938 3.158485797993957 -0.5709006014477265 3.2967111537132507 -2.385788586943369
Ni 0.8850627927440836 7.685459270901246 12.097337630252218 0.23399404182610023 -3.147844280674798 2.009273926011817
Ni 6.8637505420131175 3.8258586790570264 3.4072002034959237 -0.6543624667178085 1.5399763795195736 0.8597175046509774
Ni 7.609977501693531 6.139908415160571 5.795940382854757 -0.7116589864464324 0.1383045241415747 0.011568421563889755
Ni 1.1525319055989323 0.8535763000614885 7.3005210666327995 0.08591778300974236 -1.2384322585576413 2.0885199534283383
Ni 8.514761341568311 5.402686199076739 11.64491465947484 0.50032639077359 -1.8066416863264498 0.6877616110035445
Ni 5.753861789998 0.7436026932341371 7.267552602041676 -1.1122885381483165 0.28261900192265516 -0.18820269452359845
Ni 4.963203901098085 6.952443032234 4.712589748749568 -0.008122886217450527 -1.947720430779052 2.4859374259508282
Ni 1.038283633133203 3.1088571463473387 3.9982604701479563 0.7591950843541828 -3.325444774202518 -2.828169768660742
Ni 3.7001404144865595 5.418983185397827 11.966191114291085 -0.33814506001441763 -0.5008611802311373 -0.4805098702682951
Ni 4.029712148252383 3.6580618216298024 0.21077027903636797 0.19757513687743394 -0.3463674479242099 -0.8298716249341385
Ni 0.04112824896620838 0.5978067673403814 3.4479915978949873 1.073179745072313 -0.3190245371348828 0.028888400899576058
Ni 8.046260622218853 8.370760718786602 8.769365056388043 -0.19098874190916784 1.5053238224427106 0.29105504850515035
Ni 7.633604368120927 2.60326478723014 7.507245327125249 0.71902031190751 0.6259780020378446 -0.615086037715689
Ni 2.8846230349051716 2.2476856226378237 7.082270357962908 1.2171646074281168 0.5890893565416113 -0.9183332574116573
Ni 2.922843796127029 2.7426454213954212 2.3133967275292475 -0.5049227518950208 -0.8791049080386537 0.3239320017388292
Ni 2.405188656141681 8.800598437678007 5.930239970476512 3.5628640396600835 1.0918037879314035 2.2193312545166615
Ni 1.203003634597958 1.335120254075087 1.4092677780978544 -0.17447994562086724 0.20261012819818008 -0.7045838247672059
Ni 7.222180738277078 4.224052769196805 9.4068764387279 -0.4652732558241987 1.1467207516842575 0.9911821230525832
Ni 0.816850683831791 3.0343915864483284 6.1751812284526375 -0.07531172535912191 0.10075356247099422 0.8144768876456232
Ni 6.461557480056674 7.9979812707099045 11.722311230481827 -1.1469547220719343 -0.5235758482198338 0.3978553313908567
Ni 4.323603644068112 4.506907102798541 2.414149175814644 -0.3407997240284453 -2.0444712998485564 1.3299077381608193
Ni 8.468420315222264 2.3592616409954763 9.715027797574582 0.3832854039964818 -1.57134460941821 1.7174210641957195
P 2.386652245603262 1.3299451140770513 4.824621179427047 -0.10881088555783196 1.007772937531729 -0.1597611513534539
P 5.353098948550105 4.921943921295564 5.532780750216454 0.9872480781054999 0.09361875119842586 -0.9058186698844143
P 7.022354468934739 0.9646178675975257 8.851374088535099 0.5814238695765536 -0.286147583901204 1.527676479106298
P 6.3782565447792 4.250615351404905 1.3402097690295192 -1.0027711134417634 -0.4241353481333082 -0.9864821464737527
P 4.995336815813163 6.248567536428422 2.02305161401399 0.18397194427170252 4.954944394694905 -0.1351829477934575
P 2.7345910216893876 6.604325478584307 6.519950936990876 0.07588765246724996 -0.30673672090646525 0.3441244175263041
P 7.541994980810242 6.670755457468184 10.454324774330352 -0.8121479824021304 1.1297285880016348 -2.302989037847634
P 1.4048999599395122 8.869154928633805 0.1572903822966657 1.2515793374625606 -1.0688633770851463 1.184988022695572
