# total energy = -381179.3998070603 ev
CRYSTAL
PRIMVEC
9.10496414169923 0.00000000000000 0.00000000000000
0.00000000000000 9.10496414169923 0.00000000000000
0.00000000000000 0.00000000000000 13.32603536526544
PRIMCOORD
 96 1
Ni 5.548383150168029 6.715457475200912 9.096205332596357 2.0738032160434545 0.8884608953322569 0.8910209427499493
Ni 3.30132348371078 2.922729962808983 11.534856210510187 -0.6326726404492006 -1.9125544244008803 0.24748256323083828
Ni 1.35388998270978 8.654150210465982 2.8938817938946895 -0.2646966131162796 -0.08708814916875969 0.28229992802033965
Ni 4.4377687088106725 4.4647285081274335 10.184902303870867 1.304402137690547 0.11157405012526592 1.5063208962486574
Ni 8.757436925578894 1.2023742716560102 7.331012244707353 1.6329832081656135 -0.937133935057928 -0.4673465934134597
Ni 8.397344692151483 7.160945168875501 5.659487387636014 0.11611127587398713 -0.06466890093329508 -0.39442702243559813
Ni 2.1186614597821545 2.604766399235896 3.0355240816525813 0.07771082171891779 -1.4227009081341562 0.2426982544683175
Ni 0.7394706022525792 9.033854537013386 5.18052256119281 -0.22369265990009216 0.4402566791752031 0.289336780262463
Ni 1.9253175426962343 0.12084563878139284 10.7654648745478 0.9329288958376448 0.15641331792714352 0.38026641466449995
Ni 3.3828857539841812 6.662848991427781 9.610576633745096 0.609053458368364 0.006447298287240509 0.6738586277692071
Ni 5.806736512414933 4.31134627939047 3.6558644203994435 0.2098927779025224 -0.6856463644327547 -0.6308957510544361
Ni 8.552265659856543 0.28007143361139786 1.052201542837709 0.775147236808065 -0.3340485213475408 0.22722021343737642
Ni 4.842593631884569 8.802460974083242 8.150936132580588 -0.6941970822162431 0.9446703526442892 0.8892952183080942
Ni 6.895617403968471 1.833384718075724 2.147317513949544 -3.4568484574592016 -2.3474048449588474 0.9170320221017304
Ni 7.226892425360235 8.304128067563507 7.454077673787101 -0.254814063895245 -1.0653504788358812 0.8993194353133157
Ni 3.8593212213425496 4.46301677483748 12.879186891192724 0.39953554730675706 1.348670363480303 -0.7397380040708356
Ni 1.589599298722038 6.400352870420619 5.521150201922021 0.24389278899705094 0.43756756237881417 -1.3506603973271385
Ni 0.4895320480193708 7.860552416393653 7.655820920447391 0.1731601983681792 -0.4192484523546521 -0.14609573805121936
Ni 1.4795020703065473 4.201522199904227 12.806279799990754 -0.009924201092247424 -0.23868836197797605 0.46019481286002684
Ni 4.572412921001235 8.517229757198354 10.884332915081439 0.5494650572817699 -0.18191300486014475 0.5217372523491983
Ni 6.501345134527849 4.851234243013108 12.498449151196331 -1.0689615932259073 -1.709243927701566 -0.6709005735821477
Ni 2.8850536205013992 3.6667512262228312 8.662762596205166 -0.5143443023192368 0.18864878092208154 -0.7428305269532304
Ni 3.0542602772061205 6.784345635157214 12.097482001499845 -0.48238137625939503 0.361377548179797 -0.5078031587666094
Ni 7.178253706025505 7.945237689424788 10.678552527246865 -2.9181655783946003 -2.7366894039615577 0.7727393986975207
P 7.880974851337083 1.0594445419449305 11.419479923788765 -0.008802685893294518 1.5888453373061344 0.26434668597602856
Ni 1.2032210333366784 4.504307787975444 2.2269003649823294 1.09121294842494 1.2752309154432295 -1.0381880594884765
P 5.450750617890548 5.1517891148288015 5.624959541986227 -0.4236059579923995 -0.31613538851254586 1.134751238027207
Ni 0.29579388597890277 4.718037720147559 9.360007105485323 -0.15025346897333478 -0.5048543605509305 -0.9105698114161545
P 6.269760367347233 4.025432190182461 1.3591226056977375 0.3773204446622986 0.08266919416545762 -0.3698755583484791
P 1.8698045753087673 6.52463563322838 3.2541779785226046 0.1854107336007581 -0.15867974536381704 -0.2322354072637807
P 0.8494667655642483 6.31553102292486 12.859237914393324 -0.16014553127606612 0.8027945662116884 -0.45685289297098736
Ni 6.501481708992473 1.2235615236013333 7.010360895670466 0.009858895071950763 2.5523911866986877 0.7346842436970121
Ni 2.1172775052072987 1.4898544147250399 7.912413382597077 0.021814524771930174 -0.7466910383499011 0.21970487889693774
Ni 3.719933322747383 1.4276948233925428 9.853430615250046 1.3777449122487562 0.3759544175527073 -1.3290081091646853
Ni 8.771631564935472 5.855102082820415 3.4462462901089377 0.9741390515273675 -0.2826231156877133 1.623215073035256
Ni 8.248232691675094 5.658926521834625 11.125360440746153 0.9672654643359857 2.2161919375567316 1.1164874067210129
Ni 3.336823739548689 0.25463307383054773 2.1715704073774584 0.8595732657636294 0.352833772374844 -0.16432845900916215
Ni 2.950226955019931 2.5501275084220225 0.670751794632411 -2.4901902876899116 -0.9865855048208364 0.4109766992641632
Ni 6.0686499157063665 2.274611288454047 4.7479329599573035 0.8465742824008 -1.216193501764099 0.4522426478924857
Ni 6.325983521950743 0.20315815811379473 12.817661005376081 1.0095320863146808 0.5681500352857828 -0.7623577983528806
Ni 5.140198495264385 -0.041331985477350376 5.825942524126778 -1.2109703056919467 0.5199202537451174 -1.43260608306301
Ni 7.256957017506113 3.5177575902824496 7.35337312655201 -0.8780808376495136 0.31722527914261495 0.4958912378203718
Ni 8.208025169289813 8.155216376301901 3.386465825950189 -1.369460560752777 0.24767128220287668 -0.29523309114223995
Ni 2.494969634642578 8.54945222588529 6.637565416040171 1.3458573195115402 0.28072281334120686 0.23011296160413916
Ni -0.01633248497615841 8.444563037054124 11.735253743445716 0.8880297213321092 -1.416020410790187 2.8653798020521357
Ni 6.840996723083213 5.915112902576162 2.352431418396753 -0.5653300493384844 1.1508286032050439 -1.8295491870522427
Ni 4.934408091969072 6.225473820951852 0.333336385311155 1.313591774609615 0.9207413526325176 0.2704689968236826
Ni 6.9409692311879185 4.388820420689462 9.632884706796764 -0.18545829900924188 0.42792412575177924 0.29423267490218363
Ni 5.118464945460567 2.4505009889610316 0.3980526506214118 1.2872531367150863 -0.5314382816870461 -0.667753543312734
Ni 1.8979024951640606 2.330470244485228 5.536261711184442 -0.5463645639795752 -1.7895307376777763 0.2817314571113793
Ni 2.9426971495369996 4.358227740613706 6.337182628049905 -0.3945085264058109 1.0187394638455616 0.981728176728535
Ni 2.7128878503964944 6.325719477985804 1.0512200276852783 -1.1856369691334807 0.01316199130325475 0.9846602627736655
Ni 7.580237880235225 2.267026853185266 13.447568840618063 1.1766594482252186 1.4358387310676948 -1.6163779955087645
Ni 8.335822448320565 2.689806765875053 5.579810755470853 1.0187980849976388 -0.3990197840126031 -0.6038366900541149
Ni 3.795176747790851 5.465236616104991 4.217277430143242 -1.384380929508035 0.29043284154011917 0.14220231653408413
Ni 2.14899920085728 4.897724190771089 10.657923409613637 0.05574305919857497 -0.030728282321792238 0.6197790723159842
P 5.649703192990357 2.7012881258677695 9.022952252750674 -0.5052153434347751 0.0703024450699886 -0.49676464156426053
Ni 4.812865923418097 7.000834371514734 6.6751042733867 -1.1827388216500794 -1.4356844648780176 0.04954695769019209
P 5.140835842765963 6.318763285254293 11.256675877985614 0.29833769820949263 0.12485559772552046 0.7582268069036425
Ni 1.7936506538344732 8.606030474096823 0.38344191439594555 0.1883371632189337 -0.02585578472083934 -0.7221277471882402
P 3.323393917194004 0.8903243824011383 4.278976310281741 -0.19047812082133647 0.6814631795893424 0.4572077052072449
P 0.583203920822759 2.207152607894142 1.4744861454691265 0.4251198235337646 -0.14490043219153756 -0.7852411307089573
P 2.732554573302338 8.654924132432184 8.854258205536508 -0.11353605894764317 -0.6372597455992509 -0.2679909675968352
Ni 6.632256311352024 0.7696071236164921 9.576995704383366 -2.2458418992126807 1.0199270563957594 -0.7969378503205953
Ni 4.357754282469676 8.516774508982941 0.25858462834033297 -0.6502541009763898 -0.4525694351042851 0.44998084844150255
Ni 7.616721472218426 4.890503954074638 5.190490676117495 -0.4160404869403157 -0.4666102294680674 0.1670144904817575
Ni 4.06407365870672 4.387909924258636 1.8420317026792794 0.15232577812133122 0.22094389351036142 1.2001408191766105
Ni 6.2179440154689205 6.993859968854605 4.535169974994725 -0.19689996518728023 -1.0610821904778307 0.4050289663211605
Ni 0.9492471589220488 1.5962914474886098 12.381952953864994 -0.32518027232363356 0.40938210108353373 1.3384823672037078
Ni 5.060484532745561 4.791232528221669 8.01900884173961 -1.3232280121477986 -1.8126313282509816 -2.2283362862287492
Ni 4.568971244492713 2.2203274912481956 2.821654843526548 0.36025680431179247 -0.7352776543066369 -1.0018195481617715
Ni 8.464120500388269 1.389098879689825 3.695003019974934 0.8461500503791879 -0.41501615944085946 0.45016828186196023
Ni 3.5374698380098346 7.850163652117927 4.590859578689772 -0.880436996586516 0.2115997332913001 -0.2760125523497311
Ni 1.4520232880242159 2.4607987035936745 10.152613368944483 -0.5157339835779119 0.3008715203749399 0.19928697736221807
Ni 6.909229325609321 5.928096581679743 7.266434374854581 0.9321146274664657 0.12132007376843623 -0.09400390245198648
Ni 1.2089753707794995 7.1291415285467465 9.987024114559434 -1.3831779103388695 -0.7230656856214773 -0.09586049604475103
Ni 0.14192363115501685 7.015183795264553 1.5741381588301804 0.7431544859515523 -0.021622206255465987 -1.680865890779505
Ni 4.497242335672233 6.987477388874515 2.613541763836198 0.14584479838267783 0.003700074559406531 -1.3393557709475965
Ni 0.14187992732633717 5.198661471087728 7.047686696852183 0.18963557031538308 -0.07804995022589138 -0.4638779181385688
Ni 7.253615495604981 6.896382220970365 13.169228260721667 0.45839144110270086 1.7704320691751123 0.6621395395600661
Ni 0.8554651160505305 4.184823695362876 4.652012160969775 0.2652565993848077 0.26005114392446826 -0.12323528851327807
Ni 8.368891678688168 2.4214379428890624 9.20975607397397 -0.009454974765312749 0.4080261012762714 0.8777738479320559
Ni 8.581319600964203 3.4008498485643797 11.542065521249468 0.17529729931584007 -0.36403709728983114 -0.6621428819941758
Ni 3.8730150876621736 3.196634604094396 4.711286389112985 0.5207885152826838 -0.4687828116393539 -0.17571330380733607
Ni 8.23757077847012 3.4575919861334614 2.4773369607631994 0.5040051251767578 2.3501122165876818 1.3211958122091183
Ni 8.53635928721001 4.874561161570873 0.5093526448220239 -0.6267102522181788 -0.12225569820882815 -0.22663400191660324
Ni 6.137201191983262 2.593448928600728 11.38769722487792 -0.3229320997194051 -0.3178498001004913 -0.6047694862810294
Ni 8.696679498749868 9.002460620078503 9.547478320592415 2.4578524947891545 1.2188533079844492 -1.6587991407874527
P 6.5895176088890475 8.461926203989977 1.4998052302175384 -0.3044816063237014 -0.8970347530441971 0.06537826829549385
Ni 4.281645885816923 2.1137265691270772 6.774663416111809 -0.1619324479731598 0.12080173937112097 0.9647835784543966
P 0.9059503221469757 3.1766583124020715 7.4346886522926585 -0.534987175380569 0.5974840083632098 0.16492058406720628
Ni 2.39176486420844 6.316796612963709 7.685124337577098 -0.0347973101848433 -0.60481859435141 -0.14080337930402848
P 3.4193784509316907 0.90090708241663 12.375529401545515 -0.5781130600357657 -0.10278036309303588 -0.38457609778344737
P 8.097217753658278 6.695854487045227 8.935586478227188 0.5189118670852612 -0.2384965576821441 0.6984134342904359
P 7.214027110792663 -0.0794553815324696 5.2050294831249255 0.7588891230779897 0.7071605843554466 -0.21004087344461245
Ni 5.618281961162548 -0.195769479577641 3.423445638488191 0.13092340118615517 1.7269187192735098 -0.757727755780037
