# total energy = -381173.1139258218 ev
CRYSTAL
PRIMVEC
9.24476278983969 0.00000000000000 0.00000000000000
0.00000000000000 9.24476278983969 0.00000000000000
0.00000000000000 0.00000000000000 13.53064481787053
PRIMCOORD
 96 1
Ni 3.6473362960246756 2.2081116120586364 11.817678374199884 -0.7939903376564971 -0.36915282124984167 1.214112193755038
Ni 3.2776659630483778 4.150769103000874 10.60772750737305 0.06946452254972552 1.1409285704825125 0.07209733218688229
Ni 8.564903010708997 0.019408455174192592 2.327095408130813 0.5287512217731861 0.9519961968817411 -0.10668149791965498
Ni 7.110803503281362 1.7301666163214815 3.3799823761380114 -1.1387061089098969 -0.5203830523141489 -0.2899260771070297
Ni 0.9581457136151609 8.541356599673145 0.5061775770729968 1.5630743989896176 -0.814834528095358 0.8791468170201827
Ni 8.298450455202387 8.17887869221153 13.02703387829774 -1.9733206478456595 2.315587957558567 -0.7470129404656941
Ni 2.8119425438284575 2.823822064119416 7.123451263367012 0.7558102270423499 0.9771490419982848 0.2745729916897271
Ni 8.198292694243445 1.0173029512352707 7.373159704359239 -1.0367287013341309 2.0458175294638057 -0.3122771911087202
Ni 9.1824439258185 8.425482741831225 6.850971122467635 0.8051502109280585 -1.5691118634329493 -1.1229596447089176
Ni 6.267468499777803 1.7681533469639303 11.90934851836573 0.5903489399803252 -2.45708836292962 0.3956441826721509
Ni 5.172601988043592 6.428151723261961 2.239267387414712 1.0960983015416994 0.5373520760683197 1.4120195171609102
Ni 5.99796517252332 5.317994373736898 7.318009146968001 0.5944686185756537 1.9663766124276587 -1.380771357779906
Ni 5.430919152222542 2.125657572000227 1.5032409689518513 1.0709495701902136 -0.6651793548276544 -0.3446787473678774
Ni 2.049702600241074 1.5491264249924284 1.0722898763236675 0.19110469866174182 -0.5355636167093293 -0.01021293597725983
Ni 2.4878304022870563 3.140908185877838 4.549422692058248 0.017457019134182836 -1.415232110560937 -0.5853072637913598
Ni 8.924413349288592 4.982390991945177 9.938976152808502 0.7366123139576605 0.09064064240670841 0.8911574683278136
Ni 1.6324494727608374 0.30811223043824093 5.165770108280932 0.996928024397425 0.5551567083499084 0.034102341000347716
Ni 1.437976640978273 2.814540322195586 11.272448145325258 -1.4009776575244517 0.7847181683259519 0.019352950605315056
Ni 6.777243214084428 1.8080814778095708 9.1355535640537 0.9713697163123464 -0.5151799108466547 0.2638070114224747
Ni 0.5802198073938628 7.606202611321496 9.00216827637899 0.7197173379745347 -0.3024782027404274 -0.021912740912691294
Ni 3.7596878992122353 6.378682997132064 9.884731582178754 1.3381239554230244 0.977557076069981 1.5188341982243196
Ni 4.38845195644876 4.031363745741719 5.885167971765314 0.4237684517121927 -0.8203112349392131 -0.35433632506229945
Ni 3.1967188193381606 8.689910694268791 10.732453225665239 -1.857397833833395 2.118817318860299 -1.8131771734521225
Ni 6.147073952891307 8.961706722715615 1.6827927534584575 -0.4131906761963465 0.5454399952827768 -0.27458841830869485
P 0.05981176683147149 2.761262753762285 8.876806518401185 0.5507069001086708 -1.2407195119299212 0.9350914507066025
Ni 2.104228211662141 8.091469459253545 3.059847331584291 -0.4779634496973575 0.4027900496883127 0.2004141489881258
P 2.1244095290124614 8.216726751410892 7.118012569369213 -0.06556981548100965 1.2932407217570887 1.4296071483356863
Ni 7.707922737205863 7.206847344762112 1.5210741165325972 -0.8650869964930069 -1.1029124962500554 0.6375487375945794
P 7.643911999077775 0.13207438029941176 10.807562301621571 -0.43148047564446973 0.31986528786862334 -0.17478487845579574
P 7.602495461409688 5.146522511980718 11.765233758901381 -0.21357331207790314 -0.8863587613875895 0.6505832021810344
P 5.2135747770938075 7.426447442031699 8.487813706545408 0.24112165400981697 -0.15794029609463123 0.09295052148680766
Ni 3.5566266827212663 8.031138136748648 1.2240805624009206 0.7864989143754584 -0.4516723772113125 -1.1198221275212004
Ni 6.70490294460836 5.300272163310621 9.449382755852197 -1.4053292496249281 0.058575129330731376 1.616762889652009
Ni 4.9871428000615605 2.339165370536941 4.044959094021783 -0.4037277310112337 1.0086941637944178 -0.6527454999396758
Ni 5.878079087594802 7.519893505145321 13.11018035109529 -0.07329186671561572 -0.0877736052715585 0.5358999170028255
Ni 2.9881384794124037 6.288555803889612 7.811430800229742 -0.8024988893481405 0.4415959668119169 -1.4703105395923193
Ni 1.9438870444042595 7.180462791524451 5.351911559762943 0.2685365556876601 -1.1008417297639557 -0.36155855384235147
Ni 1.3626595578573115 4.495349149541639 8.32847744501175 0.12075365974200494 -0.5907765144360471 -0.21717697026876148
Ni 6.628874014746228 3.9838549093407587 2.340585366114133 0.6875397248007257 0.20969171763530983 1.3293595789668329
Ni 0.5966486754942999 2.7907905263765413 6.152830666731913 -0.4820329917810408 0.6012511887151258 0.435555674155108
Ni 4.408411399490144 6.304586222710252 5.873085066691163 0.2233854130723185 0.9819006977506574 -0.4667107596016737
Ni 7.660210516021712 3.253916167229334 13.41340210197406 0.2198660870651504 0.14956184222294888 -1.3523956348506903
Ni 8.715740561734112 3.647595149385101 4.0674201698964225 0.2696729832849485 -0.8103284126948883 -0.21500798764190068
Ni 1.7038652659496714 3.666435976118932 2.3392319328296223 0.5196497736925502 -0.31652619619306127 -0.012132007376843622
Ni 5.262590509842958 3.549277096237755 12.994466427651057 -0.6168750112953117 0.3788132271577412 0.5871548585230597
Ni 8.978060708236788 7.915624824658748 4.3470307963992365 0.46359715367335647 0.06268400929278237 0.05169485727113032
Ni 4.643773817457073 0.639074741268047 13.432953850972776 -0.7376620953784134 -1.06719550246442 -0.3515088829158333
Ni 3.851229541174155 1.3517599824308215 5.751079157636019 0.5705355047988239 -1.070422236931834 0.057808683478352045
Ni 1.8612388643255315 4.8095231709952735 5.987486233807521 -0.08461911880297686 1.1331908355186227 0.322180052044729
Ni 7.253764516339242 6.970976464837205 6.05798124861427 -0.970325334208232 1.3909256726050885 -0.5551901326910051
Ni 3.2407886039506097 5.416072063049563 3.674477070865294 0.0405277849107173 1.192757382228346 1.1650141506768064
Ni 2.6089460406775955 2.220009621875339 9.417180473338972 0.6982784513744684 0.33041195303621806 -0.6806018600303116
Ni 8.139680897632804 5.980862361209489 7.944951061442388 2.229839096026521 2.3318391293101066 0.15536765027144855
Ni 4.032149550585868 8.209543570659083 4.587010048944612 0.005182058421571721 0.8933027968055905 -0.8000830808177963
Ni 7.679291706590224 5.933168629551082 3.8097963629328975 -0.42117163751929404 -0.6916948846196798 -1.0122934511099018
Ni 8.970350576001255 4.878405899157086 1.6701958395686056 -0.6761371393907387 1.6276188585299063 0.1708156093954026
P 6.869413499921667 0.3144005181440072 5.400729454586626 0.46682131703760893 -0.07781366584536921 -0.2638679465673972
Ni 0.18070737986564855 1.1612716434462362 12.410429457667206 -0.7898565179937816 -0.2710672925293138 0.4480136974128026
P 0.41722539319161944 6.998331718176462 2.261742330433661 -0.4346917834929159 0.4091046790524309 0.5108709990586556
Ni 0.924688916780159 3.379515515612958 13.494071902798108 0.010937215737794067 0.7993258909367976 -0.15592866498124117
P 1.3354707102497567 1.532735460419768 3.2074797233215655 -0.14326881012538553 -0.008723495915926912 0.4412270135082723
P 3.171674756716989 3.375447819949128 0.35592521953770107 -0.030470657785031396 0.8582463194220897 -0.27792133933666974
P 4.905548522950279 2.383799085684604 8.358934316294677 -0.7897624156180786 -1.0621147455074031 -1.0703996112240148
Ni 7.4049163893020165 8.21419368638387 8.571771869523147 -0.8720683129068465 0.3453248655923085 0.6194286309551009
Ni 5.627250181342448 3.498172047079454 10.550290720123481 -0.6879081638837379 -0.6260803319436637 -0.9561071337263212
Ni 4.366763742750249 5.598850269798617 0.3462126716640197 -1.3854731341309494 -0.2174597916165029 -1.3805114192502999
Ni 2.0351328539542646 5.3242068543871115 12.466432382195272 0.9338118126632304 -0.11125137667852453 -0.5254278138269081
Ni 5.426241302209138 5.571079002130104 11.479318204119632 -0.14883319158704045 1.227334348872267 1.3379666039095537
Ni 3.824336525978515 0.6446595025192281 2.5429227176721976 0.07465840804583918 0.40090774506393534 1.0076040160540323
Ni 0.8881194082860399 5.477337106604566 3.84926595354007 -0.26540366648563324 0.7249914418892804 -0.02332067700381145
Ni 2.10442235168246 6.015742851526832 1.3853083024182598 0.24110391339800413 -0.3664973859048656 -0.23629183672134146
Ni 9.207034995058928 6.139132701583966 13.18902338677576 -0.30989403558852435 -1.2705124269216377 -0.12672427550314305
Ni 5.435393617452756 8.209256983010041 10.698328956950853 1.6029203273419619 -0.5677648840322223 -0.26373244943079743
Ni 8.806394706460289 1.2779960194724131 4.773422371978782 0.08983974377196785 -0.8826028938895831 0.03471657754557892
Ni 0.9680283651256933 7.424432083725529 11.352643689813954 1.0463582540040948 0.4137792017099648 0.7557955717543307
Ni 8.682570352548154 2.703630902016111 1.8437126428721475 0.8343749121211307 -2.628915958529305 0.9000951371370756
Ni 6.746938881388894 5.273406882403597 0.44630017242513176 -0.19826959184129722 1.4779351460171128 -1.1882792918523342
Ni 4.5402139837611095 4.390226950920249 8.430322375194894 -2.640013868214679 -0.39832867148284945 1.5182844963684368
Ni 8.013471394899605 2.9640373826042112 10.86574421675865 1.2345812602426673 0.09267515633823395 0.10076256133205873
Ni 1.1680018308173006 0.6079762834417792 10.263075351681882 -1.0674608403106647 -0.40110880533114796 -0.1848630886274042
Ni 1.324552645297522 1.207735821642622 7.681103680113203 -0.3935739304066834 -2.019947860785895 0.5860379713097972
Ni 3.742788472681596 0.2422580865934074 8.14513715668006 -1.8186826766513842 0.08882158692009864 0.22587115560864968
Ni 7.8878628017531085 7.185907956856259 10.962691271572028 -0.5627059814520761 -0.1410052109021894 -0.9700484263977617
Ni 3.596748953587226 7.397252480880846 12.30189963945107 0.1013873394002512 -1.7380271704818457 2.341149865188071
Ni 4.228489824468644 3.9399053066456493 2.2345451625395207 -0.6679769721774496 -0.2305392505082804 -0.5604254129480154
Ni 5.24541374042615 8.71880982300773 6.676250651038114 1.4033914091722668 -0.7162044397252697 -0.9205678031691307
Ni 7.069405455139019 4.409391344354613 5.532680879539836 -0.1683694618477552 0.4301293609332141 -0.8282142918363735
Ni 6.389924628784831 2.331510706878643 6.16331700125801 -0.6519736547706578 -1.1050832786491291 0.8275704876047877
P 1.7051965118032886 5.791834694758734 10.063105583895423 0.2881029078553619 0.3757644130290883 0.5199824744416205
Ni 6.497542913381753 7.9516978893866215 3.96583224412113 -0.7206102821024493 1.1176953109861847 -0.327066690713069
P 2.375330882893539 0.29681050782680407 12.776771676009462 0.9805917491312466 -0.46006188682658833 -1.2606249926045967
Ni 7.932875552178537 3.7987377775850035 7.645856172709829 -0.17140130669554351 -1.7127812514308631 0.07178700003531507
P 7.617259347716816 1.187868826229961 0.4883860309251767 -0.44133140029662055 -1.0768538514897905 0.46162254644548883
P 5.376439764615838 4.81334125806155 4.049735862997921 0.2619427045202263 0.31058746211112315 -0.3647392655631783
P 8.955041248684658 5.711664111129793 6.022043157424332 1.509165050565672 -0.8672896605712805 -1.7025629161369644
Ni 4.632199374340901 1.1634626522469809 10.108352226821522 1.2567799078268937 -0.3711590530465931 0.33634657335309814
