# total energy = -381174.22272916895 ev
CRYSTAL
PRIMVEC
9.18084586617437 0.00000000000000 0.00000000000000
0.00000000000000 9.18084586617437 0.00000000000000
0.00000000000000 0.00000000000000 13.43709593927056
PRIMCOORD
 96 1
Ni 0.8003071705911229 4.585107127381105 12.93207586863557 -1.0041422827576771 -0.252554578437107 -0.6799040626323387
Ni 8.776053007438101 7.944690708269928 3.7690245096682564 -0.2865201367492743 2.0873413597392054 2.0495703116380186
Ni 2.697405905802094 5.336357367197494 11.167247413219812 1.9720104136746686 0.3012337888103651 0.14805234755695793
Ni 7.124005732620677 0.5904715980341078 6.9241754456792455 0.38935834966343913 0.7601049977629619 -1.2432350792629234
Ni 3.6998716257975888 7.991999606028321 8.385499832463896 1.6690850960944932 -1.8281736468609546 0.1673101673453054
Ni 0.6251146011005785 7.167917717479671 5.868570990922332 -0.06994429039962148 0.36544194805715774 0.3184406396069548
Ni 3.7499072347211766 0.6390786673708128 10.106576967819956 -1.0592903886847305 -0.19564269574141147 1.040860464114317
Ni 0.010945404212605703 5.854781360719905 3.153551632694568 -0.06309230047479457 -0.05237388561602593 -0.2894583934419918
Ni 6.773398417174276 8.952462957065025 2.205834049707152 -0.13868633296102567 0.29474792397570526 0.8159509010879883
Ni 6.589772322847547 2.4967218002129745 5.3400223607905755 -0.17950336697738764 0.09854807017924319 2.1617238884158385
Ni 7.3884232688790705 4.175522059324589 3.8906973393019104 -1.2121339869827445 1.131152464932355 -0.2743130531601211
Ni 3.0581488748726486 1.0632888225860946 7.540132153219956 -1.2467880867215044 -0.9897639025488179 0.3132722080321379
Ni 1.176093873383181 1.316863780103432 9.685418525706728 0.38622546046141226 -0.6771002746349565 0.9045107497062681
Ni 4.915672656721048 8.65739057710097 6.290575907006707 -0.064286835003528 0.6892770192068065 1.1459337370065878
Ni 4.813847897350129 6.4866347025452376 6.165664993103815 -0.5340487227266996 -2.9898808446517156 -0.09406406626596057
Ni 7.03747626214273 5.194797907749274 6.025946293213242 -0.5889818844294695 0.3297591499435676 0.211719546698616
Ni 5.239288285885734 2.580662272210839 3.296885749611582 -0.2169697393539618 0.2685861779786729 -0.1387719506962965
Ni 3.93639775289821 7.777397338397338 4.384080576248343 -0.03837962821946293 -0.5368273139131012 -0.34237478182504905
Ni 7.776451711292911 1.0138040644029502 11.588554585032957 0.1420552494332586 0.4943485759236003 -2.95086512551015
Ni 3.002448684168171 3.902593879126348 2.870633774318391 -0.10348947334491855 0.11121358146205364 0.8315400137754968
Ni 3.688762802531985 1.3556712147676528 12.60478881928583 -0.7182412676496405 -0.5770982456180062 -0.4941991948299295
Ni 1.8375738041986824 0.7032592052244133 0.7841240939214702 0.3992100456465383 -2.068341164487619 -0.852476506817848
Ni 5.776992055323657 6.123082394698423 13.087570015647865 3.8261249487711004 -1.4478246997849775 -0.2812367768631479
Ni 3.379175505557252 2.897915575323406 10.858315628626206 0.5386471407306594 0.3823250969657416 -1.1787530975294536
P 3.1943099970645257 4.806319603897405 8.93295457809223 0.024328549443035523 -0.26225252245116126 0.07236035604028183
Ni 5.608532718050461 0.14744438152528735 11.815896194121256 0.06340623217078759 -0.23022943257734546 -0.8274673863680202
P 2.730282514160877 7.505038370630889 6.455436352775672 0.0012094469270688846 -0.11620743513221923 -1.1973917956765636
Ni 3.9306689051976016 2.3505994604647507 1.2868837285548127 -0.38037800054169973 -1.4689391131660894 -0.01946967868883744
P 2.1495297593573213 3.924334121682505 5.007549051719564 0.5769213537205096 0.7323954476628355 -1.8581550237143936
P 5.188876262289511 0.521039616454949 0.5271614043504074 0.08765739140866838 -0.01826794507125241 1.1773952979499789
P 7.091009773268132 7.573187788069383 6.142862526703169 -0.0794350034988761 -0.24715140514366468 -0.6825013910458697
Ni 7.2659232450501845 1.179600956430669 0.18907033581144259 0.9665057033518257 0.07061997631040741 2.6051394249349973
Ni 2.1952870941968 6.085229767984304 4.253633612403997 0.2762727479896532 -0.7794152680557995 0.46734736474440797
Ni 7.515908491908967 0.6996658222275891 9.229605145427657 1.2645572377794674 0.5071814660222104 1.312078166178566
Ni 8.403347396454256 6.3230871177076615 13.1188115153921 -1.1950842305893097 -0.9915204802286086 1.8720070991061375
Ni 3.971679742823595 2.932710980428066 8.553839818743329 0.1254207262003711 -1.0016382853889005 -0.26944775464801984
Ni 0.9243734466920023 2.6046610028028128 1.212133283076675 -0.21114979023807506 2.8881754597904132 0.3566220357726826
Ni 5.815937202672988 2.8912135579813474 13.065774688017665 -1.8016655732680973 -0.5148199564040746 -0.3739199036211818
Ni 0.29176268509855974 3.3065366545841464 3.5901228785253947 1.3933849327788586 -0.9598416610680889 -0.5567659618185572
Ni 2.362938517050678 5.075300020455804 6.8512391353063 0.2219229695941791 0.6113473966088633 0.0540013939171199
Ni 4.059742414529109 1.2327396911920865 5.017734281910358 -1.157204939045033 -0.046928546230738534 -1.5170136000758132
Ni 8.996613643911546 7.8389549086418615 1.6049532088478033 -0.9057603058426529 -0.08930006921841395 -2.5404530405002053
Ni 2.787010959580849 3.5924373697198235 12.947931189114659 0.41733503738202316 -0.981772142592593 1.0735643821052416
Ni 4.240081766104527 0.054416708479245526 2.7050755842781977 1.7025981402502741 0.0915029904070037 -1.1868199336979883
Ni 0.34269342647536744 8.395240709724067 10.220524115818895 -1.5378385072409644 0.3135306038998471 -0.04052727069008504
Ni 0.1318112375115103 4.948475818314439 5.259642220745109 0.5880308333701099 -0.6979058985263981 -0.5087925192630721
Ni 6.561678935084945 2.751949309951641 8.269014180636082 1.116903925433141 -1.4035305058532925 -0.8506721066192575
Ni 1.2425540152176489 3.688166047563172 10.803223209905351 -2.4058660744195337 -0.708370802613464 -0.31346272677638914
Ni 5.00094435134165 5.653573946927365 9.721268809979337 -0.2524602189510878 0.4657581658804172 2.195380143017703
Ni 8.334849106880148 8.094779173349343 7.9371045754894585 1.0266697744362319 -1.1737453599022174 -0.22309256442224804
Ni 9.173234752988972 8.431909007346233 12.509734933599525 0.32067492825411226 1.206576033278993 1.3303579383243604
Ni 1.8202403675660708 9.037964172827479 4.737073075400862 -0.09393371133568339 -0.03572444998480299 0.6785251800069411
Ni 4.683635963155038 7.530239792006165 0.9825047253309696 -0.45814281542700447 1.2004660637265132 1.1625070679842364
Ni 2.1130450786486357 7.258091983690218 12.871541962683702 -0.19520098021830254 0.5670902265627008 0.5796827185157308
Ni 5.139391504106366 4.279127902756274 1.423781154569748 -0.02531816704981446 1.0266610326854835 0.7832798932175284
Ni 3.7925063586487813 5.65091150168189 0.014992320985728159 -3.0852872838781833 -1.3881841053042092 0.5882707172950578
P 3.4651908486774525 6.233830936064522 2.3395594935417026 0.36788963826670185 0.14584659815489076 0.4217478217377381
Ni 6.96371734799739 5.186048561821901 11.440047979663182 -0.0714661263607866 -0.6337571317626312 -0.4986628870282379
P 0.36712916532142625 0.9242357340068915 7.490562931256609 -0.3124779942656167 0.44307923622566275 -0.013622732989757183
Ni 6.1343105689577895 6.965516793749504 8.100311550952526 0.7343502573963611 0.145631139709975 -0.2817476550612954
P 1.8643267884928723 0.3518219413290781 11.713694101993134 0.7107871253644404 -1.1571396330247363 -0.22274366572326154
P 8.668618751360336 6.479198217549255 9.49916670951722 -1.0615614441070942 0.07878579995065141 -0.79022521418711
P 8.718984870728189 4.72475697092912 1.4686608005627877 0.2553722503915602 -0.7112039011868848 -1.2671874763134627
Ni 1.7692407698467076 5.350101093171551 1.2882939064503471 -0.08393494825175868 0.8155318112726987 1.633330307092387
Ni 4.997556619287924 5.44354374044206 3.784356521943925 -1.2641489465974551 -1.1739975851223392 -0.34052770131398125
Ni 0.9959656812582657 3.1462941741892294 8.51893057115231 0.485804285898015 1.8203842327235231 -1.0661434070508218
Ni 4.358459590225764 7.211058511302046 11.793765765623952 0.024719357123550976 1.0715841184504191 -1.1774960851939011
Ni 7.3638461450096315 7.49538930182746 11.000265274015572 -0.7488733907132006 0.7749757442272073 0.07999550398803641
Ni 0.5474235307530418 1.8962761314385759 12.396070555647347 0.8530133531579246 0.45397325743034717 0.3131680783541058
Ni 6.414069298337526 9.109932822066378 4.603629483528506 0.2656358371010974 0.8230129501410922 -0.7608375050536123
Ni 8.829136657125474 1.2589877289742033 5.192833206775027 0.02596197128140045 -0.8682255421219887 -0.9175220743642715
Ni 5.700754312846322 2.35709949920198 10.37548026527469 0.5146222385709718 -0.04014417631905344 1.3099940299560278
Ni 7.243017035093423 3.1371959561262432 1.7320950682494902 0.4253887609244351 -0.230602499646048 -0.47437367546357007
Ni 9.085906548937382 5.392727759636178 7.366323137172491 -0.913194136412879 0.2814386084613088 2.2477368022425486
Ni 1.5742579694211754 8.383397418804538 8.262201075061368 -1.3494008138884246 0.5960665591903929 -1.2995363249578133
Ni 2.450532965626815 7.585435036198569 10.459018616232033 1.1751579239790277 1.4091671353137796 0.6460742585670873
Ni 1.497506099586094 6.017071169700136 9.066734188916257 0.14726147622454638 -0.5005382496740799 -0.7787938324217167
Ni 6.663007928789466 6.845816927851204 3.9830777627279317 1.0881780182533582 0.3664112539489625 0.8158048624284273
Ni 1.668361637580216 2.2353798472553885 6.05288748484375 -0.05976914963883255 -0.7843222184391138 0.14281218220394115
Ni 7.913448290441127 3.5020335823674262 12.708347840404578 1.0909609803151339 -0.2898065208100299 0.09128007576292022
Ni 4.479573306357868 3.5957791975451787 5.747892446875179 -0.8033321838827132 0.7041351672655615 -0.2004303469380419
Ni 1.7833058254193566 7.8309308495227405 2.6130311798038464 1.71232719461258 0.49153758883736637 -0.05906029649726603
Ni 0.5141613268759486 6.282535322365371 11.386111429412692 0.09852647291268839 -0.5488323087937774 -1.4652457234749023
Ni 7.376928850095157 4.7967990669334135 9.241483323560747 0.3578163131910999 -0.6199207401001711 -0.8596110609801002
Ni 6.943345051446667 6.0333396282345575 1.712826309348788 0.2598295148319654 0.003598773094851867 0.6320931137966469
Ni 8.644665924996733 2.9885305221263065 6.823881133282191 -1.1207163572006957 0.4367633213099639 -0.17530912639038196
Ni 5.321879173569513 0.4886358216483797 8.451771766962047 0.7580501721164622 0.13899717933322514 1.8498367336566852
Ni 9.012946368365686 1.010627491799728 2.4395177869870865 0.26976142923369667 -0.9193046201859909 0.59714462274592
P 4.866692845049976 4.346515310003821 11.812040238938154 -0.3522429328683805 0.3291120032778719 -0.4900059826841884
Ni 2.5550109893975352 1.3235566165998163 2.992777581335124 -2.063162962720789 1.572538629726311 0.3344755815826304
P 4.975522589670199 1.65267157232326 6.822913472148145 1.2372685772668433 2.4067075964842233 -0.9873653204096544
Ni 5.514686113570295 4.562347810955128 7.819139889423554 -1.3433702914236285 1.589057967537573 -1.7336578377695562
P 5.427422175438423 7.988933203573188 9.898947552478417 -0.5463136561369818 -0.0433552270571834 1.2676001383708493
P 7.33167646176775 1.8104627669232045 3.529817575630812 0.4153853698548201 -0.6745427983204254 -0.8746597277831066
P 8.160596655986627 2.821769641302813 10.068308448796802 0.3745338830560969 -0.33375695824905105 0.2817900782634566
Ni 6.894236707936159 8.044697660197384 0.09292209332079021 0.25807088026964586 0.3670537726289678 -0.5619179383331419
