# total energy = -340897.9590046176 ev
CRYSTAL
PRIMVEC
9.01816368352661 0.00000000000000 0.00000000000000
0.00000000000000 9.01816368352661 0.00000000000000
0.00000000000000 0.00000000000000 13.19899412080408
PRIMCOORD
 96 1
Ni 6.258172874699408 2.1279439901604458 11.475007542074692 0.2433315171769422 -0.5722527446002467 0.20221649230418726
Ni 4.75094008760875 0.5390309871787539 6.1259701991916735 -1.1119720353491624 -1.4482898123468542 -0.5289443116205986
Ni 2.6246734759336956 1.4740729984305347 4.759425278022214 0.5889057797758955 -0.9562997093531015 0.3983608102723656
Ni 3.427650789585411 4.478591537830203 4.945782027749161 -0.05595491809906492 -0.9178514326792322 -0.13152221111241866
Ni 5.012548004182454 4.4302181066708615 2.640076499874813 0.36189074037078967 0.43160106038273416 -0.13928205756349563
Ni 7.26991166447111 6.199473645874622 2.73438304704217 0.37456267941150334 -1.3648899106629588 -0.4735205834346554
Ni 5.152500889745808 4.450400757478954 11.575887428908723 -0.20735227086885577 0.42676738643951667 -0.3445975005079807
Ni 5.604310901133396 7.826070850345042 12.335305207290892 -0.2178922511682312 -0.17198443289252316 0.5927151262196566
Ni 1.8685004329227302 6.5537522146842315 0.36377920447820894 0.9841928362189438 -0.26932639857880714 -1.1816934111047004
Ni 2.6264951450414853 1.6097963651248106 0.2214707745041883 0.06878189466040412 0.15919705131986778 1.6500774446437387
Ni 0.4865921677333137 -0.036307127861206274 4.531597599784951 0.387084723137914 -0.553378276293247 1.344071431255711
Ni 8.699985041233779 2.189916812480915 1.4374096530952802 -0.9057731613584594 1.4975837734859756 -0.6996185103421306
Ni 6.837310342190418 0.5325189710265986 4.7239469194234145 0.17681296462941806 0.9456563707066423 0.23872795696665983
Ni 0.735792894413464 7.180000570388589 2.244277402653435 -0.27730221769543206 0.704838106869857 1.5088848003210917
Ni 7.442952193383386 3.7725594861029705 3.8571029690322396 1.018895786917768 -0.11416777899437111 -0.2377239411821777
Ni 7.631359673581181 3.818389795042526 12.590336176932361 0.8710542698200352 -0.3271211981000882 0.28457638275934216
Ni 8.021539552876499 8.938858166615704 6.963432971596805 -0.43496149221453484 -0.26965909932787757 -0.16265287107895213
Ni 6.796358859920737 0.7336348477922056 0.41007124340944195 -0.12429895389110206 -0.3038568282555089 -0.16591765787315296
Ni 1.9755099657595592 6.506343727062184 9.164629703483781 -0.044085420354988594 0.35228407051896105 -0.20787009104553877
Ni 0.10939122992280631 4.968584455170189 1.2794375742434334 -0.31307140487524143 -1.1497834497699813 0.9292794720105156
Ni 6.360060090441065 1.9886945213812888 7.008507558401544 -0.10091939862489716 -0.5757157634481826 0.2652640555839754
Ni 3.2802398824767973 4.107638383969582 0.41989022026370953 0.15060185345168903 0.9967251643579994 -0.14425302841552576
Ni 5.942212484300693 5.510368687787598 4.781124783998279 -0.21480898425721712 0.9492456307197974 0.04311919978697735
Ni 5.386711624391458 2.8399911572089467 9.251795668475156 -0.23710713353378518 -0.1239099459827995 -0.08668654285496684
P 0.2887056954602796 5.567264283832395 12.437834516302225 -0.12501397768025568 0.08962968464369081 -1.141017273541577
P 4.001981575717747 6.113187853679881 12.549868068247717 0.00452231335038576 -0.09334338604985215 -0.2683025852999831
P 2.3439560700559934 8.551212391376273 1.4189846424312886 0.3004640005238761 -0.16582149861492088 -0.44687238471950785
P 6.316592540443296 7.781755592940679 5.974973670116439 0.050749462638725505 -0.3905156031963339 -0.7663085554705125
P 4.697588629976635 1.0816385781602287 12.644715705249071 0.2249026210477933 0.25218048292713985 -0.3948571679944813
P 4.045647525321313 6.23727778894322 8.104314573864988 0.1670970228932348 -0.7686482593472826 -0.18236269080305367
P 4.586710304826726 1.0051374937969368 3.756552245180556 0.7855728030167631 -1.1371531626004803 0.5401252679380827
P 0.26544424349674367 5.530064357745093 3.640388374168886 -0.10321025154160288 -0.246428153824395 0.24109928541231382
Ni 1.3535272015798778 1.0837127558572175 2.6722686395484714 1.246125513436841 -0.2288911733818961 -0.9895638707228699
Ni 1.8697900303604231 6.558432641748306 4.759333292750435 -0.20234170502814183 -0.19706451578960252 -0.24335002911970352
Ni 6.11533417668807 5.538974303678246 9.127302621285487 -0.41373729272843585 0.7191583801472711 0.5181431072400366
Ni 8.475504905436177 2.365383227482279 10.250167735714347 0.6297066158423413 0.45087559234162994 0.2511178459905804
Ni 2.352929143136445 5.284869499469301 6.987917286585174 -0.3546492283170279 -0.5920245279105352 0.036693755876607774
Ni 0.44965737566467073 9.23766600927671 9.20430601737801 0.5681788316411892 -0.3130513502705835 0.10067694359678792
Ni 1.3635644180005244 1.057406771761058 11.434763985671157 0.15548000747959673 0.16222246840975288 -0.489863286458737
Ni 4.076444555039649 6.760953548449526 1.4569447997353562 0.5521171501926363 0.4623604530527779 0.4015410077725601
Ni 5.7081099676218425 7.8711436335170015 8.067331083711284 -0.6934542905129476 -0.24209378811509918 -0.09877586991933311
Ni 5.135907468169896 2.7602254975138725 4.895058463077492 -0.0643660249808956 0.2696855816904387 0.07325792815388674
Ni 0.725688943579958 7.3540060428381615 6.78449456349396 0.3616027768167256 0.429127402031261 0.18755451941663828
Ni 5.044724812977483 4.493904380132322 6.996892163298406 -0.5274145052396335 0.5252964304553662 0.5816454986690563
Ni 8.420656432596669 7.173372219922125 9.206404544117527 -1.2114577868513265 -0.5355147657492648 -0.17842093254648625
Ni 4.715652012268238 0.39380608299948877 10.495154274404051 -0.6071138181434899 -0.3165231108692678 -0.3246555101684151
Ni 8.065512120052665 7.112842303825648 4.826872125829954 0.26027251590665496 0.03157700347533271 -0.05477889551309276
Ni 7.342823519602221 6.041565595986464 6.979931702451767 0.14724682093652708 0.24596869768947313 0.10287497968937122
Ni 2.364310065978185 5.1772557496511755 2.5995948639443194 -0.4115857936030718 -0.11692554424516637 0.05581453586645871
Ni 2.42514659964726 5.327534432879973 11.208269192058305 0.14003976166512655 -0.3339657318257474 1.1102349980533976
Ni 1.1421053671094061 3.2213512722101116 3.8166213331017453 -0.6509256731221177 0.9878255478755245 0.4994090211656431
Ni 3.5662960413832714 2.5251129464782265 2.6702756253265822 -0.3519184596494262 0.829862368962758 -0.5503461743351425
Ni 0.976811440987188 3.3217685272360757 8.134143954596858 -0.05514604904452438 0.5826325451726739 -0.2126626273381757
Ni 3.5361122468101325 2.672839489323338 7.231781965685723 0.36229697467027283 -0.17532146768555612 -0.3268278352293855
Ni 4.085525846086901 6.803771790646497 5.920831319510298 0.6320746018538856 1.089565385519188 0.28543024611920526
Ni 0.7893382425694283 7.3596153407839315 11.230351068183726 -0.25799683249860084 0.3907948249996495 0.758072026493333
P 0.3770061454702684 5.607909148529478 8.001600392493705 -1.1603846223245953 -1.120968839531134 -0.24587279554155722
P 8.382184945399475 1.7190153481171278 8.140295244193016 0.24974796222624732 0.6022158666212403 -1.5241826070204265
P 1.8986661911680693 3.345188698884251 10.197767694373677 -0.6665929473457294 0.29656517969010215 0.7592585906022666
P 4.030812645705892 6.145094117557912 3.747748713581423 0.08955126599727158 -0.2720900773668733 -0.6413544844939149
P 6.951723787589108 3.947926701301435 10.381761685158835 0.03849969873709499 0.987988298705634 0.06317226178311056
P 6.360988961322759 7.677821253993733 10.22910220666045 0.19558973101628896 -0.37456087963929047 -0.3350090854885972
P 2.5030184449233444 8.446024527647234 5.837743368234481 -0.9592248534196964 0.6969982991104642 -0.4228960764095685
P 7.0574256866604435 4.00333430030274 1.6849311976572596 -0.8643544892023566 -0.07458538871605865 -0.5791528141541896
Ni 5.304285606345897 2.9237608816755993 0.6131368472102184 0.2931882927980693 0.031843883983474194 -0.7196903413913411
Ni 1.3796257679063388 1.132753531145156 6.947765715453419 0.04061288842535587 -0.5109453039400168 0.035089644614281504
Ni 6.8781536064933 0.6228151407076468 9.224948594544998 -0.8050041722684974 0.33714875753941936 -0.26758936128304234
Ni 2.6342146933398447 1.5775383928546827 9.244707391649793 0.3686607121047715 -0.814440635091049 -0.17646123771695416
Ni 6.227105300064074 2.0035925281440092 2.6175978245377935 0.991881206002137 -0.26084792879415075 0.37097727605309017
Ni 4.210752070001632 6.888975403173243 10.170616708320091 0.10982878529938504 0.48361936243155423 1.0547292516766094
Ni 8.080283872520786 7.247519563507529 0.2697585331064806 -0.6149487408068763 -0.24735092274898043 0.3722934237613524
Ni 7.432869886143241 3.814079112698349 8.028275219493374 1.60850244941543 0.1252140095062037 0.9542204582265694
Ni 3.1297086906588008 8.48266532757274 12.455072736596984 0.10983829838108179 -1.0064264508061636 -0.48710037900161923
Ni 0.1679804371480137 4.791395570863934 10.273846728666452 -0.3199748168632941 0.058800100857343905 -0.5386234865815757
Ni 8.487715499356712 2.2691594186697923 5.735134699380828 0.31411861519283324 0.04777623894301449 0.1817404838380225
Ni 3.5797240874302996 2.6565617034839253 11.39131266836841 0.17152600519886588 0.0589844489540081 0.004395557964534366
Ni 1.1800538008004036 3.440321309864843 12.46136831681554 -0.7006420665106384 -0.1555810518338353 -0.1830859421223234
Ni 3.1812565155109254 8.361154587184787 7.98961525267067 -0.2310645268841311 0.051015571815918585 0.03262241402071156
Ni 5.583785560097106 7.86759047694042 3.67330647603649 -0.3086120835523072 -0.3136434753286276 -0.14539588377071735
Ni 3.176287507202052 8.154079507714092 3.452540020132888 -0.7076688914504329 1.0744884365814076 0.21668537534432358
Ni 3.5844405871499747 4.3304050686261935 9.140554813136468 -0.2682874157913315 0.29315024047128224 0.2141404974352828
Ni 7.3552054586368545 6.149224436624089 11.449903679226397 -0.1032758146722157 -0.8048666182493687 -0.8834678129930397
Ni 0.45839417285094414 0.025753170649092588 0.40860218451013985 0.7330446512110601 0.22364355182971163 -0.2879802662345685
Ni 4.59726155658967 0.42900397670100093 1.5390948619655778 -0.4313737748632765 -1.197560202933628 0.32946938661729064
Ni 6.178479360315533 5.551509551499179 0.3554292865232435 -0.8735608382919728 0.6902170145225727 0.8884866063638698
Ni 7.799503339495784 9.00133600611457 11.283608736911285 0.6353540439361057 -1.070354359808376 0.6570420704325007
Ni 0.07595728908012471 4.638321256826151 5.747080159282705 0.29472349849567303 0.6712710695476891 0.38678107585456617
Ni 7.982815557090106 8.817527789505752 2.433907745876063 -0.5519543993625269 -0.1400212497223653 0.3604079851776761
P 8.412287576497514 1.6590084855268479 3.587302050555429 -0.5328315624901467 -0.2693384827636652 0.5320512326806965
P 1.693520998771964 3.1936114000538596 1.6775922158754786 0.4441117912552351 0.005838203948331881 -1.1870186799723559
P 4.65738565531065 1.005110439305237 8.307104221850425 0.6438975626307427 0.42491464950149405 -0.3236142133880943
P 8.507483314625405 1.6371394380694646 12.415014052553397 -0.309515312092867 0.9186250776204632 0.6169128065117826
P 6.206156105324486 7.604097764111627 1.5314131899555987 0.4475329011216421 1.0112351850487165 -1.2531500243837903
P 1.876607762268787 3.1484754897346003 5.976240722144382 -0.8881850159630511 0.48173834335875737 -0.06506819325424278
P 6.76210787342872 3.8986514537520978 5.953089291780426 1.323529088327985 -0.03841279545024352 -0.3027448261382528
P 2.340682476560311 8.503362013723128 10.145024060988419 0.6549828739106268 0.08781448581182297 0.5112458658995712
