# total energy = -340897.00925357785 ev
CRYSTAL
PRIMVEC
9.01547051886156 0.00000000000000 0.00000000000000

0.00000000000000 9.01547051886156 0.00000000000000

0.00000000000000 0.00000000000000 13.19505240208552

PRIMCOORD
 96 1
Ni 6.35413959131672 1.9875235553187982 11.373527973131296 0.6792260627287077 0.16503962614357384 0.2701357818539799
Ni 4.569536243490157 0.2807020798114098 5.941257192412214 -0.39918407750460927 0.02621342517057421 0.20737746767983642
Ni 2.6949855476029025 1.5896708470980634 4.864857810082684 0.4698781015860617 -0.4150475268994271 -0.38910920976711055
Ni 3.4822434682908523 4.399865090788724 4.753227354191909 -0.5320226934356064 -0.9514914893311807 0.5482016171883141
Ni 5.1475631274142994 4.646284942902872 2.66846203372152 -0.16430351930849768 -0.44208241953003224 -0.25005598038496935
Ni 7.206200713153337 6.167194797351954 2.517259973656865 0.2949055325994921 0.08810116381430634 0.22259891261528117
Ni 5.22096708731308 4.3625320279121755 11.589293422832297 0.3890575305935687 0.8909273545948785 -0.5548345491237993
Ni 5.55078905598626 7.915150258051455 12.5343761681319 -0.10454156875851672 -0.11370112377059773 -0.629308094852342
Ni 1.702192933010209 6.449036432620402 0.40030401461922166 0.5484862383082684 -0.039420667889467596 -0.24719434256645817
Ni 2.6830220183980775 1.4426736024223532 0.3919818339040945 0.6255344867425227 0.9148609825923405 0.735471772595314
Ni 0.59465411596066 0.07002766623848988 4.637677873323485 -0.8589862829119078 -0.7399462634268998 0.3054146596609321
Ni 8.550136883886738 2.3048050046823225 1.4485003009340927 0.3091964953008675 0.647709223067349 0.17829931936695745
Ni 6.7429317517975536 0.8300651771840684 4.849418817043301 -0.2956105290863167 -0.7184883506634401 -0.6670593454591867
Ni 0.7000657003778206 7.293172955986 2.402026935799059 0.22756936924667903 0.06250788872623428 1.0300188934141228
Ni 7.513997887668726 3.938417254451309 3.724026663984472 0.9496500652470676 -0.4616017205098824 0.7252575510664735
Ni 7.647688298051804 3.8379037750959286 12.524374405283496 -0.2551758181100379 0.31362239228270505 0.08926587354636885
Ni 7.95351108455223 8.772539522887357 6.89826740503509 -0.6739833262725295 0.06000646246061924 -0.29164768778382677
Ni 6.809141366326743 0.7636283728011034 0.3873659130654583 0.7946750224283474 0.8089970954779744 -0.8045238901979693
Ni 1.9471252325103434 6.351921785601283 9.198099476251413 -0.29227066607980634 0.6701145873457427 -0.1880283737292633
Ni 0.10244819930063774 4.848069201126223 1.6318848856426535 -0.5610766733787692 -0.7224848734173428 -0.7940057642754648
Ni 6.458205166004958 1.8978917487216864 7.0043560512783865 -1.0069383574455755 -0.03342279843481986 0.3283231888279894
Ni 3.3326046907914697 4.194429567058248 0.24233674557544024 0.010544865395381839 -0.48546824271483485 0.54987746222884
Ni 5.885903105777171 5.668179495907904 4.786966850571814 -0.053449378068391826 0.3042455790534954 -0.158927599708565
Ni 5.404296677652275 2.8870781751591954 9.279697597185812 -0.9277118704130798 -0.07857291260889694 -0.5926698748040179
P 0.06053527746700537 5.5632304051216455 12.475961329300143 0.7711795104095686 -0.25369666246135014 0.343168481370938
P 4.054861069982218 6.066762457230064 12.753994829876715 -0.17453650989041555 0.36421476051827595 -1.8397639228017155
P 2.39547359037405 8.327409687952152 1.4213312793729325 -0.3048438747591266 0.8601682190351508 0.3401224954557626
P 6.259486167713514 7.813978649357752 5.621725481639856 0.2717949147239577 -0.7414303041715941 1.5579378490940008
P 4.618463201285623 1.1244996214904208 12.515375162742233 0.6503649155226412 -1.3787147323611932 0.5431452857113291
P 3.9217476497039687 6.278319485353965 8.17583889514863 0.32738936415981035 0.027676382869345883 0.17401843260341643
P 4.610403370758785 0.9159357295353227 3.64939479701885 0.10478068135251632 0.9459152807949837 1.1954860940134184
P 0.31913052234009515 5.565240855018162 3.6986255761663904 -0.9427980753222408 -1.3506925361166546 -0.9019658717972273
Ni 1.464166483827253 1.0074968467954584 2.5977762381447094 0.06465038899053381 0.7398153942759904 -0.5859621237665392
Ni 1.779383390471934 6.5099088886799175 4.82801699188932 0.4641951922686715 -0.009106847397274638 0.10417775766119478
Ni 5.934523537579446 5.4965610016026725 8.962408935445977 -0.311594820329715 0.9594716793231799 1.8269217767317247
Ni 8.675343736634746 2.3866384293938476 10.134512945225952 0.015047381251425698 -0.007993559728437847 0.6884876905362917
Ni 2.4519104350026883 5.198076807998047 6.899455644032223 -1.3364447679483886 -0.85872711571325 0.5768537337073679
Ni 0.49302812755940423 -0.22390371482021443 9.174308551444621 0.14721262526448192 0.4657239702083721 0.09667347886434964
Ni 1.6756784345992146 1.2853536441524276 11.429448231306703 -1.1280218897231735 -0.5818792119464172 -0.7742884883521955
Ni 4.04742330691215 6.643959917878515 1.662180472334359 0.6728373855935443 2.109775006152373 -0.9508309729290462
Ni 5.682892743581058 7.905188163272758 7.865952836144349 -0.5267845849651186 -0.12834355627412092 0.2602331780282873
Ni 5.200168397128055 2.7625835445718367 4.956193540583121 0.06797611092965714 0.09181537944109994 -0.2630205109654373
Ni 0.7725816364433877 7.388502539868304 7.006453951237665 0.4996118812050686 0.23131778054551777 -0.15047741205868279
Ni 5.003135291799159 4.716434317991599 7.032382444073442 -0.2594957856416305 -0.6786413938698312 -1.0240955859511525
Ni 7.955314178629823 6.922411736281089 8.926412866827965 0.33016821245652817 1.0728408736756556 0.8113704808061575
Ni 4.654380835311261 0.44494772243336755 10.360728226653638 -0.4867018580116198 -1.183738466559187 0.41358945429666194
Ni 8.144179267787226 7.04698750610194 4.728644871085054 0.19695267280208661 0.697747775681979 0.048003524462472164
Ni 7.207102260192133 6.112308613630045 6.861678118465549 0.2715051513976808 -0.31340667672747313 -0.523142360226841
Ni 2.402956430796058 5.162871396133058 2.4250127791002054 -0.6092005254691896 -0.5949476150946011 0.7758805154296637
Ni 2.2208439289592383 5.338618975875977 11.500147550089098 0.3805098981338737 -0.6220866374032383 -0.5145499905721396
Ni 1.2566393709667707 3.30748759029061 3.675204285645506 -1.0888812149679699 0.22482754483548376 0.7754832799912451
Ni 3.8053669424657754 2.7260979359117568 2.670969236036412 -1.3668904860327558 -0.43620102104859076 -0.16106007267053554
Ni 1.0744367144260714 3.173698009733263 8.172382363801885 -0.2619589024701424 1.0081722298526767 -0.4417929133140714
Ni 3.7807006154843132 2.6863487269712354 7.134868508349709 -0.31739471484094367 -0.3270749182431851 -0.19805053385195567
Ni 3.9407612767521796 6.8153890873056 5.9291962961272 0.7108750570925563 1.0371318503098201 -0.0377893029336317
Ni 0.6174713699655514 7.199835791059436 11.102831262356444 0.28139618525914767 0.6632284017488707 0.36819559954289494
P 0.2793560700824872 5.604683537965492 7.927917065667847 0.15613743855793755 -2.2082523709946806 -0.19403395649339486
P 8.528301414607094 1.5095954391121906 8.127017418356703 -0.19456463218588427 0.21266288444849182 -0.6283058788400727
P 1.810919505889023 3.334867573858848 10.291823888025489 0.08605867946298082 -0.16184503046567608 0.6057153951340665
P 3.893952954497884 6.1507686103050885 3.7161092778897644 0.21789996447771504 0.8563858691745833 1.003648116730078
P 7.00519178538335 4.004464590513514 10.210476397167875 -0.5374821738882807 0.18628722266844044 1.2665850668427734
P 6.328039804543573 7.679098196883462 10.14587333946182 -1.1772806267489853 0.6233575336958619 0.36523960223836455
P 2.2665703947669784 8.470368001894055 5.808989423256356 1.60071689193274 -0.20605000711766447 0.47416078812181567
P 6.90454307397215 4.028229370456181 1.5774287398582505 0.5860359144272682 -0.14556146281430415 -0.5172905294317542
Ni 5.2778006126387895 2.8065790400650883 0.5060681039285515 0.054410970650712744 0.6222930969870895 -0.29287436110207626
Ni 1.3675026103275316 0.9493741092042713 7.0374229935673505 0.5311824569224981 0.5518633823106173 0.27187796135606723
Ni 6.866209293882538 0.7291063335915217 9.231033891125675 -0.19245812736584275 -0.5988932300059105 -0.008928927058513655
Ni 2.7148646598083572 1.571504674266321 9.09903117679922 0.16947529331742425 -0.025093452633518074 0.7972841779164204
Ni 6.232241416201095 2.0854856565543862 2.5702772503673494 0.9762946644177897 -0.23916427317313002 0.8276589335535359
Ni 4.028310509689672 6.847952966346916 10.521708465901076 0.6868558113598235 0.31667274907325466 -0.010311152118020951
Ni 8.18373013637921 7.317045921573323 0.4315272932138482 -0.1688615709928253 -0.49649236173948047 -0.768528960160599
Ni 7.532218153322796 3.746910632470234 8.069922444389743 1.1743639673228226 0.5763636814448267 -0.13584423552654024
Ni 3.0495639979614224 8.27912282855423 12.538334861179253 0.46685448426838955 -0.32724898192720414 -0.9731278366540337
Ni 0.04575982304817549 4.870851294796601 10.16494015778532 0.37308095265965424 -0.34737377770153727 -0.4494563433966001
Ni 8.63427826901758 2.142824048221821 5.939594739672675 0.20904431385929803 1.3896876864329293 -0.4890004242378094
Ni 3.6771939999601293 2.62698185446651 11.381366023086589 -0.5319797560128128 0.9608089100773648 -0.587229420514737
Ni 1.0949739559698473 3.4021049520122637 12.673781485193906 -0.4167524254056758 0.3200527212890811 -0.553444353644492
Ni 3.0559018736441597 8.39972277593399 8.08703651182721 0.6609730300557907 -0.6068392243258646 -0.33385697416202503
Ni 5.677717863578367 7.859569883109673 3.5312596792431594 -1.1244390574679215 0.3169871949898799 -0.051601269116059514
Ni 2.932146511628614 8.347658434443513 3.679585804254055 1.290035841666546 -0.3296038553126259 -0.688614188811827
Ni 3.467935916785158 4.440019995896704 9.365294079237271 0.4226556782639882 -0.48712043360627716 -0.07871046662802574
Ni 7.3331926290381615 6.187497636665643 11.356836731255024 -1.0783898285183426 -0.6322553504061239 0.06147610502761026
Ni 0.5997487582768969 0.16071338132395444 0.2234926093705234 -0.14409362001952603 -0.1817829070401837 -0.08329885732965654
Ni 4.7285330792522435 0.34269245419903216 1.542910306836824 -1.331314388700359 -0.5356875438817033 -0.15351671310563883
Ni 6.100886012648498 5.65758631820205 0.3269866032361647 -0.133678338223473 0.15021130288148968 0.2894118564747725
Ni 7.848706241292179 -0.2263613320479727 11.3235453037534 0.20576590021834237 0.579561362446518 0.5793399904643313
Ni 0.10611298801334404 4.6678860099524275 5.754415174809871 -0.22529831382431523 -0.05745644234525589 0.5580898228363035
Ni 8.15012947824328 8.99871964398053 2.3676806982620424 -0.5740180640307856 0.3071930917175935 0.7858628234533562
P 8.393520132307073 1.665328674593835 3.8024179821018738 0.5002790824754223 1.0144722039287755 -1.7541389884420433
P 1.7702507189689294 3.166079937255436 1.5402976235183927 0.5637274807380549 -0.5876377116967493 0.49614577703333906
P 4.782039896004793 0.9725438681013321 8.247870700454362 -0.1847625584937979 0.5061512249854832 -1.2003382798993973
P 8.50727733766237 1.8108744285370835 12.348761156049356 -0.16584258166084342 -1.4174152342551847 0.09027940241254774
P 6.4083496147595325 7.988860743943427 1.4904736264193243 0.10617087683182361 -1.4856427990740158 -0.4783426874136472
P 1.8381552419310543 3.1468860007994652 6.048255499617657 0.1944651304935425 0.4119868856962325 -0.21855482445289456
P 6.800693870573223 4.026868034427598 5.95508512089327 0.4599063350853305 -0.6495354776428104 -0.26105875925337624
P 2.3500356196187244 8.47144985834061 10.28479091957584 0.20245689044976747 0.040174001115724355 0.2817952204697792
