# total energy = -381171.97854389146 ev
CRYSTAL
PRIMVEC
9.22509403212540 0.00000000000000 0.00000000000000

0.00000000000000 9.22509403212540 0.00000000000000

0.00000000000000 0.00000000000000 13.50185760281108

PRIMCOORD
 96 1
Ni 2.1110612594771236 1.5884320156281406 9.393606829656397 0.34846186855939343 1.546499782460388 0.6387743824715644
Ni 5.513580312246652 7.021237405820502 0.3888552349177971 -0.7362647008102545 -1.957417603462158 2.3038264461472644
Ni 7.071569518055336 1.7874357409085366 9.112930580686733 -1.3195297373606047 -0.801378145480136 1.4140607159606549
Ni 0.7181744814320113 4.5016151883785085 8.335169372834773 0.8548480923738182 -0.39919281925535766 0.880480962450574
Ni 8.581809637916898 6.669936605597864 9.185232254007941 -1.5193458477534156 -1.1995407236987665 -0.10185245196212782
Ni 1.056180998857432 6.875822250916234 7.770899900209105 0.30708587671576787 1.7082481394472 -0.5764215312659556
Ni 8.143147198606306 3.5967810797931965 11.360921753712994 -0.5736277705709024 -0.9933387643842699 0.05881809857947289
Ni 9.111560654244858 2.210609247586745 9.57615206493713 1.6881999625470732 0.3964432815346785 0.3435819147592728
Ni 3.2521684726369537 7.878866708997887 7.40693027855463 -0.13553930269161174 0.0007633605285857821 -0.28374257400413716
Ni 4.857851413829453 8.782234027655536 12.739799304184826 0.47147475664922034 1.1345455497743042 -3.6520676925099496
Ni 0.3296310546875165 2.3516424828957887 6.891563951121058 -0.7683453833948832 0.20804132651608043 0.8370390892168551
Ni 8.445822528962776 6.381523270387113 11.929836061109599 0.30704473906518737 0.043428246386963916 -0.9226000031078112
Ni 2.4783583724958036 7.912409150362598 2.9113510691048696 0.26979331091289666 -0.5986358625794658 0.27849520956226875
Ni 2.7199728064295536 3.2043548110326383 2.7405798211491597 -0.1129724731346893 -1.6688542110306095 -0.33445347009544335
Ni 0.3655544927838631 8.162344618980331 5.9830776278668 -1.0294483656226336 0.21798481088203747 -0.9754487714777266
Ni 0.20895667907258111 8.080416560190455 10.730789723297626 0.911106914866547 1.6566782377897082 0.5792502589640024
Ni 0.7717289189607655 6.20753799972198 1.402991945886395 0.6462565497812225 1.7579797023443724 0.6251359657525234
Ni 2.3299635122667826 3.977759007042862 5.58516519577302 0.4834522407260706 -0.3927210954880849 -1.9981559617217846
Ni 4.727482387051103 3.8325468042040565 0.5397085826670867 0.37611176906617805 -0.08244293708726447 0.24176700090329978
Ni 3.5663751703492794 1.1051293470095636 11.265464172231841 -0.19507525327371567 0.26727980046242356 0.4229757806075683
Ni 1.2922880517420257 1.061955907629244 3.6688595058423954 0.9029146088637419 -0.3563947502532249 -0.8985442477101881
Ni 0.2888220068698414 5.4410433990313845 6.211354421062074 -0.4194456559671228 -0.47852163619367266 -0.9059978757747558
Ni 0.6074853474378575 -0.4486596735534244 1.4552170473863661 0.03630423374767296 0.7129016006042819 -0.3078515512371989
Ni 5.2321411480127225 7.299281735504867 6.075728013278843 -0.8635474199200289 0.9434382800094011 -0.4372988820984598
P -0.22485151583589105 8.545112214443625 3.504245085545323 -0.07942549041717935 0.1893568627326997 0.49376930638136257
Ni 2.589696030590051 7.973949751667322 11.447145016215579 0.3053398405589387 0.12001472469345138 0.6222668717348445
P 1.9642992408656916 8.794318900644472 9.504105926716528 -0.3232699426747981 -2.0639078113066134 0.0979960543305151
Ni 7.511874024077403 8.440167546411466 0.11094743662292496 0.45848425792682324 0.23933807974683297 0.13444761228932972
P 7.700656345333569 3.6502681741365923 0.5722427212702005 -0.08304868899206343 0.34384468150235625 0.34768488118405283
P 5.316772159310811 9.20014000572559 1.1828959659480585 1.0213419344654153 -0.07672146122245496 1.9870601089189392
P 4.129604052384756 6.507667204166278 3.768597530886041 -0.5600261206270678 -0.8294203963293328 0.3189921412350506
Ni 0.5473940083824166 4.155019186037059 2.015706076538091 0.40280341942475145 -1.889493428816359 -0.19273554939694548
Ni 1.5479338534743792 3.0372699105932477 11.855805605194403 -0.4619735020270044 -0.34645280854916466 -1.0973954230865681
Ni 6.759355440622103 2.9232569752724427 4.728998992485745 -1.023207012698612 -0.12872999307926217 -0.0812507165513762
Ni 4.616707459683822 6.673211513926927 8.711019992903331 0.5449522570130808 -1.078884251656258 -0.23638568198672832
Ni 6.064087789815149 2.0956184523141634 12.01501965553138 0.25007783476184026 -0.8247888110945925 -2.55444318413171
Ni 4.211725838146209 3.2451389510968247 11.824130322831952 -1.8472239786241866 1.177247973738837 0.13635897037942968
Ni 4.3561077825353935 0.896260306328887 7.183177471400405 -0.08200996331490391 -1.1028826714533844 -0.16756984876459527
Ni 6.205812907165544 4.838137388197883 12.29930107119118 0.3182724894602067 -0.3116200171406956 0.941492983357572
Ni 5.564419804645143 8.017123191047643 3.245711829427064 -1.87743546921056 0.12041041746997327 -0.22478666429521932
Ni 7.636993972435367 0.9388839301136794 6.884151588184714 -0.6372114088598188 -0.396646141574104 -0.8899652477919254
Ni 8.461108509529698 1.2857566852716698 4.648676100031805 -0.5485512872182489 -1.5902769275463384 1.6589400372406913
Ni 6.301550931500792 7.139309382450568 11.776252085570444 -0.2577867733703238 1.3284751194793507 -1.6102646835221752
Ni 4.688451014825007 4.106532092579162 6.215607189342912 -0.137571245519976 1.3333489026318843 0.19420390641235585
Ni 7.435361095397836 6.899170963538368 2.732330742197476 0.9185124633019988 0.2982554229083315 -0.6017003604374025
Ni 2.3805354769426184 3.837380753399631 0.33799913735031306 -0.1587144552564944 -0.6354872270798604 0.050278693649894055
Ni 7.229392424234504 8.338728414055483 4.955303460608475 0.1779923296494999 -0.08569769657913627 0.6416954127731013
Ni 1.839557521356999 5.116707548233676 3.766032954786099 0.573906992374218 1.1758037850931427 -0.582318356366365
Ni 2.820941458997416 3.8494748514824515 9.988835717359065 -0.4652187484371794 0.19307133546980942 -0.9298075765998438
Ni 7.214254045169739 0.3823736839544184 2.5397670549579776 -0.07043305711058191 -0.8998997332968179 -0.14561159932594922
Ni 9.329060692764044 6.4806561292719245 4.013318976440152 -0.10131971938710939 0.4077977873155493 0.3482703213738776
Ni 4.618395651864719 2.106245760469319 9.212965653753466 -0.5854473889136498 -0.008111316253224738 0.14355240280407536
Ni 6.737658019805326 1.60871799708056 0.4255517358816802 0.18550355042488054 -0.3432628408569572 1.8400151195805727
Ni 7.931569670361086 4.465904849950898 3.298260731722387 -0.8615309037106323 1.1257909435101257 -0.033997697101683384
Ni 0.2237435820603405 4.6269104135202825 13.105402689966278 -0.012211454464527358 -1.1368734265765323 0.6939271163843082
Ni 2.522629598048401 6.974503080200695 5.265400378995173 -0.3369839498267809 -1.861600816171149 0.40939032861364977
P 3.5793733276327986 5.703432744393441 13.225771714973629 1.7381672956041354 0.14628805656768354 0.42794495168738556
Ni 4.100139102517075 0.8154420263333388 2.825128729111674 -1.5972207058540233 -0.5349406384133496 -0.3061039724184728
P 4.357777524528521 4.359576417836034 8.475602054531924 0.6620539218247953 -0.15343495202510993 0.14646006336917358
Ni 9.057750681615497 1.7505722657453404 0.21984136734711934 1.0059178866008613 1.8612840562616781 2.375077885394084
P 5.872150486450421 0.8802824437206149 5.392682689359707 0.46827733275784517 -0.59635298008256 0.5704899962728691
P 2.0061996172899246 1.7228693088096356 5.630314650263439 0.25553834365577927 -0.2787428067967006 -0.1554373271671194
P 7.899466343642387 3.76844162679939 6.368339688716512 0.08285611336528312 0.7065463478102154 0.6979609201340496
Ni 7.730047494450171 5.975074858921836 0.4966689071480951 -0.5998082856210122 -0.10897929281489618 0.937374076093192
Ni 8.661597474925527 9.006477609804426 8.552724761917268 2.6891702753346722 0.39703592081335487 0.5054822239429166
Ni 4.148045015060238 2.0758490761192863 5.048492591503383 -0.3136933547299565 0.419074131560317 -0.44269639896494734
Ni 6.471089706913508 8.748350257817092 8.514784718297728 -2.863931499641384 -0.7942911567263675 -0.2863692129937068
Ni 3.1775005627343242 9.085942568527091 5.045562701685608 0.20343005299631417 0.9012292507415188 0.3771900897320214
Ni 0.2698994942935783 3.468137145571283 4.725852312961679 -0.315659734427708 -0.1867644194151751 -0.6116340746113466
Ni 2.03768486271835 5.531015739688704 11.8270463750089 -2.1226379781579703 0.01238011883190771 -0.5112070422418357
Ni 3.2494286197532025 5.43429985540168 1.8550741292710369 0.8021646459371733 1.1783761738060092 0.7955936775878749
Ni 7.663073312847367 4.128810694310673 8.668961867373671 0.25609653015209444 -0.7218526391499825 -0.410868455821073
Ni 4.133570842755169 5.591218702380149 11.002744568508712 2.0060034827906614 0.9288256723025489 0.18086039522591432
Ni 4.2198531458586155 8.849936991675229 9.614254470209039 0.21269913700306592 -0.17681039352625677 -0.2881335039829812
Ni 4.59986243825039 4.001107719664996 3.848893670567716 -0.5810754850981993 1.2423459917897508 -1.083111402363728
Ni 2.368801157521301 6.469133987009955 9.55353582476944 -0.05586955747411023 -0.1205510568128956 0.3604465517250954
Ni 1.6991608175259985 0.33865504152551407 7.430517921108377 -0.18548323870990635 0.32424721898640285 -0.5254386124601854
Ni 1.4857751708793807 0.8245305888285293 12.451831541008707 0.7994279637323006 -1.4254383616699773 0.3384890736173977
Ni 6.415480840976635 5.773091428316688 9.779206528942291 0.5485667138372166 1.8798831594201042 0.5119176951556151
Ni 6.029890366784627 2.5924543336615713 7.243692242265152 0.3885530801533244 0.6212158047625108 -0.3113495370881283
Ni 6.124825807951907 5.115665112624707 1.9188167604860358 -0.806948697589378 -1.0186427903666972 0.6875482094411578
Ni 6.362205923792587 5.692676284923901 7.250699623579958 0.9216546084754064 -0.8188441634753834 -0.045851511116475875
Ni 5.626024981607061 2.412306700281469 2.386088983461198 0.7979099844258775 0.7437499534437062 0.2595839744800626
Ni 3.9371040182930614 1.4392345722311517 0.16170667070461986 -1.1343128649382077 1.1149987379906279 1.1774256369672818
Ni 6.127833188558313 5.5111725627427495 4.599623508318777 0.4184478108302277 1.1018807125514314 0.0749905945742773
Ni 2.576485696147184 2.8725927596577603 7.433393382872233 1.4338510112137046 -0.6915218493769252 2.345458262755438
Ni 8.511293020262377 2.2539026131875657 2.6921757535362243 0.0285515863854476 0.9479384818725999 -1.856302543886687
Ni 5.887316540796841 3.7713659815608347 10.273212151485877 -0.4417672022824586 -1.4488336006654658 -0.729579318370279
P 0.8695564270608932 7.413571423642213 13.16790270103501 -0.05001464135523 0.783564771447799 -1.4208340301287468
Ni 3.0268732297852092 7.940471885959806 0.35223068968621457 -0.9210797098085428 -0.6732191944129954 0.8452051699674153
P 9.349448150249193 5.04515772006407 10.451490780844942 1.2111482260307078 -0.3659176021419956 -0.7219092034195309
Ni 2.7754525210520407 5.357851502379306 7.286588006319542 0.6189113249990502 0.7619284241249458 0.7582633165685329
P 1.95880108491042 1.4386902916919555 1.5712788760589596 0.33154066732402254 0.22262796608100366 -1.2407462514027985
P 7.643423862872992 7.488894315210655 7.185931161924982 0.8042441541740214 -0.002364643577434637 -1.059203228287563
P 6.721855433980863 9.087427808642525 10.599524939903073 0.11241865751374833 0.2980908723060092 1.081993486709201
Ni 8.36375609376463 0.8428174924361376 11.899996572430203 -1.3845966450632672 -0.5838000831182139 -2.390861116370269
