# total energy = -340866.2778312183 ev
CRYSTAL
PRIMVEC
9.26403849080856 0.00000000000000 0.00000000000000
0.00000000000000 9.26403849080856 0.00000000000000
0.00000000000000 0.00000000000000 13.55885675465811
PRIMCOORD
 96 1
Ni 5.505377323310152 5.492667062239365 0.00810788665390215 -0.40229356966786844 0.567298485918765 -0.7316577981658625
Ni 7.576575507450371 4.315670947776078 4.719295849083052 0.08806979635573865 -0.771182338623046 -1.049077966928103
Ni 4.5854212260991165 0.12123476860712507 8.006790052580504 -1.8840550314096067 0.9593408101722702 -1.426565533295885
Ni 8.389531957892018 5.018440922141957 1.3955727695145117 -0.31814290586087796 0.8072142925459389 -1.6617196568683577
Ni 0.5178106628814722 7.209849272211145 1.1418900398803769 0.9604463845316233 -0.7867321134321871 1.1150378187586798
Ni 1.7667355528782276 1.650898013206847 2.5889690116553608 1.8806244084615034 0.31920168614269545 -1.2380993006982548
Ni 1.5300856847635906 9.19592946894728 4.441433978490639 1.085016846916557 -1.067443613919484 0.11085336990915748
Ni 9.081212877956341 8.41680528776986 3.3738507928732293 -0.3791312726187922 -2.6809175484075767 -0.7247795829887904
Ni 1.2279112710558893 1.3145485608037102 0.061967154739432664 -1.004371625159664 0.19008654180987264 0.5206864424871807
Ni 7.557843621236717 6.019355453389157 6.199719801687623 1.675439320447295 -0.13184025657346973 2.1764323982706064
Ni 4.638754296787547 1.5902741440762076 9.983562669653505 0.4143715838783251 -0.25283560001263555 0.7414724702634392
Ni 7.28205318969345 4.460866226028601 8.811209691377304 -0.889492679030881 1.182256739807338 0.2830488903712222
Ni 0.6090123444875857 3.041828572938143 12.013282973405794 2.4850642793172555 0.931633316954673 1.6636227874283414
Ni 2.333333422667201 0.8983356837365427 9.071647758017866 0.7838419363685855 -0.03714395604014893 -0.6680759596491591
Ni 3.0593376060458612 3.8671247229033248 5.855324531689749 -1.3102732517593434 1.5088809436663497 2.210617785903064
Ni 4.59677893752243 6.13346988186581 6.0549247299061335 -0.394254758523792 -2.0487293037939622 -0.21123617930429428
Ni 7.004808304077215 1.9866360390570157 5.05257241985559 0.986391129421843 -0.1561667491339762 -1.2280830541128334
Ni 8.338292559945568 3.3098650041051347 10.625330802110547 -2.798879761447373 -0.6082584732708943 -1.57776671089447
Ni 2.2013764556903017 6.190323287253148 6.8023427386966935 0.7021016817753005 -0.10997122441452029 -0.24685752805232972
Ni 0.32564948772619784 5.71290105381068 12.446569473762658 1.484824159827462 -1.1799748857516967 -0.8502540452452324
Ni 5.958592623678298 3.151848296317647 12.101117176951243 -0.8542423404690191 0.5902527807220932 0.03655028832020802
Ni 9.232346405003598 5.837974840047349 8.294264289708666 1.002290574260919 -1.0856097433055496 0.3261863449906447
Ni 9.166590258443502 8.465793524316746 12.91489256841232 -0.8080236758211117 1.6833884000910428 -0.8208701927664767
Ni 2.7577005065816773 2.925583415564784 12.996788523163035 0.9523834050178309 -0.38970801969337404 -1.0190315411646838
P 5.76942095380549 7.839998447354059 13.556335533111646 -0.9741097409513289 -0.76454015071618 -1.3109129422258714
P 2.644271616967443 8.139893907546153 7.683505673929651 0.5351062174569364 1.0427132010523397 0.5665392391552373
P 2.7959331942195362 1.2000913628958478 11.32264888971246 1.0243151581611265 -0.040519814490917315 0.3050343935033779
P 7.718908197750362 4.300505716454737 12.812686135256651 -0.8448112769631064 0.7950722578667662 0.26050622918401584
P 1.4685446758034992 7.3941387936988905 11.583697456502122 -0.6107539859992385 0.5738365441475988 0.3110471753563611
P 1.923436767172966 6.92607323932457 4.610187707109791 0.37570502054606264 0.5951908414536589 0.17962395171565196
P 0.6074726612587481 4.8311220600054146 6.412485125274048 -1.1694112513032375 -1.2352332920043694 -0.07534412125895411
P 9.135111055004334 1.3992126103124074 6.335728859183737 -0.1931916630977576 -0.39516827147699685 -0.32776268833882904
Ni 4.797400959205365 7.965229722248311 3.8124798643376168 -1.0012474777083853 0.2132447250938908 -2.6962415803591564
Ni 5.244288921154161 2.9932386900545542 8.178688922331968 -0.3282756234195056 0.3107373574254261 1.3938356471630318
Ni 3.6745624148731486 3.9627944503654446 1.2356467433548017 1.8278910826235293 0.6409785892117348 1.5605935415492929
Ni 6.027183566074883 7.666825772283912 6.878354176077027 0.8938260162989122 1.0036709995482134 -0.48934212384794445
Ni 5.884220921144561 7.919502427317253 11.317387842145333 1.7630668870592925 -1.1620388700985664 0.5743330241680431
Ni 6.8835327736998915 0.549562229057871 7.073764249597844 0.900219835640398 1.7396333386267007 -0.12416191409260552
Ni 3.4422944370547817 4.73527631580835 8.368648961896557 0.2794470319525768 -0.3801987946513581 0.03048454174210234
Ni 7.955641442213132 8.301588438690128 5.343830090381209 -0.9700340282200585 0.9673446543133535 0.3656077842110607
Ni 6.417023577824033 9.001421712794025 9.202260512982104 0.33564080553532516 0.14745276629974605 1.5479174887435212
Ni 0.01168658479650087 0.6196335648357332 8.43745946200989 -0.9673670229108565 1.1310989859866003 -0.4899877278517432
Ni 6.151182723824519 7.186615063198364 1.9840133897063303 0.854564242584812 -0.4293950538703508 -0.536838883877327
Ni 2.286522235210428 8.630767525153914 13.22625783489577 0.6434149665673693 -0.2840297662272528 -0.8844162929492383
Ni 3.936743973593538 8.333132490400066 5.682761430364834 -2.6543092017914285 1.0739490191381695 2.943578876261382
Ni 6.487615552575787 0.8603753588359149 11.435798005358519 2.1883294068185086 1.1421251618937749 -0.3011540846123652
Ni 8.411552577837545 7.962487566798636 10.528655926451501 -1.2758106992060996 0.2525869743369392 1.0004566063759737
Ni 2.405546604188187 6.263379496294135 10.084399877892073 -0.19865808552896758 -1.6413133252978636 -0.4337895833936207
Ni 3.555945663597368 6.670793389421773 1.7529432520894601 0.07695774560297713 1.2558771935069661 -1.5275240126888339
Ni 1.0041754728630294 2.927491807533138 4.800811978247832 0.021223171044834416 0.6670182078086061 1.7166201655609792
Ni 0.035299692991349114 3.9442571089640985 3.038431449953698 0.22402381798726578 -0.6206051677617054 0.6686369743589516
Ni 8.412747638827437 1.9991054351220894 1.3297156449327876 0.5748634427502165 -0.44938306695650343 -1.5872697652888987
Ni 0.6899355751767607 8.01195753335695 6.396160036309805 0.9068707652980124 0.28644968852265507 0.9100586761076908
Ni 4.574767581615584 7.046802191419694 8.50140356260392 -1.4483299215561702 0.9411006330151599 -2.4708090549498225
Ni 1.0286140069043845 8.002313669089684 9.335368073563224 1.9960887947801107 -0.5264631970699578 -1.2922822144985615
Ni 9.10504924948341 1.4356110182913624 3.508340548025605 -2.486064695557312 -0.06857800617971414 1.2364856763542316
P 2.4043330151209323 8.717664207984813 1.7376084888602505 -0.378576942777219 0.2944663881795445 1.5321113749492
P 6.882226544245824 2.2711624590767787 9.347733712395067 -0.10637630797441035 -1.633616213763922 0.6003302195627532
P 5.7109092854941945 0.2626114101152031 5.1827108560393444 -0.3005311063163856 -0.6606449572924106 0.17129717701751143
P 4.601095979547931 2.154268818995726 0.4038250045424897 1.4576123752993606 -0.5127633309853621 0.4901504786818525
P 7.35699926262543 2.901191201716835 2.9510984309009096 0.24346418610006457 0.07241794875109464 1.410654004271951
P 4.045105434049083 4.598779969877598 11.858304870305783 0.788449610343926 0.28310031243444794 0.3262393097157672
P 8.533383950535748 1.4594566538571123 12.474406057192326 -1.1237888254784323 -1.503814841997352 0.24677962362654274
P 2.9955824918409313 2.6346277527001756 7.7222302820214885 0.0857293211480201 -0.48284571749032335 0.6528478298454949
Ni 0.8411969459578205 2.7673165787329 8.588600400288094 0.10457113644487152 1.636073417055163 -0.21093818844790124
Ni 4.724668991518224 6.073892849106161 10.307524249531964 0.6768529345108407 -3.0343794412847225 3.0522228972240466
Ni 5.033031783065056 4.118050474625895 4.716977060201113 2.069370634193397 0.02959494004829742 -0.9583159684521818
Ni 4.93030285812776 2.1960311053711727 6.16683894919597 -0.8583316800470445 -1.4372520664754538 -1.3450376518237221
Ni 7.828131213803272 6.609780430666518 13.231912604106856 -3.453708112058006 1.196147124636185 1.1123705563391617
Ni 6.454579990638155 6.696603001187965 4.2941172353800905 -0.022175250545458585 -1.7503664087734887 -0.06640182446400177
Ni 4.59163739605429 9.158623185177555 1.6542756817100608 -0.9164728071641507 0.28057446068880065 -0.1335994053564215
Ni 3.42691613284377 5.460066910119756 3.6509659819479263 -0.004676579540062914 0.024899334344840988 1.6948910014140037
Ni 6.800638155579329 0.055878828518060995 3.224364411903513 -0.29199581515186485 0.3790451406628892 -0.3828007510505794
Ni 2.8494700737589564 3.249333775361308 10.569522380286465 -0.4450795544851432 0.846836277812935 -1.1453112729312405
Ni 7.826009748945246 5.696197992068238 10.942458300653787 -0.5383136686506407 -0.7417833166356386 -0.5302131510306933
Ni 3.891276071745558 8.462514054623554 10.425391540078426 -1.4434499677560495 1.1054787143153346 -1.2865399126981456
Ni 2.4446315833847287 5.4083921023552834 13.116824525164796 0.9607675153164679 -0.05812441494655796 0.8848988890126114
Ni 1.8272482535446912 4.988768206245649 2.070003123150326 -0.9246807968962397 1.5437805837570124 0.5227250701837644
Ni 3.65913779046873 0.8844294352719946 3.944352528562516 1.452240055243854 -0.6522508196914444 -0.8092470067052515
Ni 6.510451407925271 0.5618380067145046 0.4213034663225596 1.1526450875884922 0.9436678795217038 -0.053808046959391204
Ni 7.810112658568079 3.2766163692778325 6.947260095788777 0.9776162114426907 -0.7379287187762389 -0.07904188182551548
Ni 2.4562857440458448 1.351132249556292 5.887350313411115 0.2423087323393827 0.5842513117230195 2.2698547171875103
Ni 5.32548822019604 2.2837800797607537 2.712083453710928 -1.4016111773433926 -0.8113787083362737 0.4160967940995479
Ni 8.238435486999485 7.95583598702544 8.121063822522476 -1.549536255293867 -1.485877026572009 -1.0708356703201687
Ni 0.8763947345236749 0.4325907710518951 10.974457216662977 -1.059407373878569 0.54073976159363 0.7567453372621096
Ni 4.471260477429056 0.40875625233256296 12.583229793178068 -0.49232923150072627 0.3510347714928922 0.3279598919512997
Ni 6.402349340552803 3.5628473724149607 1.0720123225109544 0.027498719640901028 0.03656442938759509 -0.46593402933664924
Ni 3.866365071731455 7.136996872021147 12.344647446594506 0.4689175374450053 -0.9672772914105277 0.8412017052349772
P 3.1618071379000794 2.9178016230724646 4.049298337956254 -0.1747357703854152 0.03316671655995578 -1.5237707162939886
P 8.246300655839937 8.834335511137514 1.5298188804495683 -0.1760971695093161 0.4121102986479741 -1.325694728520736
P 1.019211007642832 3.8668468017428843 0.5805467328314555 -0.24784611721784414 -1.0487812616232906 -0.5609422046834339
P 8.49037101893832 6.229612075300679 3.9580067951749323 0.8462927466046393 -0.0946757317080305 -0.20001151423306845
P 6.668570020138253 6.677129991879805 9.402402657461346 0.6078267850501146 1.0823277301201681 -0.501166113066066
P 5.901572465594697 4.591035233540004 6.972655605025913 0.1295568598559317 0.9205387497034083 -1.4356476981028115
P 5.384148113126237 5.167795753762399 2.4339909085553506 -0.5967931529437722 0.19060513331750398 0.1694956050323984
P 0.8707835062943918 4.437993314524392 10.059803855193135 0.457907816598063 0.6106843091035676 -0.1475720654864297
