# total energy = -340889.3232153445 ev
CRYSTAL
PRIMVEC
9.08035567028058 0.00000000000000 0.00000000000000

0.00000000000000 9.08035567028058 0.00000000000000

0.00000000000000 0.00000000000000 13.29001837987389

PRIMCOORD
 96 1
Ni 6.470561410731759 1.6202713856749724 11.511335500305071 0.41253375933863784 0.5296755333596684 -0.5982219149704988
Ni 4.520182782977914 0.5090683355276188 6.229457088680517 0.41244917004463155 -0.024169141047035797 -1.3604766120866119
Ni 2.6735108948340915 1.7641314570909266 4.737146980061706 -0.5969034532693913 -0.25745227284904043 0.5453338087222157
Ni 3.107170510480316 4.46242264195179 4.754264358123071 0.9963585250472001 -0.46426461205402625 0.29807904523146733
Ni 5.1988757904791845 4.631063003394515 2.5323994470132654 -0.2458134030585315 -0.4310120206484835 0.8555561741844362
Ni 7.2730559844569225 6.3063885841711045 2.520797476853058 -0.49128099274187 -1.0455673826716831 -0.43946117985710126
Ni 5.020937145054264 4.211305411944328 11.703256077054002 0.16568805836085013 1.7030825360858606 -0.0729923331973259
Ni 5.677228915657022 7.857349616685818 12.495434458950873 -0.4956382412693013 0.7269855895011738 0.551027002452251
Ni 1.7843806497474672 6.2403925607505935 0.4842353794392295 0.09136080840218459 0.8629522095381913 -0.9885691109097684
Ni 2.832925615138231 1.4041589259325178 0.3727249823543035 -0.1726215522558898 0.41482204115218235 0.9245944078300206
Ni 0.9491059928428809 -0.12466238392068102 4.563087462485607 -0.9074636616870049 0.49283342483065434 0.43674583780846715
Ni 8.761807501774344 2.1748722555779088 1.2449530538037594 -0.3401865159244787 1.197884419042266 0.13519657464021234
Ni 6.78586767342491 0.8164211148809201 4.732322587210397 0.11154499665954339 -0.22255957473691346 0.2446669481589141
Ni 0.5353650449147678 6.940151992899029 2.292461950637523 1.093427953798388 1.4987176299801028 0.8346641612267754
Ni 7.571327500323315 3.9749891613225894 3.912262065864569 0.27628817460862093 -0.1356408612664825 -0.6053531266986413
Ni 7.4955973358589425 3.493975491997504 12.542467976082301 0.8662159678911275 1.046964777239842 1.1773621307191982
Ni 7.956625142835577 9.004443679790231 6.899432954948479 0.4243083833760628 0.14881622230617597 0.12301623052393654
Ni 6.859990614974391 0.8255123667588253 0.5574802506165639 -0.3838381911761583 0.8150641276076608 -1.6287889675786078
Ni 1.915428339621547 6.546736512613249 9.198087708003833 1.5127339988638526 0.4889497735055321 0.928319936310724
Ni 0.12525442309610993 4.723682628998424 1.7210043088746747 -1.847301625939657 -0.4449936796395562 -1.234175025943184
Ni 6.473267356656266 1.9139936434602318 7.063751067196355 0.5222180486403587 0.7700189144425641 -0.7962433953567319
Ni 3.330102317166744 4.419908417728505 0.5192764711260418 0.19167856888734086 -0.30738052513805125 -0.011055743593529347
Ni 6.167095931547187 5.759051998629259 4.7467957657643245 -0.048428784925348856 -0.27276833438082054 0.8800647008487618
Ni 5.271518634090094 2.8348324897830177 9.264351601910159 1.2890989316745733 1.0424283228220692 1.3253877388032786
P 0.10661699353218608 5.557177536234542 12.589155531671032 -0.15306162784609123 0.23036930058931937 -0.743029530337914
P 4.037888783534186 6.16838534202128 12.528207277845933 -0.09073834432683728 -0.35977292269683847 0.15608910181850538
P 2.441689420160778 8.565789868645757 1.6335559457003175 0.6042647787304691 -1.7825756465161815 -0.5810338332269864
P 6.499182691114457 7.764330455442049 5.892966356719334 -0.30005133846648974 0.057702754028107074 -0.10958453049906289
P 4.6886052158898055 1.2945771963454615 12.493932568159217 -0.6710080456942895 -1.4571557473779162 0.5608941250543179
P 4.127312124019214 6.16606077102573 8.455468090089415 -0.7082296490499093 0.01936709167270213 -1.9918896690970986
P 4.609206587823082 1.2503558652973206 4.007352456186795 1.3215740214841432 -1.1185905691069447 -1.0972743241276717
P 9.219194086214982 5.583973665171517 3.9591893428372167 -0.09644516490362745 -0.1919030261933211 -1.1646737366182522
Ni 1.3427121605931402 1.0561543032590068 2.5061917251095394 1.4247192241157656 1.2070665997621663 0.08444454089832554
Ni 1.8422497550390078 6.76149599939345 4.666430987877576 0.4121311245835806 -1.3814557854414402 0.31207870194466897
Ni 6.095233998505095 5.398570967565574 9.152409887941293 -1.1379877426866336 1.6555441241852649 -0.5711793090304099
Ni 8.381467733338527 2.4639998535047782 10.227599340332992 0.9383927471656935 0.6312191958321258 1.2321999044946843
Ni 2.247914634828678 5.33468158660978 7.015906674323121 1.0377262893607098 0.7655763052901783 -0.12521246684430695
Ni 0.9962875197681663 8.906103430251964 8.623945913169562 -1.038741103778469 -0.6892821614131289 2.3735177399958154
Ni 1.5169187799275516 1.2898826525771068 11.539855988742259 0.029272780822188295 -0.7447241444315174 -1.2233002880122092
Ni 4.129591293237507 6.648218565137689 1.3865339560014212 0.07986154951333342 1.7850109954305515 1.2920014500333492
Ni 5.637783851576298 8.08576595806487 8.066070667090862 0.7162203805648697 -0.9957512304805045 0.0604674612574378
Ni 5.25264965546216 2.9132231983946397 5.09576472218677 -0.21847923401995276 1.1353215087083801 -0.2005586449857901
Ni 0.7855996643723564 7.565588715678053 6.736696640620231 -0.2660359007529934 -1.0412854674668774 -0.24054984066674703
Ni 4.910265772813044 4.668283380389654 6.88076102003384 0.43561069576275946 0.2698701868974191 0.4245750067738882
Ni 8.665909867852493 7.241774159926975 9.640380017577668 -1.8779167797223528 1.2226809092606556 -0.30102835766777836
Ni 4.7999394540789755 0.3705565934725179 10.361283057394603 -1.6163774812881324 -0.5022418626287478 0.14878665461982118
Ni 8.205399641136585 7.436992721775842 4.520094703530035 -0.333591122095148 0.1475008459288621 0.6963740352629039
Ni 7.337145133232647 6.0223187442306445 7.238395359663523 -0.31504112700710263 0.732304430610926 -0.6973214867778378
Ni 2.2804404680554624 5.219224867045691 2.635981785753606 1.1463589974694643 0.2761004840778471 0.4647821751203931
Ni 2.276917290140333 5.419528427947321 11.399101398890672 0.6860945077137668 -0.3004208059907665 0.08236348999958074
Ni 0.9231997387401404 3.4520333301676547 3.6495455898035365 0.35830867944648614 -0.7569350846754125 0.5686128338548142
Ni 3.6007059899728318 2.7125927446967606 2.6512658400493407 -0.4406336028986476 0.4053292711703987 -0.3094772597660799
Ni 1.3361561439572558 3.4141137658027607 8.121795900460336 -1.8939740902955318 0.1403341529770938 1.3942925321947923
Ni 3.44094621616154 2.6677448691224757 7.065173050860039 1.8373527422570615 0.25695373594606713 0.23184819912769103
Ni 4.4011574837214384 7.121541173395469 5.9310430112335375 -0.615325921640637 -0.7222943546730916 -0.13178343519360533
Ni 0.9170250970332131 7.6435889690052665 11.673008505009964 0.5500235008884011 -1.243802007509987 -0.45678167341341974
P 0.28196228944019835 5.836843403781091 8.08547447865488 -0.5323571939568896 -0.9327646023456387 -0.2071401548580497
P 8.476657099535172 1.6721928581458698 8.228315734189193 1.7349462175636767 -0.16519003567850907 -1.4806633435815533
P 1.8194489825006335 3.244338359928615 10.316788407647378 -0.25356476486917623 0.13900900640776703 0.2571067165841637
P 4.188159585898802 6.122711154100921 3.823870253758815 -0.7391463932334239 0.7990860070118496 -0.3938482671139927
P 6.72187840855915 4.169072678740036 10.635257358144237 2.6551152426324918 -2.7641091907354074 -1.5353771901846653
P 6.523953900785777 7.9152096416219075 10.144230780862932 0.11431921697057086 -1.3054107814607194 0.9545277050543431
P 2.55390445282873 8.608603744598938 5.996615890090015 -0.36448781167400446 -0.004353906093321534 -1.0560767668434394
P 7.088034661779937 3.9217328766003416 1.527182305694228 -0.32887854711082715 0.07748636441293752 0.3496923985323848
Ni 5.10468526338219 2.830673686986293 0.6816931569424025 0.37051010660868444 -0.16673526867844188 -0.7002258049088264
Ni 1.3079888813471259 1.1775677359991898 6.927953443385667 -0.08045238901979694 0.6268724888276559 -1.482258455982815
Ni 6.873193451800674 0.7342738632190687 9.211404957308801 0.37109400413661253 0.06484682127205606 0.3167897342670931
Ni 2.6267198231932145 1.461274361721595 8.951477966442427 1.2208569686780395 0.09897564463496503 1.9183646033247546
Ni 6.373165518160433 2.0704844893090324 2.542792821862896 0.47228054037996725 0.028104985766332243 1.2427157164243436
Ni 4.460642892283322 6.917187773962531 10.47183002876614 -0.4559787178961502 0.3293364605838522 0.118878297096163
Ni 7.991021529285343 7.126825940268162 0.3317417060601189 0.30376838230676073 0.16070526043427807 -0.3504043369977449
Ni 7.630831069596101 3.720448637309964 8.334834659882503 0.535566959143439 0.6216480072039229 -0.6612404247845644
Ni 3.076288221590228 8.16200462243452 12.691275933183704 0.6455826636426494 0.5658252438073481 -0.33772931263323774
Ni 0.07156954559655787 5.116753055777052 10.328350424243599 -0.05680518191450217 -1.892229596800599 0.18814047382709534
Ni 8.806855145168559 2.3998199011745402 5.539026813722812 -0.5881246786354968 -0.2518575523700824 1.1306374729691495
Ni 3.3869998244249886 2.9210777058600694 11.87887105951892 -1.296180006891071 -1.3255337774628397 -1.063670262919981
Ni 1.214751791572524 3.47710419156887 12.54483340867738 -1.800649987519389 0.5801601723727815 0.898400265933156
Ni 3.289912663939009 8.213027139715733 7.923149504428579 -0.5336329753455197 0.11884538697569853 1.3297822683265486
Ni 5.711525418196821 7.880786014105788 3.606073388080133 -0.26995631885332216 0.28772624124223345 0.09684214323172999
Ni 3.2690550874672266 8.418461101447383 3.8421045155406985 0.5133073764142901 0.2192683055801514 -0.41589856204581277
Ni 3.515505014772687 4.229802095998755 9.231472542856315 -0.9952033283968345 0.6746009052518703 0.12894056642817148
Ni 6.9242068887264345 6.026759038046362 11.562142813162087 1.1101465521046494 0.8811255380131083 -0.3301332454535346
Ni 0.7755840323095025 9.021968765811364 0.29613127608650613 -0.8796021593900463 -0.07796124716682702 0.19084013214644552
Ni 4.521018175679439 0.3805704094642817 1.979986942774107 0.15739316534190959 0.084021594428294 -0.9394864944505045
Ni 5.854495614778542 5.325310659783972 0.34906339211914017 0.8590760144122367 0.5120130830828988 0.24861204884959115
Ni 7.966913185561972 8.707915592170501 11.625456499582265 -0.3911061855924813 0.6496997711348166 -0.05700187130634054
Ni 0.013103860951862856 4.875733181031508 6.026624648785682 0.11779740532715842 -0.42319175327311637 -0.2081490557385383
Ni 8.205590328601065 8.775954695567568 2.2868530150752155 -0.40377863885382725 0.8621381982773282 0.6148896054341668
P 8.6852691856748 1.3997549535386067 3.6457445530115957 -1.6332403184817421 0.5319031371386066 0.024351946481803218
P 1.685286730706736 3.2613912674662755 1.5302923274363198 1.4009133799454196 -0.9811568776060974 -0.03267769273867921
P 4.83200218917774 1.1742352455485392 8.23175718890526 -1.3557799779418906 -1.8275774080378526 -0.06786298239056056
P 8.652016924011907 1.6499641480009315 12.3787609717563 -0.4312843004732637 -1.0752916492089932 0.14078049648589303
P 6.249382112647444 8.15913523011189 1.4357476664767217 -0.13629032192502333 -2.1147544616448353 0.5641319152653252
P 1.789365764890266 3.327459933730397 6.013174826291121 -1.5316627174475557 0.2490923309201194 -1.0679511496835221
P 6.9885775285211515 3.9125889586608187 6.048274032252823 -0.4050387365131734 0.653763399681229 0.6695507444224726
P 2.4333808949227804 8.632503240146926 10.387810407810218 0.23982478957526437 -0.29158392442542685 -0.6595062157022771
