# total energy = -340869.0190054829 ev
CRYSTAL
PRIMVEC
9.30210983107306 0.00000000000000 0.00000000000000

0.00000000000000 9.30210983107306 0.00000000000000

0.00000000000000 0.00000000000000 13.61457800944508

PRIMCOORD
 96 1
Ni 5.746787625741399 8.492984389119245 13.006959681373175 -0.19810298435644594 -0.20780092837050018 -2.0022103342968167
Ni 2.73613188056731 8.233697380375366 12.899444966019704 -0.22033814160556248 0.7433956554280811 1.0365824055642536
Ni 5.59428883757511 4.6242555248528445 7.44522729790952 -0.46916307779690813 -0.46211902646593317 -0.9720613430627324
Ni 4.806865242462484 9.057836402893894 3.6021173742609536 -0.45262805625636243 0.017118919068473744 -0.6413971648063922
Ni 3.363977781950968 4.834139028414879 2.7166123333495387 1.0214609765417828 -0.16380061153015016 2.7087811075870643
Ni 1.2742681160507174 1.841780533229999 5.093417665259931 0.5086606216708982 0.28105808519343856 -0.31581451483801737
Ni 0.993102545042162 4.84532946651199 8.872443494030176 -0.5863981828626933 -0.5479509346300886 -0.532767799131747
Ni 0.5860133833732507 2.582088942173157 2.3018303268707263 1.3109638500684648 0.6735590942509174 0.9944602795832228
Ni 6.162229151805486 2.7924747596647372 3.4129431577609313 1.8257794355971653 0.9426458660150927 -0.68833239590535
Ni 8.229520733072288 1.4301993827355721 6.317000445397481 0.2583200201659745 -0.59862429261524 -2.3430288273783386
Ni 3.237115608411145 5.449771259622721 6.544186803410419 -0.5624149325742185 0.014729335790374633 0.09847967883515296
Ni 4.024269442339385 2.358717379391828 3.2621894453943243 -1.7127624823777858 0.16526665455271536 0.3483682804043226
Ni 7.7413367083220725 2.1086394593562954 1.5525928227243952 -0.09488964749104947 0.019114352231947726 -1.2775881028214966
Ni 8.17349412570828 4.314420851420933 2.582467538042278 0.30989197870599533 -0.3855135219960522 -0.6525611518430117
Ni 5.716034850721407 5.7331693369848145 9.646718556931441 -0.16782387375693034 1.3067829792178978 -0.47976347902057376
Ni 0.589389119021997 2.7356481708573765 13.433518158866903 -0.5282100045577355 -0.13049685517169782 -0.6763831939632738
Ni 8.51590478768224 4.984954134706208 11.763730845324485 1.814746060601139 0.5217033137874694 1.2370592894695147
Ni 7.53030904525385 9.027046419434676 0.9032711404306779 0.6282678265132857 -0.2580179155445234 0.7264158330406328
Ni 1.954708146279819 6.485077476856565 4.478052404603534 -0.4871543721680061 -1.7570440779039807 2.091363593524721
Ni 7.135704245156122 0.5018060343507221 3.1486162659239394 0.8908188540414722 -0.5731058366291615 1.5807921279843549
Ni 0.21473269340411555 7.393735469076136 11.578736066760483 2.277391648994504 -1.0354282373551522 -0.7866367255049033
Ni 3.951275786688484 3.304444279189943 5.6797845288058255 -0.9998922492320715 -0.5288553514512182 0.2691747034922912
Ni 5.460115205727449 1.1044487994248926 1.4347453237979648 -0.12648721979167246 0.48013757453054084 0.35102782951435674
Ni 2.3926514759656126 3.7312064728884313 0.9504253954613326 -0.8128714908317162 0.4459136203506643 0.4082078782697744
P 0.26603941025235184 0.6400139912214234 3.3514738859491917 -1.127804888616361 -0.15937060078325455 0.8051841494897874
P 6.1241277100384295 7.703300381323661 10.805808879570167 0.45090438869703636 -0.461456967401902 0.185832394519209
P 6.984284501727378 1.3272994440570622 13.111069824537498 -1.2656201318263427 -0.09253991631195031 1.340210148528092
P 6.645297016162175 8.911709559944994 5.582766314157909 2.1067287631268816 0.15955392043865427 -0.7527603844724325
P 8.913811836761244 6.562387311457641 9.49228772055836 -0.8135970561438312 -0.3020475429609121 -0.062489376783473015
P 8.759750294147477 3.752805971858916 10.09108406322758 0.08331454105894039 -0.867884356732486 -0.14468625929820245
P 4.057589599665947 6.773191723890509 4.109070265967563 0.6107305889604708 1.3704131544740334 -0.2979026675546031
P 6.452845666377354 2.661231292406095 7.515220092936873 -0.5345817124120341 -0.2593530894161792 -2.5698556620320385
Ni 7.631729948473141 1.838199220954531 11.203314077505535 0.3679207486149535 1.814863817125926 -0.8989515104509357
Ni 4.200869997014084 1.0260692221960799 13.062316536831121 0.47269165977545685 0.029139597678433684 -1.762266245534868
Ni 3.915137090090581 3.733606417218485 12.937551989052645 1.0739317927469891 -0.5615415288303297 -0.8083458350472207
Ni 7.008293247137721 7.3573363134036525 8.198848886407612 0.6276178516341127 -0.7733394941753648 -0.013381820623544694
Ni 7.896877286395058 5.074514847922325 8.111823928324721 -0.16828410122280052 0.8375365976785639 0.706867221484744
Ni 8.675380158203337 0.0860063770590883 12.434506913675708 0.003499528512826231 -0.013962889937995307 0.3763012593691648
Ni 6.396000473350382 4.440603970944888 11.514052916010629 -1.2352273784670984 -0.6385267852371326 1.2838381974962663
Ni 5.07857056779792 8.558592169583857 8.151129063100727 -0.9893556113668058 1.5295464424355012 0.7742149548017827
Ni 4.33111813852344 5.771466123057805 11.649367916731537 -0.1469164341803018 0.10746105639815685 0.570067821133786
Ni 8.02040000251438 8.587261272007213 10.077986692620152 0.7107385315146921 0.3132382694704089 0.17722022737016577
Ni 6.692095930598225 7.341662258379851 3.6775016721321023 -0.08362667298272049 -0.33621030488555 0.6580468575479312
Ni 6.701407342514442 4.25335250054185 0.6197428335312942 0.26113254991410506 -0.3406467433903488 -2.0500140840436565
Ni 3.259031379115048 1.550196599238264 10.717681621475219 1.7972394191759433 0.1637108800298213 -1.64120996695078
Ni 1.128271502639109 8.036278703953922 9.332861651219236 0.9138034878621035 0.8026806663416434 0.1186625815409311
Ni 4.067700993025515 8.08709612982634 10.401075012104238 -0.9955681679354209 0.27891352804660996 0.262691923981425
Ni 9.056273648446416 5.815799978395156 4.328891213435785 -1.0373059139938392 -0.4908508471829869 -2.194038284277828
Ni 7.902523667047549 7.0250463468990665 13.051819105914587 -1.8322552731294959 -0.06754622248109013 -1.0103903205499178
Ni 5.218520809835361 5.26550576646754 4.910560511529442 -0.35196833905075514 -0.11592615644637455 0.7394266434780039
Ni 4.072854361858266 2.5756704864067337 8.379445627455143 0.464644106880632 0.22487356758207078 0.04806985892403334
Ni 8.943746026118271 8.669250067840911 7.198300002465418 0.9571204054821838 -1.1968899163394806 0.869657646582825
Ni 6.0419435698987956 0.5201758407964211 10.181090347503424 -2.168237778274956 0.10668098369902274 0.6000767087910504
Ni 8.650478410251576 2.950666439032549 7.895148024182046 0.9417228399801909 -0.19518066850332838 0.9459265936488934
Ni 0.3600930425049656 7.660501374104368 2.7994699462391575 -0.7961233248390999 1.6552736441326978 -0.7847287098489131
Ni 1.9251553434248538 0.6874445189133285 7.116912122925213 0.2136951823677481 0.11859007643178286 0.5700115139745537
P 9.137304326970055 0.8767591972714281 8.819905177843571 1.3146099314614843 -0.2546286873573163 -0.07248222633012678
P 5.573628851695073 6.160331521404979 13.544517444553854 0.811883415886834 -0.280251273021427 0.08879793277101482
P 3.163228950218829 0.26480222964809924 8.917480588868893 0.47272611255781816 -0.19015673292617574 -0.6880392901449635
P 0.5808562936965769 7.960261862615937 0.20828354067533136 -0.6684680528812552 -1.205246258723976 -0.18435246753957282
P 3.6846680175269606 8.879580072673654 1.4948536969450263 0.6325412570776591 0.4476442298885258 -0.5226119416446677
P 2.114964894024655 1.4193066121522657 12.345780599709226 -0.8247654140558247 0.32862477922880823 3.1434800901688313
P 9.06952915492055 4.757424528841414 0.5499230577463403 0.028342555698435058 -0.4434782714362943 -1.0294018286554143
P 2.147047870746963 3.6625941109563493 7.269381144340121 1.1223058131750026 -0.665856583400337 0.9273215769531965
Ni 6.3115373163081765 3.345373562338148 9.458509899429323 0.5092627740312713 -0.5212878235166054 1.198894091253703
Ni 5.663589555632866 7.7798660471402235 1.5608837931948487 -1.0463574826731463 -0.9229021077292622 0.7439638692267252
Ni 4.6392691300803905 8.440455375042447 5.831450778144442 -1.2650200363484987 -0.7760674346294892 0.48381065250675387
Ni 1.7394294190300672 5.502421201127003 12.94975077585277 -0.6001474141279859 0.6113270848938892 0.2458190594854863
Ni 2.6056418842029876 1.4406828604873965 1.0040288032207716 -0.11557725774738804 0.02334253138068238 -0.2450824384297779
Ni 8.633995071674617 2.8423340682270957 4.510945595089981 -1.5975870880545067 0.9263291311329401 -1.175862149134904
Ni 1.9330249283210768 8.696533155903113 5.325478328811428 0.1047572843137486 -0.8402899920539851 -0.771640252096071
Ni 1.6707612444391469 3.869389314062655 11.258602097350913 -0.009480685796925606 -0.9666232027662965 -0.6030481327145486
Ni 2.7631917179941574 7.660724624739722 7.631801574718651 0.08143635019962103 -0.2110811417836687 -0.39228940726730505
Ni 7.121416204493476 0.7743122713404903 8.143219479132336 -1.2305037477391843 -1.2361915421525806 0.8599617594512996
Ni 3.019632281137275 5.714862784885798 9.462920959899522 0.9786986458735919 0.3740507727720913 0.24909361647170003
Ni 3.5492106945260153 5.894216764063194 0.8875617373896123 0.9249607900305038 1.6477130581766204 -2.6486813140816903
Ni 7.501686453379526 6.290235484851498 5.896800890167415 -0.9926368532212387 -0.2516742327146827 1.25429365106993
Ni 2.602339635221712 7.346583074467443 2.613331938379947 1.945481514146204 1.2528687456979455 -2.2052611495768404
Ni 5.804953718360882 1.6574871337453998 5.47325071498508 -0.11995790331358695 -0.5976102495284289 0.6921229732960338
Ni 1.7332156096793851 2.193865389402626 8.820476327385684 -0.9544125196327174 1.029391030022137 0.9823647818712694
Ni 8.705332951779978 8.233157858006594 4.916046895893262 -0.25841797919641946 1.0030030269469115 -0.5296241112964427
Ni 0.6770791779560456 4.382400669886179 5.8934921297092755 0.6413321158964116 -0.33660214100733 0.6175740942448654
Ni 0.6458901339861328 1.2386131291627471 10.87691792777429 -0.19939444947435983 0.17727782008097856 -0.8551232004120756
Ni 1.070086805800013 5.468180134929606 2.1968615989712705 -0.04435718595913651 -0.7282971092237457 -0.1137764570932234
Ni 5.80223750229741 5.257850130096864 2.356302551686084 -0.5107234177371979 0.8891165266383849 1.453040182547646
Ni 2.4699334042372687 0.6113569815408154 3.196294229736695 -1.0982312887243022 -1.242174499208893 -0.49086910201543205
Ni 7.95776889718782 6.517346495775003 1.548126879806338 -0.06684379709742681 -0.4059638194306041 1.7606019704585678
Ni 0.47430620713003163 0.5297570138970236 1.0709686458096608 -0.28906398621705054 0.3773021898298534 0.8325589419583147
P 4.926834552635756 6.578107877030474 7.365936113919679 -0.3428622629844289 1.073785496977112 0.3820718433043549
P 2.4508826833537403 6.813907058513167 11.348893956397816 -0.9340200720192946 -0.6184611248355091 -1.6216189321927301
P 4.670487010590704 3.408637211131544 1.5613200621447694 0.4777438774873837 0.28666874651199664 -1.740079167914868
P 0.4956750137773172 6.6224045239286005 6.264625846343469 0.0988799995973652 1.0603255148174644 0.219929336202918
P 3.45000369344065 1.1557499350072449 5.04477321223829 0.5259440913416942 -0.8967444754972879 1.5359369193428773
P 7.053985210506808 4.549466562009306 4.352144627529849 1.5459169133737247 0.37245154660577146 0.7343607989193223
P 4.43603663502994 3.4107580921674057 10.687171631521172 0.24275121919343998 0.8795707919314788 -0.18121109369711372
P 2.1706659275454387 4.025925217884926 4.183515050748264 -1.2288728970039804 -0.771074352290272 1.1416019424004535
