# total energy = -381162.24160651374 ev
CRYSTAL
PRIMVEC
9.29874007558769 0.00000000000000 0.00000000000000

0.00000000000000 9.29874007558769 0.00000000000000

0.00000000000000 0.00000000000000 13.60964603168416

PRIMCOORD
 96 1
Ni 1.6851176638777927 4.809866255476367 13.29583501321995 2.1245207970029796 -0.659088154328252 -0.27154886015142266
Ni 7.505022357540175 1.142247923590576 -0.07267337264248153 1.5119174164998284 1.8983449656697176 0.9688829453347507
Ni 7.40173195355411 8.093195559136367 0.9118502528412149 -0.22421073718709125 -0.667266062153354 1.99021330983594
Ni 4.440027469219819 0.6252110129138818 6.921512474056965 -1.5968823486779982 1.4983949565333614 -1.3867612568147536
Ni 8.138452526745313 5.3746996196576315 8.884880054628725 1.0878926258024555 0.20559543607874917 -0.8847055420548828
Ni 1.514960020508961 0.7642095083967846 12.5878066321911 1.080543898746868 0.567902438051351 -1.8140220379509209
Ni 0.14372504502792582 1.1817489711358409 4.32012393633913 0.5238069903940334 0.35582807911647746 0.36915462102205454
Ni 4.310700593217103 1.2732113778343395 3.9789299186709037 -0.5596715655011264 2.26030126917112 2.056345425578323
Ni 4.761884757045678 7.375909352557596 7.269401584529473 -1.559261967222063 -1.2855340971414504 -0.03266072345781472
Ni 7.95586246798853 0.33837463969842274 6.071780594077481 -0.03242495329792481 0.490449240869194 0.6459107364060296
Ni 1.7657284409893512 6.581471500149476 1.8736124225383533 1.2131891677201365 -1.2867923950285838 0.5948666253450207
Ni 5.74783945861629 3.540932298044763 5.177272491347358 0.7125403606101213 0.6428521520853637 0.36759704672694754
Ni 0.5244108115014106 2.6710351704883806 0.05504761096120817 -0.5141694673042694 0.09810378355297299 1.2588329337011803
Ni 0.07497016142395055 7.854469006963679 8.571164743552075 -1.1690934629525027 -0.2023131657830516 0.4482633515297635
Ni 8.729378155383268 2.699135962786354 11.81491489025076 -0.8403144175340174 -0.47896849392310414 -2.3515633472119113
Ni 7.182672236494001 2.5422383226660026 7.525399616389208 0.8683412417642465 -0.21828845816538536 0.2792290024044997
Ni 3.7411527678528227 3.831304052210483 9.876466073146938 -1.1852829282281716 -1.3285951899969828 -0.7258581607649498
Ni 5.989290541610721 8.993741333752352 13.20548008645616 -2.448424002386403 -1.3301594491603093 -1.5866552716333513
Ni 6.0965143126193 -0.1625838196339878 7.908170160372027 4.023376897981161 -0.4949273312452057 0.059957868610870935
Ni 3.91111513768153 4.812339720317949 11.878947873679715 -1.0942987864391154 -1.6329783230696073 0.7192432265515936
Ni 2.1834743357565394 0.26255085394192623 8.123692636733873 -0.15698435993926513 -0.8983028211233433 -0.4856140242640798
Ni 7.4420047965198695 5.622501742076124 4.65696242418857 0.19252574737898456 -0.11478947173877005 -0.3777595890822462
Ni 5.577142488327113 8.8820262713209 4.521723409290072 1.5800328812208273 -1.4690805238399602 -0.07019548717847911
Ni -0.1180800499655234 3.5142449142276937 9.16850557292013 -0.9152844432830044 -3.5730000996528206 0.09285513355952396
P 4.187111039798055 8.378834254639061 8.95690251547079 -1.2599284807582043 0.8374476375091836 1.660840596697514
Ni 8.639980068966088 6.774494745192934 6.609605767911471 2.003925260105394 -0.6658504127527501 1.1932788019494547
P 5.027996098535882 6.076856776246728 4.851117325890751 0.10190875912135998 -0.08472016315721538 -0.32529571485557524
Ni 7.960418850591445 3.241047932852958 4.0225075338347756 0.931681396583789 -0.6529164782999013 1.6403969841311812
P 6.969712492877793 7.336268823912241 3.263892147425569 -1.4909557266464968 0.43646584467420313 -0.5021706430711803
P 7.234968350287449 1.9589469595729327 9.8381004017564 0.9118792742561972 -0.08010657564460398 -0.7512616884397191
P 4.084797003512616 5.215402904615746 7.989692214004168 -0.062128651009944615 -0.6535026898206745 0.17936247052414916
Ni 5.232577677406731 6.155245154496864 1.9722144018134184 0.30455873941854 -0.19963073385488203 0.347445254369421
Ni 5.7363183197489205 4.551054424890832 0.0901187387676395 -0.9082092816037779 0.3266974802991084 0.7903260014310324
Ni 8.84134428379488 6.996557955274963 2.4029050725428864 1.2890706495397992 -0.36562449638160904 -0.2116763521655064
Ni 2.484232782508903 8.693261849200168 1.4076730180683406 -1.5365313583937665 0.28518316310540565 0.3986701139826683
Ni 5.319418610322273 3.142936927050207 2.7400848241505447 0.05226769905546482 0.6835617139895841 -0.4414198462453688
Ni 4.778715476456442 8.405530937196136 1.5279959241232985 0.14994236549081916 -0.07533743639073476 0.49903672542788896
Ni 9.14677069803023 5.099912553741879 12.042862343008554 -0.9627074126516583 0.3969639299248389 -1.226574587888107
Ni 6.6888161547781335 3.870005408115236 11.677647820156967 -0.27955733227819596 -0.018716088352264543 -0.1924894948244104
Ni 3.1202665989157072 8.20523607746803 5.851658031034691 -1.3519770592560327 2.0324979295367642 -0.2176917051216509
Ni 7.500298597617154 8.660362907059124 9.867251951675046 -0.07671657612644853 1.0465472300864491 0.4799254585197347
Ni 8.688826350217331 7.858513958866267 4.612581397888184 0.09940039087720946 1.2595703260878373 -0.4651467575486634
Ni 3.6170610824734544 7.398440199592005 3.639259964489652 1.1582094690501472 -0.03638342372504056 -0.6515831042004584
Ni 3.113311141391258 0.8384199627622493 10.056385533774014 -0.7942893569541546 0.3396537833494602 3.518407094898289
Ni 2.265442728908966 1.3672030418144563 6.166816506560266 1.0315633550831071 0.5242489630274585 -2.3911927886780755
Ni 0.3560571236937324 2.507163475363569 6.487405446249312 -1.547087022422426 0.9226902488287722 0.4199475353042058
Ni 1.9414746271017576 3.207098233091244 11.52641776207024 -0.3554688960048459 -0.742509910389018 -0.999817430130078
Ni 5.264686226647267 8.706466060008612 10.880476138187099 -0.8200065592146006 -1.4052719140244314 0.20374912689862976
Ni 3.4843866600685964 5.070175183202859 3.6104617666912335 -0.2852649241859345 -1.5756321810499703 -0.3754934187558888
Ni 6.217463023876658 1.3879764269877428 11.663466311773895 2.000344741842987 -0.44425937257669296 -1.6266325833572375
Ni 6.686063727736373 6.965639644755188 8.673985561167838 -1.1207338407021925 0.768680912357431 -0.11856873627554416
Ni 1.4044258980582638 5.013257595626454 9.527745655317899 0.551550736166205 1.7540531135964565 0.9498655236919835
Ni 8.512187485064354 1.9961233221167105 2.015914760345369 0.1321852986177143 -0.006971546221826703 0.25152562295196035
Ni 8.157198786597304 7.345911617298408 12.35348954252923 -0.33336872167169684 -0.021417032223195374 -0.9777828189275418
Ni 5.433514150195248 2.1711349077686473 0.17801786829585933 -0.3322757457178342 -0.06533430243143587 0.8939162620198734
Ni 2.0747162726469783 7.127316837238596 8.082183061347324 1.7997418738828233 -0.8392972891234126 -0.7372818292208592
P 7.629513888739799 3.3393263159758164 0.21806754150147492 -0.09293226665436254 0.5940757540126091 0.3150133590929607
Ni 6.16216341706129 5.606414921865834 6.726472332306218 -0.7910304836972247 -5.533740082619992 1.8651353116869687
P 8.116739968831427 4.1749854828303 6.289983897183042 0.24805411946359213 0.029971349551109673 -0.057092631247933935
Ni 3.8236232929655705 1.5677210713027065 1.8876033067513016 -0.08680558493133438 -1.0008121899431794 -0.7880168936818815
P 7.316825158559805 5.937738327017748 10.766563783492241 1.040630607491698 0.33131518157677775 0.3761513640548618
P 0.8991100491590663 6.81004382823567 10.737642842325743 0.6957595416073565 0.10321539374792546 0.3964795340892526
P 0.5896349635251276 9.447705820842705 2.541166177943317 -0.03979990560575727 -0.81889352865608 -1.267739749272507
Ni 2.7287431509652906 2.4086433250005563 13.734582112290571 1.448813546060808 1.5047833765582084 -0.6842862508604345
Ni 1.4668390409781829 6.732343556745974 4.626681077359202 -0.9028616441386192 0.08287256842551534 -0.7393363977570429
Ni 5.540170698063466 6.229839646824574 11.80304690838117 0.4769913155920753 1.7462374742067797 0.4617698706566305
Ni 2.343747418499049 3.524082981153986 7.850125565506901 0.03724577172533586 -0.5922749533584445 0.3393560496033833
Ni 3.609101361028363 3.5846363760727153 5.9802010232549065 -0.31076795355304543 -0.15959634364081546 -1.0310614757460241
Ni 0.049186615135459515 9.249642658716025 0.28794478302416804 0.4610193656438512 -1.6598298960448126 2.2945524770445065
Ni 2.889788029128294 7.943894989600876 11.435178525131882 0.7776203809389058 -0.20958475974380036 1.1426702357639675
Ni 6.714759639394726 7.4745503865406855 6.159861978909817 -0.4957768237296945 4.911628248405774 -2.22203631215265
Ni 8.626710766977602 0.2374405364298658 11.61803731747484 -0.5705033660093077 1.0948587727076433 0.7414449594596134
Ni 6.232322410406162 0.9327659087365924 2.1455466350202808 0.12658569304274972 -0.12196233533812544 0.48689134831460656
Ni 3.3833279536839598 6.2184672877973 9.969283306264304 1.1808344055385147 0.3445831023302775 -0.5352630547497749
Ni 1.1635327394641897 8.991928079451192 10.508130411624949 -0.9819078968395089 -0.7049347803487215 -1.0675248607793808
Ni 1.6438312582513863 2.5826785429518684 2.267448467128249 -0.03404269140700589 -0.13658162791319703 0.6225597203849149
Ni 5.010096024024432 1.1848547502978273 9.293877694798319 2.8423666289864147 2.249461498243139 0.22663965834355806
Ni 3.1120372140104435 5.990824833711701 6.00096882918419 0.5335951801290488 -2.0303333177852774 1.096055364118906
Ni 1.2737971984547143 6.992075962592097 13.11922218453899 -0.7644028538073674 1.5839725825948656 -0.5622354695735607
Ni 7.155687292996742 4.627899212299981 2.5072639017556337 0.025025575510060124 0.8196018675770143 -1.2503711760870724
Ni 7.72021379875781 5.765544259587614 0.5460396807552442 -0.3633673249163161 0.4390693437353213 -1.0359547992825835
Ni 5.0210592384914445 3.0314450343788972 7.928026689780726 -0.8571104060454335 1.1847671649340175 -0.8352442020999615
Ni 3.6383458983470676 0.2668152561086537 13.349796531348462 1.3077761963691026 -0.145953041825768 -1.381910870700988
Ni 5.794054196445848 4.833429262651437 9.68145289774221 -0.37415927332549753 0.1668504541000675 -1.2134367649545683
Ni 2.486529571290372 9.339561474573536 3.7773704303019877 -1.9471200781908915 0.23956485104565842 -0.13096556727800027
Ni 4.382821620703231 2.4262272423518025 11.758462239674653 -2.4960176930049656 0.9676871252544367 -0.5366877030114434
Ni 0.7738206860669318 5.114372094451127 7.177849909926917 -0.23824664645486712 -0.5994213345952386 -0.4382954416837742
Ni 3.567387213361683 6.447216291943608 -0.215614533887906 0.4694294440844174 0.8165255426445357 1.6501651192615387
P 2.470944883040404 2.6981688938257355 4.327009653313533 -0.39169368266483506 -0.017864796095562782 0.11895080220531126
Ni 9.267217277327266 0.9467419149655314 8.883002639021525 -2.363103743751343 0.18084753971010792 -0.4134562711529073
P 0.9068400917260103 -0.3326540548467639 6.365776067223519 -0.9980287136607715 -0.7384344547680638 -0.14192977959898784
Ni 0.9466117326054482 4.411219972681394 3.7747035516682814 0.13217141466064333 0.05275466599421238 0.34872309264058005
P 2.9101429710013127 4.424889120490137 1.3825087678642458 0.35267282131694744 0.22687440006218346 0.8352863681918066
P 1.5868299820149285 2.159306910481082 9.343348851377959 0.9472268005175558 0.948370941424328 0.9743863916514832
P 6.407287502358069 1.7341313224491417 4.295340004601278 0.8073168795620741 -1.2584205287541101 -0.3387166162471715
Ni 0.23489919078624036 4.747155552876257 1.4119327708650653 -0.43486430451503816 -0.9497205134736869 1.3007082337787277
