# total energy = -381169.95186804887 ev
CRYSTAL
PRIMVEC
9.20310998665548 0.00000000000000 0.00000000000000

0.00000000000000 9.20310998665548 0.00000000000000

0.00000000000000 0.00000000000000 13.46968173008034

PRIMCOORD
 96 1
Ni 1.2547887953094938 0.23958455603687773 11.559842090684954 0.25628782022729407 0.1051321511546641 -0.4770921028359978
Ni 5.57403827719816 3.858946744795727 10.268315401577448 0.05578625373168456 -1.058667924609383 1.754374244381301
Ni 3.475462364758825 8.74964492018871 9.844599627282673 0.4436219961030101 0.3860760793677415 -0.0024214649572990555
Ni 5.569445925434537 1.0470377958865893 1.6388695368579844 -0.2722389442399118 -1.1253985931677135 -0.7784436481711496
Ni 4.060835363309959 2.384544141599781 2.976058375284913 0.11050575676175162 0.44702176581317854 -0.07549195969072806
Ni 8.046159211147916 6.0666991481606365 5.481500088383717 0.43295320353525435 -0.19402778584580777 -0.6396007350276017
Ni 2.248494570213726 4.566886758953941 2.557731021746855 0.4455099571543424 1.1308776140044134 -0.035699510284138515
Ni 4.72985542634921 1.7362770910394278 9.1354880572537 2.0013559567163206 0.19799499802367193 0.9613105323041315
Ni 3.7137676885409063 5.36740085405461 6.446346751744122 -0.8268706333242856 0.8047442337388915 0.17597992720516145
Ni 5.798833435872027 8.155943107316777 5.817218488213088 0.03545268438065507 1.531035625386518 0.1911394085544192
Ni 6.511421020452344 2.885662670419511 2.7877664311105153 0.7051628371991275 0.4465201435864116 2.8513878586484185
Ni 0.4384471920663811 3.283025339954496 3.0915481994967515 0.6594614785072707 -0.7845045096532489 0.6495007677501331
Ni 6.306983140538265 0.8715667039003745 7.357395716768984 -1.318509780736523 0.015752120627934164 -0.02310316167636666
Ni 6.197475337661809 8.426035972164097 9.365227126483514 -1.4992902146541212 -0.914122304654103 1.833788936165203
Ni 7.015410919513058 6.83470785963582 11.929423332827454 -1.4491279919774331 -0.2922927775669934 0.44373769574526806
Ni 7.255621287012713 4.208766149379055 12.078182398773757 0.31108419924188363 0.21500644498000393 0.2121844021501765
Ni 2.7994663445315453 1.464334401133013 1.0027285036999356 0.007084417650607154 0.6214937410142458 -0.7094853758338814
Ni 4.637253736077513 3.452657058806404 5.440000505602742 1.0672510382927038 -1.1263722699348924 -0.13955125206448224
Ni 6.265449506251229 4.62563020846738 6.532701371119731 0.589982557779842 1.7866829838163358 2.852275146349378
Ni 1.0773344331728567 8.198065740627603 9.258923846420872 0.4814889463521127 0.3135840828456019 1.053730892319082
Ni 8.494359858923893 4.837550216605559 7.997610046300941 0.5017988615540584 0.04441400733900093 -2.298884785871273
Ni 7.924181194564627 0.169505636248378 5.8942383933725795 1.2546839445298135 -0.7365860887054153 -0.523138246461783
Ni 4.728870693606309 4.8370900611182215 2.658753557436818 1.3125466211745525 -0.757304037979057 -2.696138479122389
Ni 0.9123300379016092 4.995576814066829 9.907839716218371 0.32011879864032616 0.20490663754184066 0.1946695331948647
P 4.897398039288608 1.2725415940109552 5.652996357270314 0.6877875791454735 0.050345542332087496 -0.7162854294748502
Ni 6.7632457124523855 5.862408518002505 3.2472574539237913 1.624398551820396 -0.17544256664445268 -1.1123733845526391
P 3.6349246473405863 4.906711586352309 4.250505933324418 -2.4097425266558052 1.3532656961604692 2.9092585057129576
Ni 5.75148343622505 1.9096820848874996 11.78813995292843 -0.3071082453132711 1.2752872226024616 0.28178313628492113
P 3.342044882760338 0.520254554916126 11.967286766947492 -0.023514023961540148 -0.5268856293193571 0.6931717262755223
P 1.7606193163195547 1.4349488717116727 3.4388496332533705 0.4082197053443163 -0.5582818842424514 -1.5096741289916067
P 8.05069634425306 4.191675974579359 4.24763732401636 -0.5037891525112097 0.44905293731059437 0.12717601832858097
Ni 5.771040044436873 5.830547352059292 0.778816843561756 0.8040451507893379 0.10564791444881806 -0.964014818609172
Ni 2.225753686029532 8.096619861889291 0.11683623916778603 -0.19595585610645608 1.4843104534158371 0.46002383449980133
Ni 2.6148611661216914 7.95630004758075 7.112489922676542 -0.3063495127703756 -2.869356270201381 -1.6177242251240138
Ni 3.515799594778786 0.031476475955799534 2.688197986760537 -0.8749335502697834 0.17262926556537364 0.9208935619396657
Ni 4.684364454871075 7.495030983964402 7.92770230435373 0.4939549400296073 -1.0580169212889456 -0.4029782544397189
Ni 7.284012880581405 6.9790770422329285 7.46324068196624 -1.6246201809128988 -0.346321682287939 -0.7773583855267708
Ni 2.908780882103321 0.4655862423985421 5.085640286670373 1.040992104596175 -0.29498780790065326 -0.00694120720452353
Ni 7.9545146442898815 8.048616441450298 3.7031657061126624 -0.8128267536367098 0.621780161906413 0.32667588303255357
Ni 0.575213685701707 1.0911667071222069 0.14488915829779836 -0.44077244246935704 0.5900663757429 -0.07310777572926765
Ni 2.835791018701928 5.0608912839394415 11.556097345329006 0.4967520431587703 -1.8297592461805197 -1.3283100546563964
Ni 7.168789946552223 1.3432490861951571 9.570909266835354 -1.718735155021453 1.158232866088915 1.1479685080484294
Ni 0.6725301290966578 2.9913787920803108 11.288064136443005 1.911371716946689 0.7159684124550637 0.5664546498612308
Ni 0.3836095423294572 7.252179323967432 7.262690195609184 -0.341710665878489 -0.02984099462083248 -0.9077405694974754
Ni 8.654061422359069 1.2116998354752582 3.7294175766652375 1.1646886490165878 -0.19301785652405468 0.3628448767539429
Ni 1.2604303015842455 5.368367180578018 5.084751266268839 2.633871245652051 2.3983288855022242 -1.8268585275939568
Ni 0.5878863678229675 8.576543628962279 2.159540072334663 0.3085092394258558 0.4819705139742215 0.2278737878609753
Ni 2.3387586706097503 7.227487380516929 11.39491960309045 -0.9224418802633919 0.9651952120705185 -0.263081703220676
Ni 3.014800706385764 5.8193379643877625 0.22691279422659166 -0.3705833830487811 -1.8876702595646908 1.1107029388287515
Ni 3.2638644654617837 2.584711778591372 11.564893677624937 0.12712588181693588 0.6425695878479385 -0.16365868663564717
Ni 6.921493184547577 5.671609646733096 9.27673094346984 -1.8780697603604493 0.9270220434349066 1.5246592895465292
Ni 8.650085678948477 6.872597062463148 10.30468333036364 0.2798908043582148 -0.41163258768060723 -1.568013231052132
Ni 1.5431130205651058 3.7197405067665406 0.26565972688231565 -0.9544266607001046 -0.8519355467127134 -0.8051738650771424
Ni 7.826646637468679 7.365644464034988 1.045926060229183 -0.29196136236950365 -0.3655951858055704 0.9785451510148632
Ni 2.6053451506435628 6.613897647482292 9.108993224603811 1.6738305811992784 -2.0859141403743755 -0.3984919365335911
Ni 0.9291827724698392 1.436991962075449 5.428092601901436 -1.6820861363398514 0.13950702909010812 1.5264480060158356
P 1.9653332895260351 6.957182844145434 2.1548658128942937 0.6148636372922378 0.3123522673210298 0.8936149287293708
Ni 3.8232110696491364 0.5430285702954084 7.341084125053863 0.5795659904322084 0.5987129956743045 0.5891238093239725
P 6.474995112074748 3.0049165665177653 8.321232798990172 -0.11012009128755874 1.3146747232611486 -0.6366689060927875
Ni 0.19469362731423023 1.0859025283470716 9.587854032501049 0.6820293365054576 1.182258539579551 0.6668369450357354
P 5.064738183813578 4.656129314168077 12.374326506381173 0.028612778640686207 -0.18928075807912564 0.27045048488092127
P 4.663188099343826 6.919201610220639 10.382308800144466 0.260586447602648 -0.06904723250664882 -1.6160139273011265
P 2.7969354893511924 4.120517530017566 9.234450016671367 0.41134308146464643 -0.08766947559352643 0.24960372333889913
Ni 0.12095279015750277 7.355659089959775 12.441203664288784 0.3446463514680452 0.03109183630879807 1.0353413340683006
Ni 8.00634655838352 0.8364071434239296 1.6660380371413348 -1.5502839320931687 0.5033165837501654 -0.9037196212635404
Ni 5.307249328749919 8.920574277514907 11.630854205801771 0.8535296306727107 0.786774022413716 -0.9979101858050361
Ni 3.532917378907722 7.463022568265242 4.688607088464321 -0.37101764237272233 -0.6908582476509972 -0.32189748780730365
Ni 1.0224470866433004 7.786033314156316 4.748897580726189 0.022841937595180016 1.0538185669368818 0.7154073977452711
Ni 5.430552593136739 6.153015114475308 4.996537618724388 -0.016025686004294982 -0.8936408968712997 -0.35884346890403357
Ni 4.018629902011409 7.229585689539186 1.7475831113632976 0.08599311633236803 -0.740208515949351 0.5583325349747288
Ni 4.443970025176484 7.149463416084069 12.514896645274826 0.1502311003758316 -1.795890875567849 1.0290012507828858
Ni 8.114823612968342 3.7569486794726092 9.89664597383341 -0.8071623562620809 -1.7930834880260411 0.22304757011692553
Ni 1.065296765624121 2.894129531386511 8.303330909910814 -0.7384334263267993 1.9291814914346002 -0.3229801793485212
Ni 0.6528529601471533 5.883354795786086 0.959732495274142 -0.9669643881557991 -0.17910356043580766 -1.2874907066471892
Ni 6.462469679709435 0.9539207314690757 4.020794473423843 -1.7979750117903872 -1.3686370364102172 0.4379905088488457
Ni 4.778162549409847 4.9494232186869285 8.53042960695429 -1.2262377733739787 0.5998116280551219 -0.9168127070020725
Ni 1.4704820784438353 5.243683449729187 7.3172701582732 1.0100599337936926 -0.4080034755684522 1.5142326948965665
Ni 1.3625203980048302 0.47686005183829844 7.445581754984196 -1.2804929351731174 1.3154797356609473 0.0842697058833581
Ni 8.156559715669808 4.3426253806453845 1.8176933217249365 -0.01948381975622451 1.282802300032584 -0.7334835385206916
Ni 6.240232985545162 3.4253882446268142 0.7561937591823201 -2.3542426938162873 -0.04206787570432755 -2.388889851576512
Ni 5.584943962248047 8.028884974153286 3.246408927205142 0.3883275944060796 0.15297986676556233 0.11314010906080516
Ni 8.10079807371431 8.759427825849492 8.425945781688577 2.2860570379789853 0.4820731009903569 -1.3767972036235063
Ni 0.45378233383737365 3.6697308084027567 5.911358018123465 -2.691320231798139 -2.4573886677788583 1.129016649536275
Ni 2.5388250733941273 3.029654525517002 4.7887682130819895 -1.4353275957592313 0.577043995341303 -0.03079615944525019
Ni 3.2410775657288555 2.928843661351214 7.430603693871376 0.5173725476225993 0.5461827869860723 -0.9702561715331934
Ni 2.5492798060664237 1.6122927965313492 9.303037112369921 -0.8494809145246338 -0.3538616994187261 1.529303987407392
Ni 8.371710015329091 1.9792667976825995 7.5009826350376185 -0.1434698703925981 0.2397044619473162 -0.4629003847166479
Ni 8.07093398258614 1.7780684123993735 11.69765037634361 0.048957146624993106 0.07282366882994555 0.7241442633976367
P 8.227432863829451 2.8800763828032396 0.21182521610778643 1.1012556773729227 -1.4957444062843919 -0.09480711507957221
Ni 6.90124634310475 2.8133722433588697 5.572379876821798 1.578188886033553 -1.9645572998307324 -0.8778509810268946
P 8.080376373186295 8.835804433637687 10.934741107979093 0.08854467910962815 0.12483965688592048 -1.194559211323775
Ni 0.11430630429840725 6.212117485268871 3.2560261768904852 -0.23453114527649283 -0.8285621620940956 -0.6918329528594408
P 5.701262066337091 8.082520697757285 0.7377590100486257 1.332304777638086 0.9759354813061579 -0.3353081047862548
P 0.594016559225271 5.196719980691574 12.24047831884654 0.44469697433474376 -0.11424645475110647 -0.776190847581231
P 3.552170284497902 3.581436173492534 0.9872000966242617 0.8711087772070546 -0.3757183902825013 0.5890178798737276
Ni 7.4494479813888 9.04217496659858 12.897677907727077 -0.7304583785411227 0.45722544581905766 1.446411878597851
