# total energy = -340885.86370748555 ev
CRYSTAL
PRIMVEC
9.10672433513858 0.00000000000000 0.00000000000000

0.00000000000000 9.10672433513858 0.00000000000000

0.00000000000000 0.00000000000000 13.32861158628274

PRIMCOORD
 96 1
Ni 6.985522368597737 2.208225840962575 11.35838926777586 -1.533441149504217 0.7467581441424107 -0.2653748701302268
Ni 4.968082402802353 0.4556576849524078 5.8876475542973346 -0.4497407074062384 0.07533435106694122 0.7903031186128969
Ni 2.9254077038285313 1.713366439693594 4.666213614666099 -0.4865825588249362 -0.16237262083437196 0.9672335826567858
Ni 3.621862662070118 4.833330202570901 4.828569207079855 -0.47042883188320916 0.36707279879236143 -0.03939624240943538
Ni 3.9359809051317844 2.6908366979785785 2.732712148564798 -1.8473635895258445 -1.1157829244548203 -0.6293266067951033
Ni 5.045808295143736 4.536496522328677 2.6016381542989797 0.6127974987918284 1.963292059965064 -0.6218485532505031
Ni 5.602866623734528 3.2127248571232743 0.5218817844376494 1.8982385219988402 -1.4171756074405528 -0.9458250350740227
Ni 5.715853752765521 7.890038658101607 12.159385778884717 -0.9295424958639151 -0.360865641540385 2.140996683170816
Ni 1.889900291250443 6.781549956569348 -0.08984603178100183 2.3236943887157855 2.0633671083117946 0.34348344150819554
Ni 0.792762210950089 0.385687079068895 0.23855428708136667 -0.6428341543632348 -0.5076326946270161 -0.8460384645019882
Ni 8.290880237164092 9.068284868167549 6.873352112741086 -2.369654400385667 0.7746461288019304 0.05703066766174694
Ni 9.019837094616738 2.8627807604621935 1.1964796935628277 -1.4932864316622025 0.0038664249339417285 1.155407223714662
Ni 6.95414059648193 1.0953294848441153 4.745066008809782 0.8320431786641607 -0.40725965542389214 -0.33881328972603586
Ni 0.9050208020329512 7.964422382605933 2.368574311329226 0.2686545693227631 -1.1454429134130983 -0.1605347962946848
Ni 8.065944145678191 4.101331699184801 3.766345397271315 -0.42767550007608285 -0.2710634358745719 -0.5544473409877096
Ni 7.677770020188859 4.309930327183831 12.723958976410493 1.6769943236392406 -1.3631464456092912 -0.6660517301302787
Ni 7.943258355212684 7.179104008140886 9.050180700156456 0.9875326992254541 0.5145528187856171 -0.4683801768842965
Ni 7.152639867174974 1.0502056656816603 0.4370307909635309 0.07263109320316523 1.2293228400572054 -1.657373721194836
Ni 2.132976977644842 7.0088355829379765 9.014087108861105 -1.5529167417303253 -2.4837962112381096 0.7029730286366603
Ni 0.5472522078089276 5.497911625581693 1.0770340756216386 -1.5521996610586428 -1.8638986110663898 1.2757006559907964
Ni 6.454181429576023 2.371737076696556 6.960574497236376 1.7554890747120349 -0.3282812798464604 0.03536089599779716
Ni 3.7299776935729767 4.09511180645262 0.20756228276781133 -2.15684779127046 2.8393630662734 0.09558307401364828
Ni 6.014791086332978 5.834395983651027 4.354403926227577 0.533589523702094 0.2334525675003334 1.3981178194781534
Ni 5.399039919295765 2.8505413229335677 9.27560764408491 1.4290078241887905 0.8475268761220565 1.1860809986494347
P 0.26524336413876454 5.926510500468026 12.318196123508375 -1.4806995961361271 -0.6356818595891698 -1.6282883737931053
P 3.9141611935852176 6.195896513514358 12.510034736010617 1.957333271278468 0.4791988647663554 0.36991875288158876
P 2.8022392569723853 8.570229006651138 1.1976681210907187 -2.326686895685206 1.4435260724096237 -0.38635221584726365
P 6.653345491146737 7.795228550876518 5.927247234468075 -0.19539021341097315 0.7533483957654188 -2.2415810670537977
P 4.875895032190541 1.4210952283515497 12.660808396393938 1.3466132238409583 -0.7580905384360944 -0.29464096608419577
P 4.421469487042912 6.250327404964206 8.239627592512972 -1.6901979668137086 0.8619525646290832 -0.005882169812389869
P 4.871205069149438 0.9917313886196779 3.747112906113053 0.593247601684359 0.47178251769762625 -0.2737188712195479
P 0.4606927928464384 5.809234104267401 3.3353387044664045 1.1037455336743118 0.5802306205994008 0.6448002769506701
Ni 0.747935271001498 0.3475071372245777 5.069443887526024 -0.6844158344597633 0.5494696852674601 -2.3130402514360484
Ni 2.1079152722290853 7.035773273570174 4.668945631971596 -0.1844144311257598 -1.481002729198843 -0.39321680417758087
Ni 6.297117754683013 5.373923573533898 8.86335351806493 -0.3793256480177854 0.3029893380488911 1.4503670065908567
Ni 0.05065433286121555 2.7019833285850057 10.07169836278553 0.07393849916067911 -0.223564361852344 0.07924577030620546
Ni 2.656185611820528 5.756123687848544 7.03170894249203 -0.7349945758485793 -0.9696779304322204 -0.7281482423507072
Ni 0.7707767570203213 9.129035826317446 8.816756230902378 0.14503927176224699 0.21179025203555138 0.29306642250822434
Ni 1.9352608852460411 1.3645606835764699 11.45086350020475 -0.5272967487148467 0.5317699539948518 -0.16044326502214304
Ni 4.37102734085909 7.08975793552679 1.2449229137514612 0.14943045885140718 -0.966834290335838 -0.7911952914098632
Ni 5.944487174338194 7.719196509264542 7.926325311953215 -0.7302298074700843 1.2833471167924608 0.7253585954207121
Ni 5.037657776849004 3.0188335889521687 4.97823640045445 1.520668166109265 -0.34525133204189573 -0.8150677271520866
Ni 0.9400143010266241 7.80404386004892 6.782357723019341 1.6625773768829626 -1.9668566373878709 0.4221139468279053
Ni 5.423081671584137 4.7775150890196025 6.823862529924447 -0.9742277545864317 0.697373680172012 -0.845420371302015
Ni 0.2955614708502973 7.546423734864926 10.794976266932485 2.152439892010751 -1.7228741168904906 0.5845544447857353
Ni 5.128633953122046 0.5828276264886714 10.542012409909493 -1.4055385374222569 0.8297124736484549 0.132102766206237
Ni 8.564792292213198 7.463133633944682 4.608527069260535 -1.0753932077838642 0.6205516888159506 0.13756841730649857
Ni 7.640742078975027 6.131083956303623 6.939821183111388 -1.4238046827212965 -0.10006424971345347 -1.6922075410445694
Ni 2.5352483124305376 5.3240096173624725 2.5299299854091704 -0.5609820567824338 -0.11782260213813903 -0.7291712842985829
Ni 2.558370285559392 5.4044948471824075 11.155501466617755 -0.7909525792714379 -0.33741589515787695 -0.11741019719106875
Ni 1.3216497984314675 3.432406368658269 3.6664874327381023 -0.07486152519558076 0.02246758497489679 0.5668773392209463
Ni 1.4451369806399212 1.304301488541563 2.2462710032864877 0.07334611699231885 -0.4679780563498715 2.044934869748536
Ni 1.8302148198496906 3.324309550604114 8.181608651668574 -2.309197223540875 0.48801183507229495 -1.1068092602013002
Ni 4.16143607990573 2.8622707838985004 7.163582507155924 -2.5040392777578617 -0.5588984347805278 -0.39533667873406103
Ni 4.328945167630088 7.266428387948915 5.9487063197303165 0.41317782068054004 -1.0483917394943556 -0.14446180199222217
Ni 7.9391694359787905 7.964103647253625 12.80315742607954 1.829086131372895 0.11942337096635561 0.5895043325918428
P 0.3986395731142552 5.829441925603726 7.823108787479112 2.2770008413139884 0.5824610525918164 1.2863020856557266
P 8.828204294084845 1.8103348405900257 7.989623420904269 0.1264234564332726 0.27724411076398703 0.38530371997809126
P 2.28271884615912 3.432351728312159 10.33537901302555 -1.951011699935814 -0.8960425643342568 0.47428291552197666
P 4.077198879652913 6.555939967481426 3.315038905214128 0.9974576716486498 -0.34229302074452017 2.2458994919234936
P 7.303938985553385 4.236475488563374 10.3391637676661 0.6654007268098411 -1.198792275568516 -0.07606145904095288
P 6.683015199084432 8.31198962421123 10.380629415656495 1.8756536947197893 -0.6695988240515888 -0.27303470066832974
P 2.7132483466080037 8.79611219746961 5.764304258333636 0.4862514007377625 0.39796537460615977 0.6750595900558438
P 7.055753426797707 4.327324170695493 1.7159654988235564 0.9290791830742516 -0.13731079276973773 0.354955189593221
Ni 2.9463167429399326 1.749328894158283 0.4103162150779484 1.1007789948468203 -1.5753617009974028 -0.8290303599797657
Ni 1.7638359060504707 1.3252014209286134 6.927092714485077 0.6571675402667715 0.14770627707144884 0.5783801976542233
Ni 7.045216946722841 0.8656925022478901 8.995946513952605 0.4694716101762625 0.24332868896346482 -0.17238346810315475
Ni 3.2067053123268296 1.6480894395409242 9.220253330785805 -0.6511318755956528 0.23815460096169305 0.6519749403222385
Ni 6.282128086400188 2.3236717855685165 2.601811182061661 1.5810379254465738 -0.347759186065414 0.5611370943030594
Ni 4.328089135541032 7.177510331379347 10.374991442610385 -0.3596921900575741 -0.22560864597588243 -0.8584406948210829
Ni 7.296571645552896 6.313090949195818 11.255745556263477 0.6354134364191314 -1.025510464020808 -0.40574321877936576
Ni 8.20216252853026 4.0609433766852066 8.081510269612478 0.09541800919069374 -1.193766025998518 -0.27702196745085195
Ni 3.4589160432459396 8.612092618495698 12.368644644399243 -0.45163252511231244 0.32307788126865006 0.15226150054229906
Ni 0.4231913019663195 5.045416705996614 9.974199950531832 -0.32226232734589016 0.9007515397741519 0.3336978228763414
Ni -0.16085935760277928 2.672304513922959 5.984599563089933 0.027344710561540003 0.47643261487512784 -1.028049685502894
Ni 4.007368517324416 2.9459069403441087 11.469336490552084 0.05017867773692003 -0.24653793992938183 -0.3632053454171551
Ni 1.4067521374976917 3.4803896992671444 12.81211480015183 -0.1076780575049694 1.0414142797352581 -1.4773090823973396
Ni 3.393429588433182 8.654575487596174 8.266897678584005 1.4655704538041727 0.1778357494669776 -1.5847300295861806
Ni 5.931327957650052 8.091306372997554 3.360102619995862 -0.8288444692212049 0.40001428671538847 0.3667295565203297
Ni 3.074739769746984 8.640988254863503 3.3883999445737625 1.6620816681934667 0.8291666284473139 -0.6169930249304149
Ni 3.6402036049143534 4.375726410624544 8.999505421829232 1.5570281927955378 1.348856254238864 0.36508842137248093
Ni 5.43668711776551 4.805035610010306 11.290960348658896 -0.805416834325884 0.1428288943744895 0.5877693521786072
Ni 7.921493284012226 0.028583275722542337 2.33482661222686 1.0035365308528783 0.22916576719952145 1.4696245692688883
Ni 4.9751674343479415 0.32130618059242855 1.2787243425275021 -1.446626051491186 1.5370761751536433 0.6957207179496212
Ni 6.424994378028965 5.869484192577957 0.38950734993441466 -1.3729289789173516 1.7041258897487104 0.056249566521348285
Ni 8.644385063046672 0.4581620341491133 10.836227906900616 -0.7996724756429389 0.941970951435255 0.9508733961312076
Ni 0.4463551660271914 5.548353771765515 5.612065326002134 0.565157271206046 -1.9521301298109734 -0.27371630011638665
Ni 7.751807689167822 6.574444831363991 2.523106316852475 -0.9469018130779693 -0.6578218860213187 -0.8000139181427577
P 8.738730727329825 1.7292303535141784 3.5467039553234674 0.14868175361084074 0.5981573802811505 0.23642681963730897
P 2.124480403824747 3.2811983175233745 1.5969679317204688 -0.3340647192974569 1.5332796842256886 -0.00420503922028308
P 5.05858502940911 1.0666341964120476 8.123721758327273 -0.4464478955875795 -0.5241106376773812 -0.11646968765467036
P 8.831009165185154 2.089947705083268 12.377068364424526 0.5709759347703521 -0.8602219550912217 0.8231502470499049
P 6.535367877171035 8.071663168571032 1.0994575629927208 0.6936720629507086 -1.8659500942787801 -0.002478029226847345
P 2.029797790740581 3.609213421945668 5.891166392586814 0.7007497957330964 -0.15550803250405476 0.09293586619878832
P 7.1158487007942846 4.092807805191651 5.7479904723300805 0.27449945813931437 0.4925809425002162 -0.2664092249320122
P 2.2745501144156846 8.608577422895959 10.411004894731443 0.7621256277374164 0.5323510233093026 0.14859099366924733
