# total energy = -340861.2924293626 ev
CRYSTAL
PRIMVEC
9.39394165903794 0.00000000000000 0.00000000000000

0.00000000000000 9.39394165903794 0.00000000000000

0.00000000000000 0.00000000000000 13.74898317217941

PRIMCOORD
 96 1
Ni 5.927633533199658 8.618781750000194 11.216420793011295 -0.8375882768521059 0.3658258137591377 1.3642134534212247
Ni 5.2068082099808475 0.19445365238029372 5.062375418000584 -0.06055770697839894 0.8817096926513525 -0.17649003407236055
Ni 4.829181150331505 6.652009766355221 9.948777884992753 0.17145478564129826 0.5300509144212162 0.8070952504695712
Ni 4.341908003957936 2.4895166536195235 8.817484282180468 -0.07070585115599437 0.958882125368297 -0.47298527975647575
Ni 7.658589400066168 8.698076011312667 4.858038399629667 -0.3597574960778707 -0.39695210285029703 -0.5241738868151489
Ni 0.8508346572178913 7.175881709325566 11.54312423446981 -2.63473333654203 1.6253917689716006 0.5889281483733987
Ni 8.0379073692092 2.449939977525524 2.634910445828701 1.3347205861684304 -1.3898977455612063 -0.022665045697683548
Ni 4.8765078282715875 3.0304292067096203 13.134100977083603 -0.7097856806831195 0.6251639907769815 -0.819709339689156
Ni 4.211397972869891 6.7098764468059775 7.694315499485367 -0.46901523936513423 -0.1564626831078402 3.1468040123357417
Ni 5.731704092589038 6.091106905473045 1.969418257002599 -0.7271709660391025 -0.29569717526285205 -0.840315703085598
Ni 8.611745687718114 5.160373956495768 11.193280696590133 -0.2128688298117108 1.8364888515948696 -0.03454662762661792
Ni 1.467183379792356 5.462314028419178 7.415500493676507 -0.1572368422697034 1.0220960390226204 0.14099055561417007
Ni 7.755656998945659 2.9524500972255736 10.583705945326226 2.1847524881005276 -1.0578701112984363 1.8892373469414947
Ni 9.059648824713577 5.414000986607776 13.535681648499404 0.6348817322853776 1.8023559144669026 0.6955955052256666
Ni 0.6070938112789965 2.412242089757848 4.0646392409416405 0.03489321233275926 -0.8560598532937321 0.4390410616005471
Ni 4.629616254309449 2.6925009443954884 6.272685221453045 1.0423139087313922 0.22422513536479446 -0.635696257766873
Ni 1.809432855257032 3.1602159042920306 8.227913929621089 0.686006833095967 -0.8591482624110688 -0.46521257778959235
Ni 6.577966718414822 4.786861443281073 0.09079338526373444 -0.03885039720829438 -1.844353856165243 0.31751015737288546
Ni 1.5224103626446284 2.3393451026965058 10.778928022131987 0.37773516360221393 1.3881360256750932 -1.285547466877889
Ni 7.854227628486209 0.38047718154037496 7.275920611943136 0.034689066741753156 -0.804571455606453 0.0539851959672038
Ni 2.0746707972257172 6.2371920917863095 9.862434409879915 1.4319034005690308 0.7756776553902384 -1.0211444737426285
Ni 6.532885192524695 2.249501444931728 0.7716399716867135 1.1223811464976283 -0.74516097485862 -0.559916591632397
Ni 5.34887278927578 8.56779143482378 0.6917623465989171 -0.37192421334739173 0.6191470951589402 -0.8931711563237327
Ni 0.03764997866535486 3.323736246273575 0.722641172136203 0.46530770860655996 -0.7990492402366433 -0.07267865861164902
P 0.14715515626510575 0.27298230744978996 5.070927662462007 0.7069862635611115 0.6262065731088827 0.664844597196055
P 1.6785940362118803 2.8950437199147667 12.793277501958606 0.6820403922490511 -1.5775461102432315 2.2261269372822565
P 4.928522083085847 5.34340551524618 6.212945389040945 0.9154759904685201 -0.32688388527830153 -1.5346498251003375
P 2.328880251718885 6.454079416177065 3.749086408199855 -0.4602254089876461 3.519627854679268 -0.3594093687098326
P 6.576689142352922 8.002614330499219 2.3036969729928485 -0.7601242810366715 -0.5675656235372225 2.2115094444793977
P 0.27918606650330935 4.39237225840298 5.820453356153733 -0.4638257247443947 0.16818305686856194 -0.09572088514309321
P 5.722056514533368 0.28263646126460196 7.350192872059347 0.20484107441122787 0.6866717203734755 -1.2903806266004745
P 9.061039128075057 6.414653043149173 8.965368408316186 0.6586315264068077 -1.1859115629511061 -0.12732231409845815
Ni 6.915951344378744 4.352851945958769 5.665392258611459 0.06597219312575088 0.6566615471646304 -0.14022051021736495
Ni 1.508779753337153 4.585436546815957 3.511558715256111 -0.6295389799162255 -1.4054639754305795 1.202851019018922
Ni 5.942137779078873 0.8371598963847475 2.7040122804708706 0.12442210973252765 -0.6171683741660146 0.17054075846746114
Ni 3.2657098688150814 6.822265564486634 5.757510189645251 -0.029202075485252936 -0.5125249897223109 -3.1916196259885354
Ni 5.862101396377503 7.699997894778332 6.2568601873804255 0.49860606564837356 -0.022363969517496966 0.6583067960775373
Ni 1.53294097121367 4.846165396801466 12.07951266527012 0.2349900871907824 0.20844344705050555 -0.5227847197771062
Ni 6.6359930958733155 5.7943616832719185 7.60255547762774 0.05011491437852014 -1.4340957802346592 0.34172377850461144
Ni 3.5752402455768375 7.004517426081622 1.1825290998652829 -0.7073559881957044 -1.2223968023613336 -0.8302094678895315
Ni 7.340369627295167 1.287298791488536 12.531386621393265 -0.9770225437227495 1.3644427958232115 -2.202259643746356
Ni 4.389638621388179 7.8244394395723535 3.2227062828138684 0.5181505634392044 0.22493296006509647 0.5633724113914813
Ni 8.824903617281118 8.502963843623997 9.750379716521344 1.064710017038405 -1.7755655337469358 -2.8994039815163806
Ni 1.5280279397403347 0.6517638825256582 12.341101060914921 -0.17405802759210023 -0.5655213394136841 0.07894006614032856
Ni 3.7941566613600233 4.972645426929548 3.8420018848781714 2.2174474072303876 -0.6632543698907996 0.21163701428713874
Ni 2.3691426855519926 3.35270716226548 1.5174203008499136 -2.192224628107857 0.42541267218383505 -1.0291488321043436
Ni 5.519372829889615 2.4633733140587357 10.925602208585554 -1.3466052534211583 -1.6122768288561973 -0.06805710067923763
Ni 4.949977845772458 6.34442393551121 12.925473745569528 -1.3570123076870952 0.23526390967745933 -0.3757124767452304
Ni 8.898570907556252 2.0682547350913234 8.91713709379698 1.297755836018623 -1.7227391339745233 -0.7560398265546527
Ni 6.977622571190304 2.170301123035571 4.778623895864309 -0.9693298030641821 -0.8605880801813889 -0.7765461740381208
Ni 8.309138645938859 6.526741554697618 2.127036385456999 -0.1731691972292437 -0.28001241753774353 -0.026544583257747834
Ni 3.394482020701277 8.496482023898182 11.43024475303598 0.3478124079008526 1.0563297633945097 -0.3158978185804431
Ni 8.790531184851034 4.127021589134714 7.988529993810936 -0.8585797915021085 1.54788303596116 -1.400742144474878
Ni 6.2362433036815155 6.372765457413795 4.332785547239474 0.15450890181557905 -0.2047243463277055 -0.16142902597418005
Ni 0.7598947264647037 4.377022557776918 9.787488604148717 -0.1451634560449371 0.04723347906566704 0.45508911620234527
Ni 4.131089165861204 4.786288412841544 11.158523112553153 -2.4877677942913476 -0.7291946813373507 -0.13300625185711287
P 5.326853390091271 0.7934498859728369 12.7692027083451 0.21908550014538397 -0.21361239284595468 -0.4399676871798745
P 2.717751859501272 6.672667044003145 12.144641801996277 2.256947522207539 -1.6396693619365375 0.6946495963726296
P 8.608720838512733 9.335417375251305 11.499236678561061 1.091908431830068 0.9536411886843317 2.2344130885504483
P 0.5820148053050705 1.5793470428738543 1.9341111273801692 0.3771780055471633 -0.8165702798395421 0.34708992791253124
P 2.5544945478854135 8.336803804043967 8.503388449785746 -0.44538191621691037 -0.7356900592537072 -0.45170168778735115
P 3.5496605425139465 1.1003405651361091 10.434873031085715 -1.4007776256985038 2.272169481363616 1.5060663570356903
P 3.4085541452654384 4.782032957282422 8.866237899854392 -0.1548644853827849 -0.18537782348029364 0.3099518854096533
P 0.4324670121063921 7.672830615579698 0.7552343920212589 -0.5248711699924896 -0.47016297981633215 -0.049118354793205726
Ni 6.393140916812772 3.843559400400693 2.367506260919765 0.24662921409160748 2.7119795599197034 0.650090578815332
Ni 6.773097673986754 7.720316990527518 8.854523654639767 -0.7131273434618427 0.18744987551797393 -0.02372511153108172
Ni 2.417418151596869 3.8624787988467686 5.6360934940566105 -0.8710439854073901 2.018184598237885 1.5206488828355553
Ni 0.9918781150574675 0.4203187667883859 7.376398211634905 -0.13556732771606975 2.352580475622516 0.6878842526243378
Ni 1.395385483901913 0.35413375102283345 9.760527052271813 0.5184434120892749 -0.7973307148836397 0.31045402185705245
Ni 3.403058689410943 9.272891299751267 6.676574923721898 0.673500215988524 0.08797440842845494 -0.0187364000672387
Ni 8.944807888267068 6.338599691699607 4.80071844658187 -0.04660818677684231 -0.8238848112230842 0.1161560130689935
Ni 7.225199902891551 6.832486172981833 13.25907891594479 0.32871219673629193 2.24550919846361 -0.6268071828073591
Ni 8.453251104509484 7.370984483072604 7.07829274668552 0.4079289135767749 -0.1784499860122088 -0.28615735409321685
Ni 4.399239229735691 2.7779764193015644 1.8048702178065559 1.6398750501894401 -1.3203414346286229 0.9221588018053344
Ni 4.565728057272826 9.379756779752533 9.076748616665608 0.5163561905429429 -2.3253910596919174 -0.1929630920267193
Ni 7.019068641668996 0.5042874534567511 9.721080951966496 0.08333819520802423 2.5096807923143554 -0.449746106722877
Ni 6.332465447814162 4.627239587076649 11.415684143506976 0.1683949157690519 1.2195225661373321 0.0017820316010872536
Ni 8.198374680160471 9.061104885666477 1.7160655299862346 0.40628160778133904 0.1072772225221249 1.3288343025909823
Ni 3.5600596359001457 0.9828693250327475 0.015807185583520705 -1.649085770154431 0.29367037464081036 0.7734243405796873
Ni 6.947712261035238 2.6421869930165514 7.318350228110658 -1.8551100662404825 -0.6317125905287766 1.009785082865751
Ni 1.394699726162805 8.021646456244873 6.2746917673855584 -0.8822691646992483 -1.7882462145383977 -1.401663884958199
Ni 0.3742715436985292 8.223663171032783 3.337208097967476 0.8098247335855923 -0.33084646947047536 0.6444914874609997
Ni 1.4336282202842228 5.632889220566066 1.4565945287851982 -0.49882898029245704 0.9767875448938081 -0.1521000352637703
Ni 8.822057252966738 2.2689187222842784 6.239316061989218 2.0091613116933527 0.4366108548924997 -0.628304336178176
Ni 2.7105748880947176 9.267903116744877 3.9926769510726436 -0.7953658778477851 -0.7164898321761725 0.6135505749077691
Ni 3.0186210220786784 2.148394451150642 4.4663843063359945 1.3655023474359773 -0.8737559850219145 -1.7983748183319672
Ni 8.975112743970662 0.6526356403090722 13.73825918160272 2.656537319790999 0.5374258667290487 -0.008954380979810385
Ni 2.0953938324650627 8.89395848221513 1.5939057736145334 -0.9504409365794794 0.3133508837888732 -0.3719200995823337
P 4.137524015878862 4.653974744960229 0.6305147865549422 0.2544548807836134 1.5298007245381524 0.6218637227591548
P 8.204396196746337 3.623478135855187 12.757117402436027 -1.968218550732404 -0.8089425880909552 -0.8784371925476677
P 6.920385284828866 6.8041728329041415 10.939185848184872 -0.0842211120336098 -1.661738683031751 0.5431432288288001
P 3.773433626120678 0.7223170811499122 2.231253713312313 0.30143176375378405 -0.4817141749890414 0.565267314421349
P 6.547643074827964 3.6761781484085545 9.142977783956828 -1.3472017493545767 1.029135205257589 -0.9085291268370417
P 2.616118804988816 1.9460113726391008 6.667775618595563 0.1856354480170545 -0.7087089026791731 -0.09933354219501601
P 8.993243051319682 4.507372891857226 2.678563153196659 -1.0533136022760052 -0.010243017884246875 -0.9326085363837486
P 5.1297309188934355 3.166979542266794 3.848931795619815 -0.022934497308986307 -1.195295318158851 2.1504596283559283
