# total energy = -340871.10369803675 ev
CRYSTAL
PRIMVEC
9.18165601159746 0.00000000000000 0.00000000000000

0.00000000000000 9.18165601159746 0.00000000000000

0.00000000000000 0.00000000000000 13.43828166898659

PRIMCOORD
 96 1
Ni 6.480091336993854 0.05111152358879186 6.6530112978418305 -0.27026973632868295 -0.4649037882999219 -0.22117863522898681
Ni 1.3874400146410508 3.991623880120679 12.062107470704873 0.606734066206568 1.9633709928321152 0.485192620455945
Ni 0.48408260475095755 6.3829035098813165 3.3807224085162693 0.22145245771566377 0.05269347373897377 -0.193990247739653
Ni 7.289169668342903 5.676108824638424 3.6561261755678105 -0.26135212212407893 0.11097138354426049 -0.7667921799751504
Ni 4.80626629491141 6.112999554680547 9.215529727265343 0.7490412837496326 1.617647863360124 -0.34134916877401206
Ni 2.755350647301151 0.25459721674263935 0.9391768856701057 2.2196940371727187 1.0475669296002152 4.966695107472931
Ni 3.4678379591675457 4.953035063583483 10.892426033227727 -0.11128814345373093 0.44283138188091475 3.0807330888485978
Ni -0.03568358727351585 5.84213152561612 10.763915905367744 -0.708512984618283 -0.9076307833924885 -2.4240553437340506
Ni 5.651630530157364 4.064939402037884 10.132988324201204 1.3335486773475163 -0.6666150588329165 -0.8655307688986448
Ni 1.3934172725957286 7.274479018991928 6.629709173474433 0.26091914835171837 -1.2273202078048797 2.125566978879307
Ni 3.4701792814078565 5.561172856778741 7.2841932108752605 0.9815320015573288 -0.8826759132193638 -0.43336329448947947
Ni 4.949481762771717 5.803651205972412 2.2934307234273064 -0.4963409237632807 0.37418087059205235 1.5040467555025
Ni 2.1756392606000277 5.946242321235303 9.094759735282155 -1.7571597775462382 0.9536751272460608 1.1878602020370443
Ni 9.006130129582145 8.949699672762716 6.617668350000141 -0.9857010453333539 -0.5536847517900723 -0.26062270015722216
Ni 0.24872830232692528 1.2723663219437027 4.261843684282495 1.2576890499047244 -1.3860457188049677 0.29487056559649866
Ni 1.8214568864038891 8.561618625189205 4.8013100370866235 -0.26319997396609507 -0.49323965913013773 -1.369264899802203
Ni 3.8420363431043865 0.325435527913036 11.952169078121276 -0.20195603955394897 0.18610364590272466 2.051294750528293
Ni 7.3558652163963245 0.5355586400767705 3.4687028711480843 -0.19289058691757102 -0.09291735425602708 1.4345158984912132
Ni 8.22669936495453 6.42702136621346 5.694606188502469 1.745656404892329 -0.4614605669463278 0.8255082057591203
Ni 5.234829263102698 1.7233600753627603 10.838928197284986 -0.38522118756661394 0.28611878754579756 -1.7626164297854354
Ni 2.1339637247224834 2.3527534018377083 0.3342086000723208 0.13849324311361308 0.17207005062779399 -0.8499259724818524
Ni 6.020696368477208 7.471994799515774 4.9530681175445235 0.663305020623077 1.7413855454311171 -1.0832813522826892
Ni 1.5438036136704805 0.15098131237346643 12.761139984096944 -2.600624053563147 -1.8714692243247961 -0.944581906695541
Ni 4.0369537150242785 3.2921837012091184 3.772730450294413 0.1145048506188157 0.6362680711099429 0.06828207220585014
P 6.202566607442266 2.1376731136836042 8.708194579088548 -0.7261098717644399 -0.2709469649013656 -0.0968107757731623
P 7.534099519647016 4.20216843028767 11.415807043158125 -0.23769257372360997 -0.5193250433632798 0.4229287294197168
P 8.921787438995866 4.192748051391358 5.078098397839494 -0.19129033230998668 1.0088975380544754 0.7656233564780298
P 0.8981670198412773 1.565059146950171 6.523291027741562 -0.899570117871541 -0.34676442625231246 -0.3709546503452708
P 8.502736666259333 0.9213791639814006 13.180844490729598 1.5275862333853367 0.43351164714188567 0.3467981077037253
P 2.5465138851212106 1.7523373812075562 2.79281088498055 -0.03572882086017718 0.10010693002593082 0.004529255328921232
P 2.7800217565549428 7.612400680687709 2.2806379223393614 -2.8237839808882206 0.18577428758776396 -1.3787275878769998
P 3.1555973888684377 4.028038327199406 5.833517296102942 1.063408781728478 -2.1184781903533256 -1.1622687267211855
Ni 0.8049419953911652 1.6686741331537596 11.39939850599867 -1.7595377908601115 0.7934992569526915 -0.9053250180774473
Ni 4.906842153030515 5.387327385021653 5.100983675031558 -0.38180881945095535 -0.6596633101054317 0.11796864079770006
Ni 6.94348950745864 8.305340247261462 8.651874302139252 -1.4034492589933958 0.7312158255324375 0.2740112056489862
Ni 8.029560032320305 2.9319414341557026 3.6003705704529416 -0.5112540934296872 0.2889156335646444 -0.8256760987955523
Ni 2.4244254073587723 2.559808922783842 7.65871846176016 2.1574933952742583 0.2901921862842228 0.009328219379461353
Ni 7.881294653745599 1.8944235053990082 6.054523424938995 0.2780861470493082 0.9313579518060993 0.34022791068537533
Ni 0.2081150840305732 1.8743432240673954 1.794238785818872 -0.00256647517559558 -0.2597600950466107 -0.05283874106758641
Ni 7.313106245129146 -0.010383534594385312 1.2827645471874387 -0.22155761583496036 0.031534066052539236 -0.32392685953250666
Ni 4.128054104312006 0.22225942485880784 4.669278744210329 0.26547025805751057 -1.1111451685724927 0.650712528670047
Ni 2.4952986088213778 5.888388707759999 5.047674063033628 -1.1482289607986675 0.015178764622967406 -1.528128736152368
Ni 1.8029099415982843 3.574987882871212 9.779749824225865 -0.7622313000773453 -0.7631689814002662 -0.1995615711798434
Ni 6.190180553708226 7.079258652429173 0.5553799987135721 -0.01676410683221629 -0.3058355492484346 -0.48774701144668253
Ni 1.3471784537635376 4.5407787161717765 6.892346766239977 -2.069773783169087 0.8757838140852208 -0.4813691329447968
Ni 5.017637194104392 2.0913332966371256 0.1709817132992331 -1.6264016982933538 -3.3874998916620505 1.565072146145937
Ni 3.7728617479729873 3.7816669559277276 1.2493708648815063 1.1003812451877695 -0.04602943145523685 -0.40661405142009327
Ni 8.661487495808295 4.481639670878261 1.8487309950895565 -0.31271684974930014 0.2870346144918476 0.473665593652952
Ni 3.4827122416354066 7.50821643182177 0.07474326940100241 0.6893618656111289 -1.177830071494552 -0.9636615490348114
Ni 4.619162512115067 1.5835050935414876 6.680155945180094 0.430931030898903 2.2395933471998073 -0.15034114359113465
Ni 6.780652841058938 6.334341732120503 11.258740129291017 -1.4075856497592727 0.6166346131497316 -0.8171544344777861
Ni 2.747224881878893 0.5383250729826757 9.975155660236675 -1.0968120397792724 0.7927050431861702 -1.5241011030502138
Ni 9.03756811919323 7.714032429228916 8.882287037387849 1.2908922761295702 -0.49007694513143985 -1.088989972631692
Ni 2.731395707203219 0.28832052049338464 6.90970927744166 -0.8137163553305148 -0.907004205552083 0.7684500272935475
Ni 8.253675069825256 5.641815340059744 12.886975495609468 0.8860803109152223 -1.117967590810965 2.1273988898817233
Ni 8.805070229902377 3.218014285298388 13.256958581348163 -0.8969653332588422 -0.7785277232445238 -0.25031849001773665
P 8.150408986543754 6.644507248198786 1.5077747961372168 0.21313082522384583 0.6611830891840679 0.4045345431832453
P 1.3678463610691893 4.298658451556036 0.9334723228940055 0.1282224573152243 -0.45787516358791464 -0.7229019063501034
P 4.5939037768872355 5.645194189410469 0.09462614513196128 -0.352058070551084 -1.5321062327428776 -0.7962647355129706
P 5.515769568628388 7.925559416571253 10.30438045751668 0.15839769534702397 0.9062323603830651 0.17204819625092305
P 1.3787082599330656 6.489254629526524 12.076741193789612 1.9766993345099055 0.18786973666421194 1.792959817963983
P 5.942156484384563 1.3452778510037555 5.0102211706789035 0.6692884919000216 0.7910739353406505 -1.2736885106567741
P 3.702961802029884 4.236149738567641 8.994873419516962 0.14626388819796746 -1.6560619443619482 -1.1493587035277366
P 2.968365062890274 7.772492031989948 8.32342994560602 0.37765443096294965 0.7577596374592369 0.11195868715819428
Ni 7.975553532643786 4.39588300529195 7.26265212809881 -0.0900678006223739 -0.3438436530610917 -1.8234621003178983
Ni 6.897865859568022 2.349806090311669 1.4716798706818737 0.5696510453113415 0.03973768490925414 0.5950219199759624
Ni 8.23959040976001 7.9602018040720175 12.927089231827885 1.7943227597497808 -0.3040661160528376 -0.6802437053599446
Ni 4.783679421534287 1.1189867610636897 2.681649495838483 0.16612823122206227 1.573272422568542 -0.9888696728693227
Ni 3.3569878281586023 7.5041948665619405 10.843067287739624 -0.43171984534878555 -0.476932694439998 -0.3389161338524873
Ni 5.240852429336598 3.757060118264846 12.374480256848141 -0.4630798477173057 2.7037088352704792 -1.465242895261425
Ni 7.837075799199167 9.0132826394849 10.738544235773027 0.5884221552712576 0.700067167843775 -0.5256491858090947
Ni 6.516478239105048 3.65856849602241 5.186074670569154 -0.7906399331270255 -0.37568368038982397 0.9790244046441268
Ni 2.439740409307163 1.9158443084838972 5.1230490303567215 1.0464978649057526 0.5802218788486523 -0.5128615471261232
Ni 0.4959361224460247 8.763321240778078 2.227368709627145 -0.12974120795259592 -0.21745259252765128 1.4380748194870654
Ni 6.3351038095555845 4.513334746852988 0.8902891591268175 1.1367497565144744 0.3969515886296648 -0.2101113216712317
Ni 7.216092869477651 6.031576630652774 8.72179444772521 -0.8722989408604137 0.05111584483920874 0.17457687621004772
Ni 0.8880818890618337 8.180892083947025 10.855497413421716 0.7187310628018654 -0.0896746789490133 0.216938114785078
Ni 1.3085971359055424 3.4723186072195924 3.524928577042184 0.10057847034571066 0.7937661374608329 -0.06422769963081841
Ni 5.6728126101903 8.122423299530148 2.6693671948154845 -0.30189276255060266 -0.9631259882463155 0.6680384215430043
Ni 5.568747722850338 4.02718443320588 7.677048719487838 -0.4622630082429651 -0.0022767118493186595 -0.659759983584296
Ni 3.968844191970825 7.487153713314811 6.291454217671504 0.8330163412107073 1.6832505889615978 -0.23337183486106905
Ni 6.920893452425673 1.9980384916025966 12.295798975255494 1.1551084615273204 0.7133487154440296 0.17844947179157655
Ni 0.12691619240540214 2.783813780418663 8.139768365585725 -0.3680590739650306 -1.5112057351447845 0.8456522848071629
Ni 2.5430891274912653 5.317207079338285 2.3125799848563013 -0.4577445515473213 1.5468638506680261 1.1547731896750886
Ni 4.750956000104992 0.2023894034460311 8.446416389310036 -0.056228226365109615 -0.7220968939503047 1.375135242540051
Ni 6.14974454136967 8.838096645974536 12.21175560664974 -1.5592735371862887 -0.034502661762559936 0.9270187010007969
Ni 1.1751784948311652 7.034442990252858 0.8560278103435929 -0.3269229660463531 -1.3279058772394419 -1.164739299748865
Ni 7.8703868466025 2.412048535280577 10.092230035742512 -0.017362145427531388 -0.0037738652201354363 -0.1491754054178076
P 0.3500285930921509 0.7448498942210061 9.45725793517653 -0.39726732009787064 0.5327983952593663 -0.38170468977292327
P 3.890781753982087 7.139104685222703 3.9736728247793733 1.426595615202872 0.6105115309711292 1.262213420137639
P 8.727384239803257 8.02984466365148 4.441849128945564 0.19269672573921007 2.0525828732120974 -0.8265775275638989
P 6.34619524981557 6.272833819619144 6.5920818296586665 -1.054114758021062 -1.435225522963728 2.3868579087481474
P 6.0596724975365115 4.0534715138882795 3.0548571791097174 -0.6635950410596702 -1.579536401200383 -0.5227649222827643
P 4.951887356602939 9.090151462213871 0.834325130424282 0.8874003152782264 0.3110877987863094 -1.1936284719793895
P 2.8004693041203295 2.3847239274877654 11.548496660758458 1.7175647888624355 -0.053305910511992065 -0.1158780768172585
P 0.11882348094418435 5.530597942817027 8.542137905984228 0.3890079083025558 -0.4455840049253874 -0.24408922127857316
