# total energy = -381164.0638210521 ev
CRYSTAL
PRIMVEC
9.36839497289660 0.00000000000000 0.00000000000000

0.00000000000000 9.36839497289660 0.00000000000000

0.00000000000000 0.00000000000000 13.71159301471861

PRIMCOORD
 96 1
Ni 6.984194737072608 6.635765387528534 2.931236850200104 0.19571905750530164 0.35074886482135725 0.6005425926838753
Ni 6.841326712213844 6.989244302016796 12.618312870736105 1.8447526342655585 2.037439846923072 -1.2076299284648038
Ni 5.40215386114478 9.00874238586462 1.992390632704951 0.08517730529929202 -0.18779054668684433 1.5101227864932507
Ni 4.070445869954724 1.475391066420145 1.7989613796387942 -1.2131799117487558 0.9916942868023114 -0.5056837984307614
Ni 1.0431988965310084 7.721674797196008 1.0355955070900005 -1.3018734577314224 0.7558706479666402 0.3747645110096643
Ni 6.935020031335975 0.6276693541181866 10.988183086060571 3.987001187565604 0.00026456651529631857 -1.7394078528794559
Ni 4.507846867504284 2.324242607167872 9.123461194048424 -0.6709962186197477 0.3342156430530244 0.08632324597827715
Ni 4.892700537091039 1.6213787668381194 4.236786408668151 0.04780374974684025 -0.27544331010982237 0.30486418647410074
Ni 0.9542740905008851 1.4239117354956266 6.1351427126703255 -0.3993524847616735 0.8183217153130099 -0.7295993729749369
Ni 1.982118187507729 1.6261472799301269 10.289343908254054 0.44614501963518005 0.22179184333295351 0.05306782635925699
Ni 6.408787911707018 1.3315862020541112 0.8780481439918144 -1.4078754130855495 1.7979793826657617 -0.3177842369698785
Ni 8.424238848883434 4.870441230398289 4.358339461057494 -1.5340211903774033 0.45914580277022216 1.2343465185240419
Ni 4.217632724942004 4.569509643872834 8.108446177254145 1.2556079990059794 -0.44504124504804 -1.1737199059809205
Ni 0.20960659767770495 3.920148707803304 7.728238294783945 0.11050498543080324 -0.3670632857106646 -0.610341323941852
Ni 8.793194352031806 5.90111458271709 13.094859707096967 0.7198196678803538 1.0798604995265983 0.3232545160558304
Ni 4.738374965058355 0.026347674302477784 9.169052488669747 -0.5187745701764485 0.3836119340979651 -0.4672684318773565
Ni 2.200429897886992 6.550119519773857 10.421591920458397 0.07923702855545708 0.46423478725735534 -0.2869986190475896
Ni 9.248217300713128 8.940399943809233 12.828209888661064 -0.48867492257759065 -0.20046557105135152 0.5497332233414919
Ni 0.36391905395728574 6.008345232719281 5.942947277235244 1.7013010187054056 0.5088868787490912 1.4820656232457186
Ni 5.906744988155786 9.192784507067927 6.291811320310691 -0.4942418751424069 0.5307242863391569 -0.7757493891684382
Ni 6.2999552661473945 2.8182380793516484 6.807065554593453 -0.3808875931882666 -1.3194412914118565 -1.0455583838106186
Ni 1.4901743938448748 0.8744525539629099 0.8978819732002399 0.6343199462446366 -2.4829924843898916 -1.0388843142245527
Ni 7.928735065092951 8.965432295443502 8.881794074752907 0.4740075503734031 1.0836418209459016 2.403986083788002
Ni 5.5292267719109605 6.575432923260308 6.144548581323321 -0.34875291743725095 -0.7843222184391138 -1.9986125896432287
P 2.263188776479048 3.0482883887570122 7.687884869847773 0.39237759610573714 -0.03908051094122946 -0.016900632410080572
Ni 5.373233625555336 3.4373390993363384 2.5961396636839975 2.042042892912722 -1.6112221623394383 -0.48042245276081136
P 2.911359926374344 5.177068801127951 4.579274322057115 0.4260893865358855 -0.5153020382468159 -1.4647222468712644
Ni 1.4318936080975722 4.917386258107618 11.700197974697343 -0.39207266327080864 -1.926721202819566 2.9963854785394526
P 6.693184280929148 3.202257961776932 4.545022532831796 -0.5441271900086241 -0.04980561066821745 -0.5225142397245389
P 6.807019649457595 0.010284624110816423 13.046621840867605 0.15009766012176085 -1.006677133364389 -1.0191084171492062
P 3.613633557814516 2.4945975031699543 11.557172560801357 -0.08209686660175539 0.894839288054775 -3.5974985990148176
Ni 2.215747223830866 2.0749870878634615 4.054244167515987 1.5035978408905395 0.5550482077965021 0.7425443631713793
Ni 2.6569424213848727 0.14799066328451893 5.672527616622084 1.5888314533490635 -1.1077947640430212 -0.6102685617223877
Ni 2.3047282402314258 6.829044746273526 2.739000193826703 1.6930027832523553 0.2958586405413807 2.3394796765745
Ni 4.527023972218113 3.336722536255478 13.16652980308218 -0.3069634922052907 0.25126671286361885 1.4524791678378532
Ni 9.217751279936687 7.239314871692532 10.849352839478142 -0.4486443890182661 0.16188128302025023 0.7204400750731721
Ni 5.581652310737823 5.308891488195993 12.422168656777878 -0.9602316974176561 -0.6376119867323471 0.5095787626097933
Ni 6.82244002774727 2.944486571351432 11.829416247935173 -0.0007898428911470267 0.6240818134563961 0.39648724739873653
Ni 2.190077821331652 5.655465895515671 8.098080984945703 -0.890618565105208 -0.7672637202949302 0.006342654388576173
Ni 7.437278427973879 8.053400298325448 0.879119888388132 0.20123664488942114 0.004460092653882641 0.49402770224907183
Ni 8.516648697880603 2.880734642881669 5.816581680297052 -0.5167796512336068 0.7719747526173544 0.169520801843379
Ni 8.314000944062904 0.4951243637900377 5.133565721768333 -0.54170341105848 -0.45618389192842085 0.11929661558050422
Ni 3.226840630447712 4.031951134600975 2.4983898294953852 -0.21848823288101726 -1.0527680141851805 1.0287688230571055
Ni 9.033203265399456 8.497790118599248 6.936023386448261 0.7503047238430884 0.16706308433150585 -0.5263883779679643
Ni 1.3724979833366173 8.3678223737556 9.368596493199858 -0.631657568921125 1.1966996547055455 -0.382250020753432
Ni 2.529869510618691 8.818357861197095 11.628692762465409 -0.8569867359833756 -0.7668813972548469 -0.36410780262676645
Ni 1.3346309304527406 2.644613613469192 1.9714944274952804 -0.8228612550545764 1.6245150227936025 1.55722462507706
Ni 8.785184374244643 6.630846980115363 8.515077618026911 0.8007952763934724 -0.590306516778164 -0.6683970904340036
Ni 4.639397871115219 4.068675243285982 5.571075392700737 0.13130546711592225 0.6991282009692733 -1.176509810021232
Ni 1.4132036599275242 3.9561233448824944 5.5751197288536245 0.502873839785792 -1.1496127285200717 0.375831775931914
Ni 0.6808659118595319 1.997847722834802 12.435743461238228 0.1509561514673142 -0.5331074418593529 -0.14142995714443385
Ni 8.578199053508282 1.1155416432824428 1.291470734352785 1.2488035744896364 -0.11611333275651617 -0.6643635437945783
Ni 8.838930856776756 2.641081728526782 3.5849100585216003 0.8186490167454418 0.903998843066856 -0.14140578877471777
Ni 4.7097545181112395 7.867962286256309 12.671623722897337 -0.2744454649729273 -1.0526358594826903 -0.35838812653416985
Ni 7.275626770994339 5.731883894123733 10.23079518640767 0.19872082044610292 -0.6317773823284409 0.8697610049299086
Ni 5.135754178857318 4.188984172809669 10.437895738403428 1.0978363672787286 -0.14761757401238448 0.15431478352690198
P 6.451826318671028 3.471842898389114 0.30081448158704677 1.3841035074769326 0.5332807342124235 1.333356101720736
Ni 0.990070728073694 4.744473790250688 3.3314097194097467 1.080301957939391 -0.041897411564734297 -0.21753769604228987
P 1.4730114940716779 7.452961121325587 7.391055703524655 0.27198337658567995 0.818275692566423 -0.9456175470489069
Ni 2.0218214458258563 5.356698408252011 1.2305124612937028 0.0024816287712731457 -0.3733450049543183 -2.5669289753035467
P 9.318911209931764 5.5568541689803705 1.5494369873957972 -1.0626598193775956 1.2576358280692859 -0.1436950990295267
P 6.191103883797626 5.557013431696606 8.210885830016153 -0.5977022950216029 0.12203226934411242 0.5070081736691398
P 0.15561653687370144 0.360263506199916 10.851135645060479 0.2638185813867005 -0.26810615301846086 -0.5890790721289662
Ni 9.169953728275742 3.646685255631022 0.19134759568100135 -1.2133177228782006 -0.018201096389058976 0.27023656909790233
Ni 2.7051990244043806 9.097938875351852 2.8528477412687456 0.16333112809289937 1.1158124921411752 0.5005770733318153
Ni 1.2424084493570247 7.954816676975364 4.435412310481137 -0.5646602769649695 0.14371489652386862 0.976419620031428
Ni 0.3351159233062518 4.6307414740680395 9.845362550005424 -0.7353241912738562 0.9462821772160992 -0.5929213286931917
Ni 4.008502041733993 2.0599976557471322 6.584951212654177 -1.0910414558440822 -0.486128244896337 0.6011899964598871
Ni 8.897745641043203 8.048556838072859 2.720174403928101 -0.10696329082613192 0.23674769331183745 1.0360787264549576
Ni 8.502942735889235 1.4904741824872012 7.666480897625162 -0.5139061863405536 0.5122925619965306 0.44466740664838905
Ni 4.4109214520820705 7.900414406788162 4.167447169377026 -0.4265997505134008 -0.11100172256156365 -0.0873059216065206
Ni 3.352742491829805 8.33552014754491 0.7499512676441863 -0.78872960347819 0.33700271887985833 -0.20242603721183206
Ni 4.884428244241839 5.501346428174588 3.309470811828484 -0.5243849743846904 -0.11274081673985745 2.504981072845841
Ni 1.7910966119752576 6.756317895324112 12.917417620222382 0.9945250713828873 0.870313792109585 -1.258784339851432
Ni 2.1400131180631123 0.8200633995288092 8.024860419575957 0.7726195852902048 0.3633902077344516 -0.266676876771102
Ni 4.979058402871241 0.5385450012730145 11.646462734239316 -2.7464403127007344 0.7386334581527473 0.218909636689152
Ni 7.184491023727057 1.2106589584556247 3.129438363716297 -1.5002006422835323 -0.7501604849557404 0.49922313040708216
Ni 8.903338572901607 2.423716226049862 10.182215373758154 -0.7393070871810041 -0.4068932732234089 -0.014193517891562651
Ni 2.9641695693991865 4.469286553385027 10.058234970205474 -1.1068393421082874 -2.1109875384032355 -0.015617651932598908
Ni 7.15548647258196 3.7239370414005544 8.651809344113053 0.8738649997959531 -0.5924747280740764 1.444032836842713
Ni 2.1737299719297805 3.419520411908052 0.08285689654153187 1.198527966163536 -0.6934573758367412 -1.5867442318027318
Ni 7.480719675926015 5.173349548284086 6.459243277050089 -0.031057126416120708 -0.5859441260444102 1.057315781456863
Ni 4.987340064115513 6.851444578892366 1.685552273086154 -0.7144828290484728 -0.39792937916190174 -2.471638235719337
Ni 8.012881989635995 7.144675344668058 5.2036319485171 -1.7880706081924818 1.7932552377172148 -1.3068308017366976
Ni 3.1424032856574144 6.787767597583185 5.891350841372317 -1.026923799428567 0.5271237134720922 0.6165261125963252
Ni 5.98950539022807 7.740158640674457 10.221676927483404 1.197804714844266 -0.7243391530172623 0.8031725183763974
Ni 3.120490609582356 1.1579804729618 12.989773482726918 -0.3837785415828165 -0.14966494345971645 1.9897168298154957
Ni 7.761378055514135 4.349502253985412 2.319617430520477 -1.5135955755331998 -0.5186956373093969 -2.121635505035385
P 3.696450170257235 5.887642830602539 13.569609685282884 0.9117095814475525 0.34268819930040983 0.15156113204116478
Ni 6.611042192931664 7.587781694816897 7.8109321812512125 1.2233203426168673 -0.1752070535948789 0.368437797460688
P 6.460023664359646 1.3500700455325596 8.68844726356339 0.704386106934103 0.2796786883474086 -0.370147323952627
Ni 4.332770300385558 7.532901636480986 7.856893527477907 -1.658807882538201 -0.35163512408105246 0.8539196670222778
P 3.9490033646272384 7.700567803097202 10.41213171511398 -0.45563907516854435 0.7223496333910592 0.13975694031738511
P 6.3453919822500175 8.710780580577213 4.048539751756215 1.4416018588037172 0.23132806495816288 0.6165939897197832
P 8.581665359685182 4.267912901297216 11.728279738927778 0.13416530516222056 -0.9236891224069318 -0.7015314110941273
Ni 0.595128233833143 0.7546101705138428 3.3233884995484964 -0.35993387375473496 -1.8475448522987148 -0.2980119394389577
