# total energy = -340873.88418553997 ev
CRYSTAL
PRIMVEC
9.19953675596400 0.00000000000000 0.00000000000000

0.00000000000000 9.19953675596400 0.00000000000000

0.00000000000000 0.00000000000000 13.46445194577714

PRIMCOORD
 96 1
Ni 5.4161536606933955 6.271802573088117 1.776971477684866 0.6019824104541955 0.49851967658215435 -0.07706110395006083
Ni 1.4384579640884134 9.128332327844165 4.253770114424578 -0.3703167596509558 0.5992228454311873 -2.0082154028403156
Ni 5.409162012769301 4.272062473282826 5.580180480853665 0.8083985426620272 2.1127155768379358 -0.12408529521839921
Ni 0.6669268558036121 1.411052544133313 0.26262101528776016 -0.426910082664968 0.2599310734068362 0.34257044277562293
Ni 7.767316064051833 2.4871407559453256 1.275065911963358 -0.07166435841452173 -0.6391423073339445 -0.08364312804295272
Ni 2.0696473795094885 5.818670191312884 9.48800845576244 -0.10909113580241213 0.8000889943550672 1.3182534417513425
Ni 1.5203246415575093 4.233682005994247 3.5279423046751703 0.4013936835614184 0.38653553550266334 0.7311109245234569
Ni 4.443633833525397 8.612643096221774 0.9813872606338329 -0.09862623171534626 0.9410978048016824 0.3958771246185634
Ni 2.997825439579943 6.912890690043829 1.371987631311112 -1.0654029293403717 -0.616213466451913 -0.9194925678270809
Ni 2.391023996062517 9.179380557226791 12.573306770502192 0.46554579275929503 0.243822854991064 -0.4493990077961035
Ni 0.04053959856198061 1.953586023969527 5.56100680637551 1.5985347966797567 0.941926728460881 0.36033316607568266
Ni 4.421324956925492 2.3729929040477478 6.131832541508776 -0.5103434086899599 -1.5027313791251862 -0.26135135079313054
Ni 2.35137399270351 3.613191651804384 5.975469855408457 -0.02314172822378595 -0.19158318096005716 0.16388828614795
Ni 7.913864684355542 4.850593740391382 0.3808773802944173 -0.5619516197845548 -0.6121570369943521 -0.34358525719338245
Ni 7.949485290621453 6.581026601604661 1.8853199416201425 0.39069069532161743 0.8970121273363777 0.7711993079039106
Ni 0.36918108928034726 1.3383486052594773 8.10407890580624 0.45593680891462124 0.3430954620411575 0.30492717850155227
Ni 7.131747669141458 0.9274420971310761 8.14887513001885 -0.8168309897000965 -0.06714075951255533 -0.5970744316296169
Ni 7.450566814480147 1.0971735500252013 4.372526934230012 1.1111582811986156 -1.0364718481283182 -2.6973358418645996
Ni 2.0886168242719645 7.985013901519941 7.827263005325221 -0.7247939811664937 0.2858706760907334 0.22439559950438773
Ni 7.637225414979974 5.004180006302896 10.179906534099159 -0.048195328758304096 0.19152893068335403 0.16261353320058447
Ni 3.883409644533877 8.035086980007893 6.108148334165907 -0.740314445399596 -0.3078039858287151 0.49335510166207935
Ni 4.700227312339649 6.795440204455792 12.86843434886862 0.1257840230770608 0.12335330214838112 -0.5109818136049071
Ni 5.619279431961812 6.784299565460953 4.522628415623569 0.5017214713489037 -0.574028862664063 -1.3089794726485842
Ni 9.227135352455702 0.7497061273175372 11.400580185074087 -0.2576929281049368 0.668283704784591 -0.017032015781622282
P 8.515311997488991 2.2625156673103195 10.050675121759022 0.12504637358008786 0.1884945147324044 -2.1540265197715804
P 6.04346087160925 3.635988103851627 10.174036309703943 -1.6245235074340343 -0.9391594501283891 1.494007111878311
P 5.92072065239443 3.557654048491547 0.8729891192001483 -0.2978083080685839 -0.09272400729829838 -0.19166031405489573
P 5.890076995506066 2.4776100358803763 4.229251509099189 -0.8363585182100629 -0.46639579946441606 0.7398673305598483
P 5.518038530113582 7.903929184673935 10.038610849275262 0.19375319202818245 0.24293222485599453 -0.14113608005309888
P 0.3329753924776308 3.625270643546931 1.3803490902561237 1.2042376149538034 0.650146628864248 0.24152994519182922
P 7.7608763883322744 0.9410206133626061 12.905609676843968 -1.1826197795737117 -0.5553001759063081 1.677780566985962
P 8.07460818985251 0.21793334560870853 6.325504868820878 2.0965181411424667 0.7993541730715719 0.031024216295656253
Ni 8.181102027180552 9.13330927722171 2.0905846051811277 -1.7391049769270568 1.846235389458672 0.7287326540992676
Ni 1.2156635832651113 5.630300476979002 0.30800784975922124 -0.40425634982119407 -1.0016375140579523 0.8786655065083899
Ni 9.03978678670021 7.249869720911679 6.807236770420352 -1.219884320352125 0.9901899343426431 1.041414536845574
Ni 5.732700520456754 4.388813794078454 12.379513009305093 0.6263675241667793 0.6828083807633273 -0.20911527630654952
Ni 0.46230156004621203 5.8608500672760035 5.088566436885689 -1.3539994890027003 -2.5626673718137156 -0.41596258251452883
Ni 1.1586080563898067 6.663969624872597 3.03504860514635 0.2651429566250788 0.5134559861770125 -0.4408302922904859
Ni 5.158253847661747 9.01994338594722 11.952043655225983 0.6622536965404272 -0.6327040079077685 1.573948108479328
Ni 2.4310971781116666 3.077245040275606 1.8654728610524576 1.0396841844180287 -1.1173263576825403 -1.6115348084838506
Ni 6.583952054288688 8.037368465119966 6.528696876753839 -0.6169143491736795 -0.38576060500985176 0.4763811928119022
Ni 6.70740063783266 8.180237270726783 0.4116553504192187 -0.2854770401967406 -0.29595891356467097 -0.856439605230654
Ni 5.663234818516183 4.801826996120826 8.214931483642752 -1.6881485404838477 0.08327186074646303 -0.5081163191316539
Ni 3.2666267036511325 7.6747963230352365 10.537239540009189 0.1511986064954235 -1.0640667270274515 0.383733547277494
Ni 4.01272753251939 1.2670613950439447 2.879454080364008 0.4389639285057086 -0.5630895900437399 0.14827011999471884
Ni 6.905687452774664 2.2321387969874795 6.279604700199201 -0.8715841741815764 1.325954409940026 -0.34845749768401924
Ni 3.5924466964506574 3.5528794889223305 10.164705219586299 1.2308660161746092 -0.3892971574082005 -1.050889823325861
Ni 1.711031038223917 2.188698584490674 10.44915489565602 0.20082655393519608 -1.2741268837457733 0.3156723328331983
Ni 2.396801305136637 3.1948519179882613 12.924649038085684 -0.6387065053481064 -0.5533355959807696 -1.2161029989328218
Ni 5.408766432689386 0.1082058711157719 4.978022963483716 -0.5169915101340968 1.3290415335057821 -1.3005418834041924
Ni 3.985846486158597 3.458547439167514 3.7875504716798503 -1.155809858469719 0.7960078823071581 0.17373946791041692
Ni 0.8679385735286645 7.8701116876095005 11.063188095006511 2.1274911924852136 0.253852214202608 -1.8910648870685367
Ni 8.450170077817267 8.454576655916794 8.793930087217813 1.6077658283597214 -0.07275116372079728 0.2956141286307425
Ni 9.031240417066678 7.924425752535621 13.253355845514921 -1.427371317026632 0.3631084148279747 -3.2093923765909245
Ni 2.1983580980700146 0.06902964389898965 1.7795427482043191 0.6677216616335339 0.9862042102220177 -0.08614738252204518
Ni 8.197550798875659 7.828925361614542 4.497207335743768 -0.13987778216596555 -0.1547492999611593 -0.6247510716092789
P 0.5833214658902348 8.056015926096466 1.5293190286303866 2.133713519245841 -1.5779675140513663 3.1577036899673807
P 1.9971918281276928 0.18827771896645906 9.491146417745213 -0.587419425038356 -0.2457640378778348 0.6059737910017757
P 7.716378229110113 5.598994453445197 3.8073027970190902 0.14175905834907843 1.329281674541046 0.5651058491428204
P 6.059238077122172 8.661952613160121 2.903999364345949 -0.45526317988636433 -0.3674021571073221 -0.29423010379902226
P 3.7783141367906525 5.5362168147162265 2.908442740592446 -0.15537022137460985 -0.5817174895575723 -0.23065520726085437
P 4.544009978919858 0.6572047853744245 7.4562769669360485 0.1602026097662467 -0.5945958881821373 -0.519755446032479
P 3.4026234553115042 1.4619535809280664 0.32499387440007294 0.9379741715710362 0.3433476872612797 0.977277082935717
P 5.34253896768208 6.297855661142108 6.564055296222596 -0.0360581791751379 -0.9104379138239804 0.1766792672650312
Ni 6.220745144168745 4.189064252794436 2.980437395183456 -0.2929828616554825 0.6444097263804709 -0.6575074401046934
Ni 0.5586703872357579 1.8067246194165834 2.7773659011818186 -0.05080936934238347 -0.6315974051071509 0.5010727820213112
Ni 2.9422694371936218 5.920426267218679 4.807213324883401 0.6669107356964643 -0.1348186224755033 0.856709571062589
Ni 2.1441544275848012 0.8637215058860267 6.306533584151053 0.9114236747760175 -0.07563645568839232 -0.1845833526034563
Ni 8.31744836123713 3.403534209448985 11.881705837202247 0.2979371203369643 -0.5372111796150814 0.45001838654765725
Ni 8.5503438334034 3.6410478490598535 3.653147999736907 -1.1128906905086897 -0.2905081748627449 0.46691747629584107
Ni 3.0710353529746013 5.18827193605164 11.588799946959071 -0.1974967182310147 1.2025026345405678 1.585480791709276
Ni 1.00954796255547 3.847853435025162 8.95147767365053 -1.33001726715549 -0.6970296665690318 -0.7969818161846532
Ni 5.0423948819301145 5.7659108480962 10.531099769187424 0.8764870107998325 0.4654272649035597 -1.0234152720546763
Ni 2.9566759117319528 2.084937009575073 8.14478133616856 -0.4637231377282594 -0.007576783905993404 0.9104487124572579
Ni 4.85991287111126 2.2575571170062583 11.825397312710413 -0.23984227307676115 -0.13205622923901772 0.21186584246849316
Ni 3.683687701860085 7.9178388842281855 3.30269532735639 0.5488937581593322 0.4099752545828424 1.414986313098718
Ni 5.762626613479224 1.27434742814379 0.6729718713969308 0.1082724965558587 0.887981127482361 -0.7052132308210887
Ni 1.5102143506777999 5.588497782022314 7.297719271369034 1.744248725911525 1.4677301804596528 -0.6512516890029688
Ni 5.465306785507125 2.5215562228980044 8.463538844611074 -1.4912730007765995 -1.3129762525128033 0.0339465321487738
Ni 6.951234359185441 6.688366796312989 8.416049915994014 -0.17502321971884696 0.35787879099791914 1.0509471589263577
Ni 7.58966381002265 5.008963765408854 6.531376701806851 -0.4669717265725442 2.0082251730323284 -2.074317179565395
Ni 7.567851708406824 3.555712946238937 8.116910419654301 2.113186088716451 -2.1186041744082287 2.2456179561273326
Ni 9.142159231567733 5.984786226267314 11.792085790166803 -1.1045011808934138 -1.664158605327153 -0.10442715466783949
Ni 4.111466160373734 6.693141355882205 8.26577272344868 -0.033666281904193636 -0.09875067310835252 0.7892271119398988
Ni 4.081963246041406 0.5489133585669498 10.161917759953404 -0.18856033497333333 2.0464968149190175 -2.049654900932025
Ni 3.7233561042925767 4.852249657004984 0.35322357284727685 1.0243457542887457 -0.6384864189175004 1.6100875345143626
Ni 7.742504913458043 8.056475902933576 11.013625590807754 -2.148680424968319 -1.0999009631172412 0.9341154599465783
Ni 6.637944135428831 0.9635502788443249 10.340146824936326 0.22865308922916106 0.48959974838470527 1.0390084985072428
P 9.040955127866473 6.458497971734912 9.425048666205972 0.786750111154316 0.41676502381116615 -0.3404084021272976
P 3.221742163885797 4.31590746539629 8.118660171542674 0.32505608804094344 0.40222157877935244 -0.2583701566776196
P 1.597471956677842 7.562341185898229 5.550006920292828 1.4099256107463587 0.2226030263803392 1.3818900447653812
P 2.148643801515009 2.095534875902121 4.326707721531666 0.5749989398868162 -0.22253874880130706 -0.33674535145341356
P 6.891152184721943 6.347781547042186 12.533142513039294 0.42194811067400234 0.5971369094364362 0.07800418458962051
P 0.3203821466311935 4.0907856017772035 6.629478721718632 -1.8860872313482873 -2.029120528424099 -0.26998305832619957
P 1.203768582257409 4.212642665464769 11.236340855615072 -0.2826328858797261 -0.24774944373897975 0.04950941958403731
P 2.3891196919568753 7.005143644494902 12.601582466633108 0.012310956156869121 0.24928336388500294 -0.4095916459911784
