# total energy = -340888.28315053805 ev
CRYSTAL
PRIMVEC
9.09960586028039 0.00000000000000 0.00000000000000

0.00000000000000 9.09960586028039 0.00000000000000

0.00000000000000 0.00000000000000 13.31819297877959

PRIMCOORD
 96 1
Ni 6.573336882614366 1.8234700182551646 11.275754762177968 0.09579313314192534 0.6668382305873162 0.47167427425453606
Ni 4.607576327528741 0.45442339711383306 5.858833100617256 0.6269174831329783 -0.9395232612257111 -0.819794957424427
Ni 3.0813085362621075 1.8899062406379228 4.73930586179826 -1.075449000722464 -0.7164083282059597 -1.2812802069611031
Ni 3.7033666924472533 4.7943730366197235 4.929888916887526 -0.5090750835004975 -2.2757561702736093 0.9027947954564258
Ni 3.931193524360296 3.076021665257535 2.810458767843699 0.1389385581811478 -0.23931108316363947 -0.8664802772961078
Ni 5.50800962617839 4.889491216672726 2.811896505569555 -0.2721335290102991 -0.8286182121430117 -2.4259831568843833
Ni 5.217850494125381 4.715097270368718 11.587893082224857 -0.47344165056760396 -0.3033480069398905 -0.15506811675315874
Ni 5.636887343971433 7.973684327992406 12.186373249666548 -0.5948707391100787 0.3735249821756083 1.3749822619019545
Ni 1.7940145940868328 6.775193439403398 0.2858541085207142 1.0348862488087531 0.1976838945411563 0.43901586478956645
Ni 2.967108482721002 1.7839413303999798 0.12383744610727263 -0.5037559852804293 -0.6642920671266946 1.1764571024064256
Ni 8.06199600286224 8.82919287251198 6.724835310614408 -0.8293193519750944 1.4135626932783139 0.3158926763741205
Ni 0.018205581443800127 2.410949672172883 1.2439670788341894 -0.5103346669392114 0.11202270762691029 -0.516232263370569
Ni 6.885972041141201 0.7573319869370765 4.6502471092873305 0.5178446021630114 0.577380038524483 -0.42836069906856555
Ni 0.8859176073820183 7.427589681525281 2.3778034478677967 0.19337652541505404 0.3330581324098135 0.5580767102101808
Ni 7.656253677177429 4.274758243204759 3.754451879744446 0.6017270999102798 -1.616976291214396 0.08350685957540457
Ni 7.995896465896298 3.9825880982567234 12.325415227205042 -0.5558768743453846 -0.9705775594283542 0.9266949991127911
Ni 8.411648358026945 7.545729864403702 9.26931623901706 -0.7262425406875622 0.8962297406443984 0.23658725647457318
Ni 7.0427309512888225 0.7693744053320007 0.22806615154715637 0.43259170643077755 0.31746799128104036 -0.40845907504863205
Ni 1.8462554313282267 6.493205753412535 9.045783511109281 0.2742626595381599 1.4501980851131604 -0.5727628514674459
Ni 0.4965363730332148 4.861919410917383 1.2117089760610242 -0.4260479917749888 -0.32049880768756417 0.6554387305011228
Ni 6.480648297325942 1.8242161859356723 6.650692632028943 0.11928555983691068 0.9238619005393702 1.7488250324282977
Ni 3.9735339904261733 4.5210845738308745 0.5233756605168397 -0.6182184126970837 0.628476342979666 0.015116029705832031
Ni 6.134735880169638 5.884241930059711 4.706436265511313 -0.2578261112486914 0.9955054330182855 1.1622815822369916
Ni 5.075032180155049 2.990840254803488 9.367338103299941 1.2754641144999581 -0.029900387103858183 -0.32050420700420285
P 0.29387268120441323 5.659144979904624 12.472394790935084 0.8585545946911277 0.31741194123212435 -0.5064654137917922
P 4.170795246255983 6.334281137070269 12.599449857674399 -0.7960724169965064 0.16298608604865478 0.36049463135421145
P 2.631633313485944 8.902572094165803 1.358389162758276 -1.0691199731806424 -0.7138212842050738 -0.48697285228481935
P 6.118147298687133 7.965703973653318 5.729127318690966 1.8106824320547268 -0.899921844784005 -0.42808379125809504
P 4.750849621792065 1.0340064130663749 12.272674821601942 0.48089270752901053 0.05843963219413162 0.669523233618647
P 4.074776205222855 6.4926324782433635 7.88337164979399 0.20968683253930337 -1.067697381801503 -0.17323167503606293
P 4.940985886233612 1.162993326129736 3.5650808921557124 -0.8319601320320511 0.18528372110459057 0.46382443919281413
P 0.15513008069870776 5.675169385823819 3.413892760715491 2.082825988367355 -0.16048311712114294 1.4235316315655675
Ni 0.5091001988439084 0.10210667735336694 4.653882401828341 0.8389669023671874 1.2690774942473242 0.3276912116709453
Ni 1.795880013288102 6.762262899476553 4.643174895613057 -2.334343383789199 -1.2353037402309888 -0.9898029833168696
Ni 6.262457948018481 5.754936530791255 8.97189380156672 -0.13735424441316343 -1.2492100658994356 0.9034650820505731
Ni 8.7846776006456 2.8306780920642836 10.22831915078363 1.0300523177552194 -1.452834237184427 0.8767734316919997
Ni 2.2069183095833464 5.480601613328524 6.863570631435425 1.3051392729668878 1.060215471602161 -0.25592452335060445
Ni 1.0746816512599005 0.10361812188668788 8.83971110692538 -0.7062594126974159 0.09247718139481492 -0.44600618006447057
Ni 1.7542493164792923 1.2121129985612016 11.184245485808983 -0.7953869608937075 -0.573400742161761 -0.06934162381861605
Ni 4.300264438429917 7.1503610893991185 1.4676381207510387 0.06207748605703503 -0.531086297664266 -0.2701049286160445
Ni 6.060137311330594 7.902261521598451 7.901710085483343 -1.286011036777869 1.0033750655743494 0.8673853056088805
Ni 5.50317773546681 3.1684827603994625 4.640617906366439 0.6205349766454022 -0.4452464190803106 0.9075675342547208
Ni 0.7048718491944603 7.457390890716287 6.745664308427602 0.8082231934264273 -0.6017546107141056 0.2662595867280253
Ni 5.318492134935312 4.612162528882104 7.04575020051312 -1.0457699856007925 -0.08019065071797801 -0.2176685651931993
Ni 0.942682768656929 7.615724032677662 11.346527856713532 -0.750739754497978 -0.3422431413431913 0.3013330333923907
Ni 4.622536079562333 0.19979458610119116 10.122506203963546 0.02999757480335479 -0.574192641935437 0.640445085305768
Ni 8.22371419820348 7.522999048965799 4.425968213699044 -1.1721918993721685 -1.7983964155985221 1.118835595238215
Ni 7.244733101771613 6.146892953598397 6.744612393990203 0.7449205767130397 0.7128995437217529 0.2909509188271183
Ni 2.6983152252269185 5.418496803335055 2.527833199482059 -1.32742585227923 -0.19346471425348616 -0.34134222679547666
Ni 2.384569914785181 5.261692395158135 11.757474246989592 1.078084638573098 0.6183130292934189 -1.5238380791968142
Ni 1.3393254884818924 3.3691927668501545 3.5057878603729353 -1.0781697420877365 1.5352378363933237 0.8396143061431992
Ni 1.5852241376325948 1.236863926499991 2.6558073264132194 0.5614595106394846 -0.8655659930119544 -0.5304710326777703
Ni 1.158006742118539 3.618949648885433 7.792781433616847 -0.332751142692356 0.13113423164538063 2.553836918006279
Ni 3.890909569218744 2.558599876854795 6.7453185234049275 0.41825883474787323 1.3704144400256142 1.3749447237957997
Ni 3.682646889904377 7.076781676416378 5.742405463561658 2.3671843415786196 0.8961965734136178 1.1368662274876808
Ni 0.4364034476295739 -0.08388562657960508 0.5917655682777078 2.0628703711810346 2.406179749005211 -0.8385092460044785
P 8.878767525236439 5.888100162944287 8.12863878629802 1.3395092658063255 -1.2051544703411181 -1.363286570731581
P 8.659130338597262 1.6567379400851492 7.957846463993339 0.0073111889494325705 -0.5901136840410676 0.08855007842626686
P 2.0511421568685893 3.3574269764733695 10.194450417773272 -1.3802885046062165 1.1667133927561002 -0.7748045087566656
P 4.164598414665425 6.329230855818053 3.709676359150473 0.8639428555862346 2.2530322463135324 -1.3200467862063394
P 6.815440996121511 3.973998070325026 10.441636661153142 0.8986851441634264 -0.38626171301598644 -1.363316138417936
P 6.375620646491565 7.418517374483011 10.263852201705754 -0.8937167444145576 2.258459073756059 -1.6265973592439278
P 2.4075373199754395 8.860941397356994 5.573943550317685 -0.2558880136857141 0.6823301555753282 0.7676563277476586
P 7.346894376760139 3.8614632446562718 1.2156136169354856 -1.0681077298660444 0.38304217763742415 0.3956711792553444
Ni 5.4548861271685904 2.8125334779797444 0.19338573369409942 0.7492066056829032 -0.31933152685234034 -0.27247934238549204
Ni 1.4310313163374515 1.5848328545806214 6.763431288868958 1.4380105419080331 -2.323294582174205 -0.2523074954233074
Ni 6.847580804018499 0.9261305855978637 9.106847326192383 0.8321434516874507 -0.09341100606299396 -0.5102426214460374
Ni 2.9768359613851803 1.8110399566506106 8.949652544924078 -0.6148530957692766 -0.33722511930330956 -0.1041268498186013
Ni 6.461320734479623 2.0662202037783595 2.3534574523897707 1.4894642297026348 0.6550090991628719 0.2474313982779287
Ni 4.000350528895149 6.680766829395744 10.085494467089196 0.9118509921214232 0.4998515080197004 0.9180784610883738
Ni 8.334520098758862 7.259883945528261 0.31369981241243844 -0.6949059353578096 -1.2733005311897363 -0.9491870095677201
Ni 7.879658100642585 3.684448611864627 8.321207375385903 -1.6714499967822438 1.0582208097696355 -0.8492451443647439
Ni 3.0796797068131947 8.406061200028997 12.438339516004596 1.139987803835798 0.4135336613580621 -0.0850430937142729
Ni 0.24760118540708045 5.314033328063986 10.15327106141511 -0.009026114758010262 -1.6144100731491162 0.8043570256028019
Ni 8.686037873124835 2.4368107520265747 5.659179558406891 -0.3934703149492837 0.43156763604163745 -0.7070698244138532
Ni 3.6650027541421295 2.760893214725101 11.37950391838904 1.385571864492343 0.44799878501446716 0.24288311678561392
Ni 1.3185874867272962 3.3350510456640006 12.349480954822585 -0.9643187230028362 -0.669303404298357 0.9401166718353359
Ni 3.3671908535609876 8.634233816964713 7.681201156602792 -1.0592096560454662 -0.49702020921849244 1.1891521813755908
Ni 5.799806687286171 8.115920267187708 3.5057214332501587 -1.0137965180179895 -0.4841376968288694 -1.0150406748377356
Ni 3.0978061216860144 8.345749012389916 3.482174383166627 1.091040684513134 0.7501923666349403 -0.4851103451547839
Ni 3.4293047631603177 4.5479466103291495 8.707621228263811 -0.28819289646600693 -0.461856773943482 0.9078202736954752
Ni 7.489721790336331 6.20338330677634 11.488899380036145 -0.12596142919518952 -0.975300161715004 0.5283884391171287
Ni 8.166914458426302 9.031067628512734 2.57892111666101 -0.7823180435248913 0.07395521133122747 -0.8183867642229906
Ni 4.78130600260498 0.409074601350689 1.292654519987312 0.2620103245333681 0.5052068587943428 0.02940879217942032
Ni 6.2569162880498315 5.686744084477547 0.4288808034652366 -0.27666021323605905 0.1403907172466421 -0.29430003780500924
Ni 7.807116042727868 8.68999620167387 11.391183262510156 0.806708556554114 1.0552540138318278 0.26717078568838504
Ni 0.17324102624156545 4.922222498950603 5.875480829537849 -0.9816230186092384 0.20521311303866593 -1.119129215219234
Ni 7.564438654051552 6.3579765107293165 2.403614479889259 -1.1948137505367424 -0.12047418082837318 -0.33572950859438955
P 8.593822467341123 1.826090704742801 3.4801633702716006 0.251460831152296 0.5318396308905228 0.11117450069400207
P 2.318725166783312 3.4587965857520886 1.4555320051150955 -1.4909462135648 -0.5176887933114374 -0.5376135572598224
P 4.9004835405514235 1.0386745108724773 8.085315562799277 0.7296883331443176 1.0427931623606557 -0.2726063548816595
P 8.887994525578325 1.5440757199343573 12.327159621648375 -0.5522012252660103 -0.13639136627926188 -0.14742911215066223
P 6.51399835280229 8.010619628177533 1.1997985019510677 -0.3974043598963672 -0.7018641118431977 0.6379508581290045
P 1.9935325521698846 3.593634545383333 5.79095004090278 -0.044746450977755196 -0.7875471531343147 -0.7996328806542551
P 7.143308894857734 3.9814233487066626 6.20566548792599 -0.12071894984932757 -0.10660924992082287 -1.9464433638388412
P 2.523994075769789 8.42939258945365 10.197434178534715 0.412673884460928 0.030662976301495583 -0.644633926576135
