# total energy = -340861.5528979534 ev
CRYSTAL
PRIMVEC
9.28425303122887 0.00000000000000 0.00000000000000
0.00000000000000 9.28425303122887 0.00000000000000
0.00000000000000 0.00000000000000 13.58844277788135
PRIMCOORD
 96 1
Ni 8.789049750806157 3.5923189732770755 8.626269866987107 1.558916410957186 -2.2060538206814653 -1.1754559148354207
Ni 1.0113615593575818 4.382232524099162 2.5723601954093533 -0.19882366457255438 -0.10694812131748033 2.171028453646216
Ni 9.091753543791704 2.47846854228511 4.533634555559489 -0.6905348028733076 1.38906136570284 -0.42858489926422966
Ni 6.486722061193166 5.075571272607556 13.517484651221006 -0.1409833565253185 -1.006201222169235 0.4735810043589457
Ni 7.827071134489003 -0.2462935986596703 1.3525866475055732 0.2670800257467916 0.5359593094858511 2.4288674204107137
Ni 8.876860218051197 6.6811714612756505 4.415618698788649 -0.7636384648375171 -1.8492991159856602 -1.044963173428781
Ni 5.941457867780052 1.366010749280748 4.382341149862196 -0.20077538898228645 -0.43552404958622415 -0.45442911402084313
Ni 4.51014168113394 3.184972361902984 12.680925155216794 -0.47558466505253577 0.23447612366884132 0.38963782857707085
Ni 5.279982676428031 2.702154055854021 10.266164230312604 0.021748190310368995 0.40323047965984105 0.7948056344689408
Ni 8.79712705113426 5.660924871557157 7.607068684184641 1.0315435575887655 -0.2678572702324484 -0.16156118067667016
Ni 0.8403298312493174 8.479939823077633 4.438474673441202 0.8624824689906243 1.5237249506577177 -0.007929282149405699
Ni 1.7649272587032112 3.4389988150951556 12.893516914576454 0.40073676670370983 0.506888874482456 -0.4717444653708392
Ni 7.177860441681146 6.266963786749297 6.128075071820253 -0.801748127225045 0.30182000033113826 -0.657686645995035
Ni 6.524100464780451 8.54824407424297 6.570365755579297 -0.33347053735688376 0.39522406441559677 1.5506073768708586
Ni 2.222232436819274 6.372367913904398 3.326695559349466 0.08157133311558856 0.5435281229720446 -1.7397611224538163
Ni 4.391646756895364 2.3927006107552216 5.706969197128636 -1.4887600045467586 -0.5276667304597559 -0.46755665254173673
Ni 5.284810488118392 7.697435106349596 9.762045990455906 0.8610071699966784 -0.8098807836345085 0.7678329625348389
Ni 4.1473502011099175 0.43899570228037377 9.786654832122188 -0.018927433032122243 0.687372603095242 1.0481238305449498
Ni 0.4740456151523845 3.3736840934765406 10.736296532719823 -0.8646676495674013 1.8677856048256218 -0.046537224329590815
Ni 1.943723407805029 5.449160339162133 0.6640682832849384 0.7085896034924893 0.29755274041435203 0.3546597698399892
Ni 7.632705292685776 6.8457719871571605 9.807309510329002 -1.0307339172032763 -1.1483616297217902 -0.4952417771618309
Ni 8.906709092252171 6.815310352241641 11.826715365357693 0.6652423468551059 -3.0103360271822734 -0.5508711936006772
Ni 7.019053289828068 6.919247567383134 2.7373645863072684 -1.1924709613361786 -0.3562733941840122 0.6778878035332583
Ni 4.760537991305092 8.7070790788558 5.033553527670902 -0.46005880150279477 -1.482428663012092 -0.4719545244991162
P 8.016553459082367 3.7314063712256855 6.400781442552815 -1.1921369750355275 0.328210317399209 0.3859526664159998
P 7.135914185494522 2.455322898931136 3.078312075283064 1.1470562806468054 0.482153576519305 -0.028687854852995756
P 3.5129850292499163 7.695076906023921 8.592013757768031 -1.7558230610126857 1.025972491258891 0.1525270954988599
P 0.10993484274143855 1.469093813123176 9.876460485390803 -0.34504744356120576 -0.7454337689040322 -1.1908290548573812
P 8.0700400420596 4.985235488478327 11.29408889746942 0.09844342628057885 -1.2397486633762198 -0.8027331168461336
P 1.162750592863358 8.681129591020118 2.3824619362703587 -0.7948285172870763 0.26027662967171306 -1.4510082397192816
P 1.180483516572179 1.6006516816854752 7.142697260919477 1.300633157566418 0.06304216396314949 -0.8141287602775851
P 0.3177470685276425 7.090170669728365 8.91575845389562 1.2301785031892813 1.4054256659934763 0.35010866013419706
Ni 3.1247732638255004 8.62596255820451 3.1792606893031587 0.88611167837379 0.07436144563071065 -0.28655304686973876
Ni 0.8429823424030399 1.53332227711146 11.919211595218357 -0.7067324956790926 -2.061351877653979 0.21074072772511449
Ni 6.074055572706429 4.511543603374794 2.847784067068394 -2.745224180905446 0.5524138554974486 -0.054500959261357756
Ni 2.414240078296826 5.7715096120261435 7.961999186981304 -2.397860173395922 1.4830146174225491 0.8291468309529721
Ni 5.28318574379952 2.095372400401825 1.8200088763889142 0.731640828884998 0.7527536996042132 -0.08917897025951739
Ni 2.794606649724408 2.9465805911849774 10.676602498019177 0.5907081230919569 -2.000591824856787 -0.09485776581184953
Ni 5.549708801867123 0.7518360429650258 12.697462267106925 1.3184334189726328 1.5561198220486554 0.47354166648057805
Ni 1.4467373312955107 -0.20570470029829702 8.49587531535712 -0.08735040169121085 -0.15931840738908046 -0.33924626349839637
Ni 3.4083514951146228 0.9728319083672118 0.798826433942751 0.7168531290528622 -1.286914779539061 -0.27098424589720427
Ni 8.144657585435409 1.4103337742995494 -0.012017537407695131 0.7205552604947978 0.8590891270383592 -0.04494982523781291
Ni 1.0640775493150083 0.8440593157801201 0.6458256540726546 0.14353620485415924 -0.534535432555131 -0.4866805178553811
Ni 8.594665340496428 3.7029315665058142 12.972302159236499 -0.5897719844309327 0.8588860098886176 -0.5981075008798216
Ni 6.889630799513427 8.064915134265219 11.937868302125622 -1.7419645578630387 0.6166860352129572 -1.5245243066305618
Ni 4.31883035865019 8.437334384910208 12.029074020784442 -1.2754589722936356 -1.3723620506702883 -1.6439304512057367
Ni 5.363856620294778 3.431032925806062 7.317172518558423 0.9680295961955201 1.314926948481271 2.337070552912375
Ni 7.91094507835575 8.973927085787176 8.408895788778016 0.6440657127774908 -0.019704420407462838 0.4493311306726455
Ni 3.392679675627455 4.596253130034104 6.288025115248492 -1.510474770516031 -1.931262542333345 -1.4069156202754416
Ni 3.167972894200968 7.6387307730454745 0.18031690978428097 0.10523319550890263 1.0072268352202716 2.8438244444788636
Ni 1.9684566584648713 3.393023192997731 8.331577456131582 -0.5008958901238147 0.20731164743890748 0.20997196787988998
Ni 3.900519044187032 3.4012211886180914 3.5121643012625547 0.2188150200928167 1.4031967766629576 -0.10666247175626146
Ni 7.832409580108151 4.032921779795144 1.659923282863215 1.208410001163938 -0.30035061487446335 0.08815104321563529
Ni 4.498991292979859 5.811088383633842 12.593212172630885 -2.2401559045714965 0.9207089567326854 1.165819163076605
Ni 8.138827074393975 0.4379632933188969 4.2953746212376425 -0.31247130939739737 -0.2462008683049373 -1.6073061151144836
Ni 5.453468232670454 4.825490627046929 5.208667541933495 -0.21589913199760238 0.006212813678931236 -0.28039911145320096
P 4.428718780125375 4.501841558727822 1.3739682827419157 0.015575228730437693 -0.17860810885662787 -0.8740323786117528
P 0.39277404747180594 3.069160586853858 1.0783530171132716 1.474816654992789 -1.8921969437904511 -0.22001495393818885
P 3.7434109106788296 2.3343212263148727 8.753023134492173 1.133133757028442 -0.005840003720544781 -0.9888627308907872
P 0.5461981892901338 7.092324616482524 0.1770776338251147 1.2205198970535946 0.35418874374084164 -0.25772815221824646
P 1.6730967098006215 4.88579185191017 4.673921479028089 0.47837662597537617 -0.49166203023037264 0.19510122141564462
P 6.484289586841485 0.2948298178036355 10.291261423699874 -0.22733462752805364 0.1948903909564192 0.5149580246438357
P 3.5082871971050666 1.383910789548081 3.8491437003990057 2.087009173210767 -2.3355307192290806 -1.8246401797863996
P 6.051996186982786 1.4171205634258048 6.629162931415927 0.41449216861658933 -0.5884221552712576 0.3415833962720053
Ni 9.031266633863448 8.796588564445718 12.659782125288993 0.8647591808399431 1.4488202309290272 2.9625631306733684
Ni 5.531307411924252 8.979516206244092 2.4166233461062783 0.11642803578345753 -0.3925560306651304 -0.2692577501244008
Ni 0.9995427049694514 1.6524206778113313 2.7653974605724065 0.7299009633757558 -0.02142294576046633 0.6253861340901165
Ni 9.101845527075206 8.609241618100013 10.520757022953068 0.10110168983903232 1.6560177213875735 -2.591143624876538
Ni 2.374392063344858 7.025023064668262 5.59040818284218 0.10589216924914022 -0.38996641556108325 0.8566758896111762
Ni 7.736382548736248 4.545245442674805 4.333585822341514 1.0029822010113048 0.006226440525686051 0.417564636894326
Ni 3.972880514022922 4.717254802650367 9.34129384581314 0.7904586703541547 -0.11094644384359603 0.1491340106569109
Ni 9.016356123142838 6.334348896842816 1.8967970781747339 1.5260381721719267 -0.5858307403949975 1.4015574412873215
Ni 2.8023404326822337 3.1593106859180726 1.3705980988119146 -0.1277977110729799 -0.11046667599370007 0.4437310108770487
Ni 7.602531469621028 7.17039590206759 0.3146581974711375 -0.6973163445715151 -1.8407903071837008 -0.5354983106890326
Ni 6.872185687655378 4.254806148233421 9.121120565248967 -2.1528350705666406 1.5909546703396535 0.37742765966412417
Ni 2.1694421728358417 8.745051674651128 10.7782854964714 0.43907217194879866 0.26741761159186844 0.7923402036475838
Ni 8.46956931219661 1.2728989734295624 6.445909412328451 -1.2343640020255389 -0.026432740270231896 1.0802183970866492
Ni 0.8664529346207882 3.747003916686847 6.226849313729035 -0.16230500082123017 0.9520890137058634 1.6800354244584097
Ni 6.696713301217308 1.8161206311275246 8.696019676383576 1.1867834240330981 -0.4750560462425753 -0.46077485373321286
Ni 2.0242178834885247 6.733581070875804 12.201457536166007 -0.23130055415433712 -0.6899149099011215 -2.1104892586105777
Ni 7.693062223068521 2.2460836834203004 11.331389313329398 -1.4221717751035634 -0.9816757262240448 -1.4262582864681115
Ni 4.331503364337384 6.461636008909798 7.0273719807406865 2.2534065989338163 1.293784767186017 -0.944126050105045
Ni 5.981203755946263 5.129243540649805 11.145050636886719 0.04009738224151804 -0.2740382022321797 -1.1605895392465495
Ni 4.09556263647756 0.2906082678505461 7.436669213722749 0.3762338964663391 0.12389349092256725 -0.35135718782931746
Ni 1.1691660118595857 5.4975777198644895 10.15910007867628 0.007583725884528875 0.2701697204157089 -0.6018086038804926
Ni 2.639197534561082 0.2440625926035291 5.558311590929214 -0.8098257620268569 -0.21441509125290817 1.2123615296125183
Ni 4.597181555359174 6.630971503949161 1.8435843806683951 0.03713675695129733 -0.23050814016002882 0.16840699995390995
Ni 2.204341680805191 2.416616847129003 4.927713040613018 -2.592245342581149 1.9571450665270618 0.5630607936883334
P 0.12389093222787807 7.508546973964278 6.302197527835672 0.2401328077339864 0.19054805482732345 1.3220784719243877
P 6.1638250173873645 6.429113269772625 8.162754451871656 1.2401268726512449 -0.8832875786614336 -0.08672588073333451
P 6.877273458436757 8.05512953133899 4.572538361955862 -0.018762882429799944 -0.8454178001988537 -1.2356634375632525
P 4.496503113108674 6.4772149858644585 4.031161485378813 -0.4343444274558262 0.7290342445000864 0.4516366388773706
P 2.889946646355759 1.4083376598506505 12.32234037034066 1.3196132982133466 -1.0677865990811997 0.1849800738212427
P 6.454394291374259 2.528752057890855 13.446661582148757 -0.5932275470797009 2.3689131513442687 0.08228481424284538
P 2.9529867259279547 4.856657865209501 11.356242330856174 0.3644253338671853 1.8510644354161991 0.9844851706483818
P 5.544556041312989 7.942372275609341 13.860483960165205 -0.276614190489472 0.6176057188137493 0.2746434399163464
