# total energy = -381163.1757488316 ev
CRYSTAL
PRIMVEC
9.27106364804346 0.00000000000000 0.00000000000000
0.00000000000000 9.27106364804346 0.00000000000000
0.00000000000000 0.00000000000000 13.56913878238411
PRIMCOORD
 96 1
Ni 1.2751791592507191 7.455696563120425 9.571073269704534 0.3848177814806082 0.01896419980732863 -0.5928249123246435
Ni 8.175854234354919 6.879453610732619 0.9860230323692367 -0.6445292826774706 -0.4930175158170026 -0.8200605523809876
Ni 6.269510342490421 1.666927947813936 3.090398694993836 -1.7364454278170223 0.40281216117549984 -0.9777601932197224
Ni 5.992008869545818 6.963087874645263 9.651171549994933 -0.431732957974908 -0.3110736577189223 0.8889406631821529
Ni 5.120510357594107 4.834247729633713 10.037878734222078 0.254814063895245 -0.7234984022835217 0.3639813043512312
Ni 2.5011753265873953 4.287190085171525 12.71813670486399 -0.9245584123857626 -1.910818158436064 0.08268024990905115
Ni 4.086666252540267 8.653990792692886 11.285031468485776 0.22036308130622695 0.4929691790775704 0.08045958810864853
Ni 4.332729549126619 0.7767102315316613 7.070186273192261 0.3797290541037912 -1.1044793265165431 1.609468927093757
Ni 6.417661937360619 0.5475109994677669 11.145459315786598 0.30227611403195037 -0.11524429988800151 0.7587052892019579
Ni 7.634303601616944 3.267762483873827 5.07640512716382 -2.7937049021146527 -1.217508878141413 -2.4151564985825242
Ni 1.3994484945223167 2.9909285275018553 8.302467294481536 0.9279448123594922 0.5844487724458064 0.8983686413642723
Ni 0.7324538827661808 5.7556987317706945 13.626535903793323 -1.1004277821549886 -1.2589684308377802 -0.8082856712332468
Ni 0.238127266222843 8.146075578364739 3.5449237087876586 4.204184842702586 1.1562906547608796 -5.012373326236335
Ni 6.026413786226876 6.450889428976063 4.796473708473568 0.2178750247770506 1.89511386032693 0.39921235963938345
Ni 9.122429818600676 7.520445670665698 11.248327328054541 -0.14961146451396168 -0.6665019302938199 0.6337100805747795
Ni 2.3533945742575484 5.5206309165057466 7.894592418051158 -1.4502407654256377 0.5422124894844146 0.37050033641667157
Ni 8.679717993929733 1.8659684102837908 13.085860459450574 0.5743494792282753 1.7704418393671248 -0.5074861417468227
Ni 4.159369932576067 7.387452264632344 1.8064732144289395 -0.8387545292460652 1.6333986984364774 0.06438556536492136
Ni 5.415061316331345 9.136215890038223 9.17247965495279 -0.1974920902453244 0.46604664365511345 -1.0365368970382989
Ni 5.744499287052095 4.263233657064855 5.9183697392019825 -0.6268897152188365 1.290024014592004 0.2939822494542743
Ni 8.295163550649324 8.94563063748837 12.746346696908487 -1.7185266385550726 -0.5648556808052271 1.2170283389605685
Ni 6.420693575127987 3.4504951456317494 0.8241103979329667 -0.1197342173385551 0.7849441682938287 0.3569362245789917
Ni 6.374412426092191 4.534968528507001 3.3503018351860856 0.2395792492233616 -0.9733499799671689 -0.008386424291482331
Ni 8.13352255837386 7.851635872389608 9.121337687319343 0.12782265077364438 -0.06846076387555952 -0.8161136519180977
P 4.568678115424901 3.4005241133194613 3.857909250205741 0.7296878189236852 -0.06493809543428172 0.7063910531792738
Ni 0.9881470330190967 7.764144846057314 7.338081997235425 -0.2562258566411071 0.4458763393548257 -0.05111584483920874
P 7.8102127606324085 2.969595810368168 2.593455784328322 -1.0799492025856625 -0.18499112956483624 1.3696919600372928
Ni 3.7854401280767123 7.663989546972035 7.427692388685824 -0.04704476009362865 0.017386828017879732 0.19359121252902145
P 9.143289711495417 4.000686409559903 11.806887581012065 0.1544860189974436 -0.24377554669289628 -0.12260331135623401
P 2.1197359606459343 7.853415916583292 12.297181284929087 -0.16652083867479062 -0.946365480958525 -0.12304374132776229
P 3.4329821066636765 2.0134617596448656 9.512087982342665 -0.21838718852677874 -0.41667889185526297 0.10025759667118218
Ni 3.352805949439805 5.912806173990367 5.784890529440769 0.901345464604409 -0.4824608233470787 -0.36033033786220525
Ni 7.257638833382501 4.713659006575098 8.220957958325101 -0.34706704509439584 -0.1064891794031908 -0.1709048266750992
Ni 7.868231076070312 5.636537752492431 5.693244212443843 1.2703846430945216 -0.6974487563843215 1.459126240840726
Ni 2.016345060396094 8.741620884977811 5.487644472541531 -1.5042740410219577 -1.4495961898631033 -1.0526410016890129
Ni 7.639634463134488 5.179400153001835 10.604579908046656 -0.006463753347472738 0.1591847100246936 -2.103414611151984
Ni 3.4813770581794734 1.0884321269934978 3.9187533858011188 0.15326140256172313 -1.167386250453409 -0.8224431936805513
Ni 6.484719539719577 6.9158981613856065 7.3288953004045805 0.218477691358056 0.6048095954903454 -0.49345177514094374
Ni 5.482842061643986 0.9642276891664615 5.077151447776275 2.0220337967806463 -2.1479453465745073 0.38430073263487363
Ni 1.2150841255868503 0.2934903490718338 13.408859676564482 -0.986208838207708 0.5982638239520277 -0.8560940489657772
Ni 1.8943193224936197 9.608252088587417 10.951217555788883 -0.8930024919563524 -2.4503808690024576 1.2186764160869528
Ni 2.9888703514029076 6.179812803043039 0.09422552686506687 -0.35916845634362016 2.1290127713360625 0.25985522586357823
Ni 6.401984568967283 2.16224378683366 6.921522915616379 -0.31853448487234176 0.8482570694198617 -0.073294437818777
Ni 1.089451943979463 6.130045734127943 5.523195292672273 -0.5154377924937317 0.9116033948869913 0.7831765348704447
Ni 3.474256881404736 -0.09616503335110224 0.0662111542606065 -0.3911280399693522 0.291240425043079 0.6426554626935255
Ni 3.9052778949911167 3.987169198964111 2.0510837353634677 -1.0670628335412977 3.508638445547299 -0.46954462950604303
Ni 4.6583941969993 5.5200004841871495 7.828280209198305 0.9115332037706881 0.033818748321657884 0.22206926536405625
Ni 0.24422113626715972 4.278725604188015 4.5536404504136705 1.9117337282717977 -0.13860200077733548 -0.9167844248672985
Ni 4.03290335525289 8.058185896301568 5.0484389640896055 2.359347104922388 -0.11933415368665898 -0.6775314486351042
Ni 2.0311509488196053 2.7950958530060364 3.3841977704805117 -0.1652417148520509 1.204778575058938 0.22661240465004842
Ni 6.614254839064158 1.0261120380875235 0.570834213936788 0.16749991475860831 0.012399659215933483 -0.21526304107550026
Ni 2.868086936010609 2.0482653320568005 12.668134150935773 0.7322974886323905 -1.2476702322161415 0.2628536463702699
Ni 0.3104999692913803 2.4390035746975616 1.7923200088764464 1.8037947037959579 -0.6670932840209157 -1.0008435574017474
Ni 2.2415577351512157 3.679944696410381 6.310599695961304 -1.4222177978501507 1.966237001526001 -2.3290839351624726
Ni 2.197381117531911 1.3470762567612562 6.503633436383825 -0.4682256535843033 0.9488838765050045 0.7082548458608899
Ni 0.523218958862079 4.868912236093016 9.447363906668867 -0.8977274082358475 0.7815829651310797 -1.0868909240108184
P 1.7569870587381602 4.340980795649428 1.4658469242658005 -0.6176674252896202 -0.06857234975275932 0.08403213595125528
Ni 4.262204569015381 5.972706515320552 3.559361535989871 -0.1501609092595285 -1.2523612099339076 0.4044818355684389
P 2.6544538195779452 8.227670208305454 3.3251448043550287 -0.7691863912389398 0.25245739073761037 -0.10223760321568842
Ni 7.628351578844311 0.9119713396992606 8.293402975689007 0.44911104424203946 -0.7496061551141671 0.5669984381798429
P 5.010564815443565 1.7679454558055303 12.22363671943304 0.35707017905369476 0.25871571294249635 0.5569230562217119
P 0.6454885257348344 2.4246056130684366 5.35054213116109 2.533366565967069 -3.118144182507204 -3.1215223549508178
P 8.95537452523609 6.042489810351088 7.676956983501756 -0.07911412982434761 0.31592507227395267 0.15189177590770617
Ni 8.613466974096038 2.90186142037307 9.346273157275553 -1.2411841102711656 -0.7809615294969969 0.8049206114157558
Ni 2.04358344498487 0.7178436137827049 1.9384736895605037 0.5299539838320357 -0.22592334900282382 0.9893648673381863
Ni 8.452456414139172 8.145973596666144 5.164414405946253 -3.0975987542556846 -2.9708783354072836 3.4768416127516764
Ni 1.4705853648251346 5.725094951128234 11.275411812989072 0.5787146981755066 1.0672579802712394 0.8954206144795418
Ni 8.767959976406237 0.6510187151178177 10.455306514491895 0.0593631724496655 -0.001791287572467883 0.37175632031095973
Ni 2.9232590349513186 -0.1297717114640547 9.090169298909197 2.10752117712119 0.22439431395280712 -1.5474474910856382
Ni 4.800769919303533 4.071433895195352 12.309827942661403 -0.3854695561319942 -0.19660120299993883 0.5195181332106924
Ni 4.355054270055746 2.3812077647838685 0.8249735339456334 0.5698135390311347 -3.6057060745262737 -0.9435074426844396
Ni 3.501476723866494 6.7915175733519035 9.814816019094641 0.5363796848527214 -0.4384944450684577 -0.15480586423070758
Ni 8.437001551270047 1.1983127716994795 4.083944268294091 0.420639676275224 0.07572130209271474 -0.947073305658827
Ni 5.960301832345813 2.646972071326365 9.315376411026214 -0.29765069944479705 -0.5833946201496791 0.31536174357131497
Ni 6.284724157708318 6.458139400639923 2.144141108226429 -0.43911742336443726 -1.0193243898147542 -0.5545411862530966
Ni 1.9888100017750372 6.064369520231794 3.245887409524877 -0.933216859391709 -0.3996347918887827 -0.6634621150262315
Ni 9.13208099571331 0.5457494974011 6.2339066772976786 0.5950157493283752 1.9010405102240098 2.3536752513485917
Ni 8.86505582453362 3.15104906536188 6.771705310633655 -1.13841634558362 1.3567048037490055 5.422243165589564
Ni 1.521650382631458 2.386195596951589 10.976116851054396 -2.2833200986637965 2.9271600685837265 -0.9455828371562296
Ni 5.482999669723635 8.257374695787563 -0.12862951643977383 2.4664294378248877 -0.49067755482991615 -0.011004835750935886
Ni 6.896771957367007 3.1313573264692454 12.055935232941891 0.30451631621637876 -2.125864712625384 -1.5087868412906467
Ni 4.841655309377223 6.503196769292562 12.071458701680982 0.4859312983941825 -0.576609993127678 -1.80525894704631
Ni 8.390229035868286 4.568854265631568 1.4384648381926384 0.9724693771344284 0.9681044152975135 0.05270170126908988
Ni 6.927653869914731 8.464935265621982 3.142340755408089 0.06473446406390786 0.8167268600220644 -0.13280647714148094
Ni 2.7620166984067334 4.142663476133258 9.994253744881545 1.0718057475429217 0.7545218472482297 0.5777911579199727
Ni 8.73665159493711 6.0168738618763475 3.548763783292993 -1.6185354081713996 1.046586825075133 -1.8289028117174955
Ni 7.322360127737246 5.1854912417270995 12.738897397379189 -0.39352045146092873 1.946664992931344 2.792035999052662
Ni 0.9848836186640084 0.851232894227883 8.560239944279468 -1.7892404601308667 -1.1983983825642068 0.07693846232926749
P 6.626900569690124 8.617323736515688 6.039772461636667 -1.1747303495233057 0.6437029301214333 -0.1539471157748381
Ni 3.714386697345474 3.4222832993745524 7.943441651678884 2.1502719378251545 -0.9563681006971918 -0.09758853447945129
P 8.642086747147621 8.79226870492624 1.4514498897430264 -0.2759567594111312 2.4549908569706425 0.48587679100716324
Ni 1.1796872051103537 7.662895561478001 1.2527988119405402 1.56804922649639 -0.14597978129864536 0.7849074015186225
P 4.976929397033734 5.6850439567703335 0.4432838492894354 2.21092683250305 -1.0561613561374457 1.0988568381234431
P 6.9155829452263085 7.4157846347151555 11.616932760780807 0.04628577044041706 0.06418373376676043 -0.11923568043558175
P 4.989102303420753 0.19727710619048597 1.8411961285883485 0.23804481485670617 0.36284307698172996 0.016304393586978376
Ni 4.140818534495012 2.5799979085389864 5.648479809398082 -0.9594318272241801 0.9630424273935736 1.2032600815318826
