# total energy = -340890.84509566217 ev
CRYSTAL
PRIMVEC
9.07402622563955 0.00000000000000 0.00000000000000

0.00000000000000 9.07402622563955 0.00000000000000

0.00000000000000 0.00000000000000 13.28075459785468

PRIMCOORD
 96 1
Ni 6.529578342552913 1.8365647068136361 11.20303291532943 -0.3950823966314099 0.11417832051733239 1.8209547605150123
Ni 4.787592208349276 0.24838240527643052 5.850411091706745 -0.6941759991703206 -0.2160407997817892 0.1439486098012295
Ni 2.848681562701506 1.8203312743662328 4.91666841286455 0.22474398398274195 -1.0103409553692213 -0.3688599725997712
Ni 3.4718765917988965 4.273966042752387 4.649711476442321 -0.6989595366018929 0.9589227487982454 0.6035919210331604
Ni 5.248688837647663 4.636809118925851 2.837074976092521 -0.31398697471097536 0.156052335043299 0.2544183711187231
Ni 7.396129673945954 6.283073353248181 2.790950794721142 -0.7788894774593167 0.408938842898528 -1.0006486677821218
Ni 5.225568219494513 4.35223859070728 11.696134541601118 -0.6883570784956984 -0.5294978701312235 -0.3778652614221751
Ni 5.471274694514522 7.934364597953887 12.569490485063644 -0.1702311976468423 0.15154493409124867 -0.6804262536843959
Ni 2.039214928640279 6.028819145771239 0.33504933464948616 -0.5902864621735061 1.127041013867143 0.3693993900430089
Ni 2.9315909379233767 1.565097072085311 0.3809675356315103 0.16322417020138985 0.9277373243343765 0.3320224920564475
Ni 0.45210699177706626 0.020030004910228463 4.493224454298697 0.46868999481523155 0.2864378614481132 0.38625528525808317
Ni 8.722189680093896 2.4916277150922914 1.3754880403723675 0.4489637200308978 -0.23129824016149197 0.07827595019376841
Ni 6.890624761585749 0.7444448862197728 4.7190234237589745 -0.5686177189508207 -0.018779594600348302 0.18216831540406045
Ni 0.819077842360997 7.3701870337183815 2.90770174977118 0.38496561991238215 -0.44063720244307336 -1.2567912206808034
Ni 7.667651752830055 3.8502362523687057 3.6335349013387064 -0.5758286348769631 -0.44070765066969264 0.5366326814037918
Ni 7.696271230716646 3.762018571958612 12.556169814950291 0.8299341027409577 -0.03049636881664425 0.3388423431917584
Ni 8.131434293813424 8.95215272006849 6.554596339534879 0.3972827467168384 -0.43666999026520925 1.5921718305762065
Ni 7.146421553476362 0.6964160667988074 0.5079784918376578 -1.101970186941444 -0.2230498841097707 -1.272742601803737
Ni 1.568245759094394 6.693246548843478 9.24696419398865 1.1307757983192266 -0.4824839632755304 0.7419175282206577
Ni -0.12048037972073862 5.03299016648655 1.4185442935657324 0.08679658607026987 -0.6839018709378222 -0.6003585016975274
Ni 6.440525851754244 1.8169557367080806 6.910985968443618 -0.8524618515298287 0.2330080237637471 0.35765587635383567
Ni 3.6917493149028857 4.393180595851319 0.7908213255129171 0.03372747415943223 -0.9717700370745586 -0.6831040576268752
Ni 6.041187043158501 5.841395139510132 4.753501092807133 -0.31382833764592405 -0.3071385843305742 0.4640203572537041
Ni 5.3644552608807405 2.6493796564551264 9.275424876420892 -0.27729039062089017 0.35540076177107177 -0.20001562799812647
P 9.257049066443678 5.578756532043586 12.458569591694689 -0.6817354594141227 -0.9967069095255544 0.7598702560443364
P 4.131295132539684 6.018429386043862 12.631059566026261 -1.0477438214977117 0.19611526450245578 0.19883652008836078
P 2.286609172489364 8.408019679184754 1.4773911667395179 0.8837269801916974 -0.4527195875289042 1.1837274108155935
P 6.445489343955882 7.69892992032374 5.930600073944976 -1.3166542155850227 0.553548226212208 -0.07718451690180254
P 4.786911656402068 1.0645919480305943 12.354328996239527 -0.43863174197727034 -0.11504863893742767 2.013379206429442
P 4.103056763743529 5.976843125056467 8.181475732192933 -0.4289767353860096 1.7311319860239087 0.1675341104306534
P 4.865538091369509 1.1353784245661986 3.5639833997366357 -0.9778254992400193 -0.6486952411297021 1.0133424611997066
P 0.03472538995694179 5.394435842661747 3.692979752823438 2.457622381056219 1.0073006258810007 0.5942305344229185
Ni 1.6961078589358496 1.2207377867980185 2.657519057743735 -0.594631369405763 -0.4124178025860639 -0.3341202551257407
Ni 1.9809506079333044 6.465361460814358 4.8613803726733655 -0.8899809315212092 0.04805597496696239 0.14576355152278123
Ni 5.947824390027513 5.4474644503882015 9.269222779675335 0.2681233794096414 1.3000862839240126 -0.33315840543310365
Ni 8.594890169862133 2.1967218713021195 10.239820522367934 1.5975945442536743 0.8623176612779858 -0.4234259807711095
Ni 2.24699197513589 5.281573107736757 7.2118879285899915 1.094393917256083 0.10780404155987242 0.19306773592538362
Ni 0.6846497773328776 0.015361418552380976 9.042586277618694 0.5745299706701976 -0.13870690178631595 0.39292446974814266
Ni 1.7126135121621364 1.1487172427314771 11.502062903919683 -1.2733401261784199 -0.7354370627026366 -1.0099254650983573
Ni 3.9271476964291825 6.6655889177089405 1.7332578286300446 -0.3843588395663187 1.744106543906706 0.13000268914409868
Ni 5.436185436116473 7.946986568068106 8.135405087574734 0.2172445902819033 -1.046172877466166 -0.3282946495828991
Ni 5.216775488336585 2.851267660100896 5.020895397280768 1.0250641205120086 -0.3887094032255306 -0.7106081765844149
Ni 1.035155807807354 7.324136351957301 7.052399218657881 -2.3875076265170043 0.40480399479454804 -1.1754042356618788
Ni 5.024097621043031 4.667824139666615 6.814700571550022 0.4975403433880205 -0.9000557992587079 -0.24010581115079296
Ni 7.954100604422922 7.513456829644628 8.857850905250356 -0.10768962746919518 -0.33275242824393664 -0.15099600356631415
Ni 4.621419570892987 0.39373106055074897 10.351059914048182 -0.5316316286447748 -1.5226024070175004 -0.3028695246415752
Ni 8.315074431248053 7.153417627493662 4.979100433696228 0.30771296877680554 -0.8634934267536418 -0.5280709078767098
Ni 7.2246124351975896 5.876130510895631 6.974427928364952 -0.8334886528614356 0.6510069199820144 0.594811346627053
Ni 2.196377058315534 5.125018937801009 2.72594084311344 -0.5377999622390157 -0.4210273986319458 -0.33588454611501506
Ni 2.1047293960915114 5.417193499776385 11.303608511698227 0.7242221678234237 -1.1754798260948205 -0.1921341683675207
Ni 0.9924352935746115 3.206933181737806 3.9533616500330413 0.17182399605525894 0.9280070330559953 0.27057364072234696
Ni 3.737854440819743 2.788457252386571 2.5867053591302427 0.3964198844959108 -0.7030306213474732 0.7209424686308874
Ni 0.7289927274077641 3.6074606877346733 8.391085731933025 0.6316051184166348 -0.35159295798920737 -0.10616933416992681
Ni 3.767199840783356 2.6726726811015684 7.178141626034432 0.2745197698542885 -0.13864879485487092 0.07096604679591649
Ni 4.082349836496478 6.8843455356195085 5.983802902969915 0.5053107313620588 0.24748796254747701 0.2414003615925004
Ni 0.8629099247741793 7.436645199869742 11.661976278266849 0.2062801208505996 1.1489123600189375 -0.23894007297746592
P 0.019026417638745602 5.720347633166719 8.144940074056418 -0.5967296466956885 -0.4510267732075135 -1.064745755372347
P 8.624979639954693 1.525625059147242 8.006435049163224 -0.3811015089712856 0.8341951920101569 0.4652143775618052
P 1.708884087491436 3.5178456073263122 10.395683251525318 0.14635824768398667 -0.8102584786889013 -0.08391823608121032
P 3.924906412016377 6.377461371312961 3.8331707317405157 0.541189704646855 -1.048288638257588 0.3541236948308611
P 7.023649982200023 3.958398641844978 10.394487294903426 -0.3984533699861718 -0.7650957661093339 0.6666626242414002
P 6.270115644173339 7.816238927970488 10.224215012517154 0.18900950669560998 -0.6408742024233866 0.8014069418355424
P 2.103014405184547 8.695911300905701 5.735267146654713 1.5738087546879864 0.45540433344991893 0.18659755482000767
P 6.822215679852391 3.92210253799388 1.5638085603985972 1.0421285321934635 0.0872357304902175 -0.9350271731275703
Ni 5.509757638622649 2.77775897577646 0.25131059345461787 -0.5317745819805423 -0.34339191023565374 0.20714169751994646
Ni 1.5726920318161535 1.500635191645761 7.131433077391051 0.22188568859834046 -0.6710795223621733 -0.20870364269042765
Ni 6.862676761620404 0.8002964234232461 9.029837271140995 0.16139483030213492 -1.268009972214758 0.250353199910414
Ni 2.7931848199131766 1.8781963379308457 9.400144641071439 -0.4361557696329521 -1.005410093726507 -0.9629658085193673
Ni 6.591844308709472 1.8791309626050114 2.5218160920678456 -0.5780680657304432 0.4312477908083734 -0.18108330986999782
Ni 4.146412459793666 6.612732716475779 10.56590199715841 0.18595503614000233 1.1640327606001437 -0.8735240715167666
Ni 8.172494261294979 7.281561022139963 0.05984229382190165 -0.22520678255177345 0.027308458006965877 0.6972034731427348
Ni 7.3286279948088735 3.6918763512663646 8.232739441869628 0.8276895296811552 -0.2309807089210732 -0.3070491099405615
Ni 2.911246971714836 8.54772338290763 12.711434565796731 1.0296303997264526 -1.6491708736690693 -1.2061255760051357
Ni -0.31561821545280083 5.448008891945968 10.238146364577801 -0.23326924784493372 -1.0907874308517471 0.550225332486562
Ni 8.552015397188022 2.1628757544609707 5.882045868420764 1.1185599729793252 1.4754401475094008 -0.4810855402661069
Ni 3.5786506553028645 2.7868874458950113 11.498689181066723 0.078551058232026 -0.29415837002082246 0.29327622452618524
Ni 1.378825467121476 3.156962520760807 12.712457208522734 -1.2076756941010751 1.2979391556740227 -0.2814103263265347
Ni 2.9571524690605124 8.212265717089819 7.739040744689588 1.2640815836946295 1.13398530639546 1.1815568855268361
Ni 5.833954438220656 8.144482743147893 3.478853610361674 -1.3272373904175079 -0.8943788034785887 -0.1356390614942696
Ni 3.173858357103493 8.541199158240396 3.6454745047005246 0.16943004190178562 -0.21373426313579963 0.388374388483615
Ni 3.672194788953107 4.189296306493738 9.28079034797268 -1.1716576241352532 0.8318891695847996 0.6964167155753813
Ni 6.823177526604446 5.9140690134459915 11.685934429016365 1.0611253850109403 1.8400156338012053 -0.537338706331881
Ni 0.6288309066228702 9.195345689896811 0.402715253656492 -0.32474627011000845 -0.17813939675032545 0.3460308905203976
Ni 4.554616591755041 0.16666626446866462 1.4454769100258436 0.6516646081706712 -0.06770331688424468 0.07818544736249115
Ni 5.833800179779289 5.781651752571224 0.722876833908854 1.42714300306591 -0.6074444620100313 -0.7721107639745864
Ni 8.103413701640376 8.791887273513966 11.116947631020588 -0.6014229384062997 0.10070316884903302 -0.09015804634333505
Ni 0.06146110005366062 4.9501715315243064 6.0476441200336115 0.7430020195340882 -1.4722239545649485 -1.0597961246765555
Ni 8.01486028226966 8.803266102071287 2.5256271829722112 0.5850308702015214 0.33785221136434723 0.19738204703002135
P 8.490103318044012 1.674520751170409 3.7050518369643135 0.5588853221544051 0.5829863289676669 -1.9462703285960867
P 1.870056936642237 3.1342865298798337 1.5644727790990722 -0.5477465319287663 0.966803951318535 0.4055994941126499
P 4.584334026783126 0.8496772727126651 8.162059131437788 -0.08108230929431197 1.0830959757447605 -1.023347137820902
P 8.584818001043452 1.424776334596966 12.395818165149121 0.5433931400560771 1.7122976269262251 -0.6288892621473685
P 6.42343946086634 7.805876390321 1.287497210611343 -0.2608139902324218 0.11887212644857592 1.1542833945228637
P 1.9473313417412248 3.503517720331091 6.152575248864539 -0.4519012053926669 -1.283149141849042 -0.9646817627692097
P 7.047541892560008 3.813631631634873 5.889124516074324 -1.0156775370907865 0.8799369170216459 0.30753067756267033
P 2.391441394437298 8.31918496500919 10.315666675780381 0.6999280711627494 1.3402286604708533 0.550759093502845
