# total energy = -340866.5078321751 ev
CRYSTAL
PRIMVEC
9.27897051842013 0.00000000000000 0.00000000000000
0.00000000000000 9.27897051842013 0.00000000000000
0.00000000000000 0.00000000000000 13.58071128642446
PRIMCOORD
 96 1
Ni 2.009871399655184 4.067102664612832 3.589286719507484 -0.10554275632952147 -0.3448674663399158 -0.4511753829702359
Ni 3.6460044265336022 7.447709977631337 2.1114343709851435 -0.15518870149142305 -0.05680158237007637 -0.34405756884411065
Ni 2.5991231406754878 2.1440917075705705 5.214816666824553 -0.5747480002182748 0.6203560278653767 -0.5757535586646536
Ni 0.05903281015953594 9.098420267125384 8.039739842411741 -1.5542424025202848 -0.3026520093141304 -1.1413065226472217
Ni 1.2962536173635415 6.336330568004135 1.6144072454091412 0.8262399417188221 -0.13188113711373417 -0.2385911742784794
Ni 4.36597830360036 1.0807216911790556 13.514871530622441 -0.10233273403265603 -2.5241643306425106 -0.12705183404589088
Ni 7.770395454856741 2.652495778845505 2.7287726277350757 -0.04857353803332925 -0.34266557359259053 -2.866630900850418
Ni 6.970019298627396 0.3784984846302469 8.914813566755877 0.21482415376586872 -0.8075487930672222 -1.2722980580671506
Ni 5.3864052446353305 3.2247484459563034 8.836384924613242 -0.5832048727363763 -0.17675151526386335 -0.9253904213687547
Ni 4.142011793254444 6.816684311534292 6.066843284303826 -0.7270413824397737 0.6574123092877259 -0.7734739628707001
Ni 2.2539083231377046 6.448429810308026 3.91106842500866 0.013136280271641891 0.5560483669262424 0.871989380039795
Ni 5.409491323176186 8.80419339234564 10.610541709404592 1.3638694398182447 1.4596363477079248 0.7653999276133141
Ni 3.2139013294714722 6.392987961722168 8.257697291478294 -1.4866660981322075 -0.12071560741521789 0.5329693736195918
Ni 1.2817134706298112 4.835178724620023 8.254695544529755 -1.2989418859069242 -1.1216622660537328 0.17699242763007583
Ni 6.551389266694415 1.145925016704214 12.927845814619 1.1952099575338966 0.8075958442550736 -0.558309137935961
Ni 6.922390343181169 4.9349183782517185 10.720953106979149 3.4566836497465627 -0.4329280067242738 -2.7248595012061654
Ni 6.956759649819164 7.894316105545298 12.760340911714101 0.6044349857597462 -0.20711624359864975 -0.4028214171468804
Ni 3.261984954470956 2.3084408326170496 1.9178138056794263 0.0580627084706871 0.23841505371193136 0.4604395818809812
Ni 6.998468622102584 2.244527283987863 10.220884334881566 -1.1045343481241945 0.05992418715945808 -0.05524580784718227
Ni 7.3681892006638385 2.0396476159082417 4.71241144996146 -0.36950069150756365 -1.0039389084976194 3.2847562953442204
Ni 3.31372449383744 0.5121082362884031 6.664231754533324 0.562356054311825 0.6788473392330502 1.4848051336640686
Ni 1.6815071924993121 3.709658163989499 10.844211239175818 0.015820254861708235 -2.0232288455300123 -0.6525626945049084
Ni 6.225780913769506 4.4529593728294525 2.2148781896303085 0.052257157532503554 -0.2651036187467112 0.6934113530901542
Ni 8.13419605025519 5.7788593008594065 8.51295991344101 -0.19936565311895343 0.2534125555620281 -0.16989181202955256
P 3.6464683750573332 5.191751002018741 0.9395477227899885 -0.28488851468312226 -0.04633487851079762 0.6124637696014936
P 6.1170406587774275 3.552927073702683 11.97348792705447 -0.7285979282936161 -1.748313382899202 1.6437869836493366
P 0.19576215169125957 5.104445168823036 4.957082127127397 0.6128913440572155 0.6872561321220357 -0.12902978370786808
P 4.854961489671913 8.143261604408893 12.617023501145399 -0.5687218486288528 0.5839767179053942 0.523352162244802
P 5.715344747960629 5.437588045773338 5.582066255548417 1.3962270302133437 -0.29618697041507697 -1.325256098321421
P 5.154727909825005 8.054146371970637 3.6278556881822914 -1.290429991781171 -0.8865839900245183 0.12052843110507629
P 0.8879752048920475 8.133156805562033 0.42065470329054294 2.9446363709916192 3.8694999733226267 2.021389221218113
P 5.825022178970645 1.288617024662929 1.6705904837359211 0.7038549170209814 2.024171669059256 0.15197379409855116
Ni 7.681484359768927 7.443385977390164 10.567504916446255 0.08465742824008 0.20518277402136278 -1.3058756369122801
Ni 4.724888881558683 8.224155669006636 8.403662920220455 1.1747992550880284 -1.0566542366134641 -1.0501483171741464
Ni 4.638362481882846 2.068393866438616 11.330346709208714 -0.38638666862962484 0.5903576817310736 -0.54037183673125
Ni 2.370665608619855 2.1961931267855648 13.114987802739336 -0.8357735922408703 -0.28347800748884083 -0.17424906055698378
Ni 8.440411354888141 2.127306049981982 7.239008301613219 -1.2664493125958576 -0.727913757742398 0.9730103372395631
Ni 3.7964443748386247 4.709448674688914 10.17283504207284 -0.6574727302120161 -0.8266376913778731 -0.6143571299694646
Ni 1.3752269350730373 6.8109777446924 6.426569483766867 -0.8065658603286626 0.04502464433980633 0.5850527245783924
Ni 3.5062631311858166 7.588128637823769 10.61299970868332 -0.6464203290525964 -1.797716358812362 -1.3336726045198903
Ni 4.651575735838706 3.4572516091388708 6.11501413162577 0.3202041592652808 -0.9855056414930964 -0.4606938639836324
Ni 1.0030381503655321 2.012729322561367 2.5622457283182034 -0.4118027947098843 -0.585771605022288 0.10098856129993576
Ni 3.2020706421163307 6.77246073825225 12.882879923698988 -0.2704813381188568 -1.1754507726290984 2.143722052521779
Ni 0.5936666751721279 4.668509856954889 12.785628889948585 0.19611655005403644 0.939311402325221 -0.01975250003657889
Ni 5.391267425164032 5.750493488118492 11.981202463107069 -1.9772626632125434 1.253031753638371 2.0260424037194076
Ni 5.615521583594661 6.259157370566715 0.9237762566742761 0.06999314135968591 -0.07193766668056643 -0.7385013034502572
Ni 3.3131770345794376 4.202686981187988 12.593950413163208 0.5539932841694265 1.0388393199192303 0.13162762634203137
Ni 0.7502029070789765 8.324860335567692 10.598659059814793 0.05395768516337803 -0.6114165592839018 -0.5069616367019205
Ni 0.07190274220783464 5.3697680505743355 10.4710954853179 0.3679462025362502 0.8375052302199965 0.22927169664976643
Ni 7.573477143444344 3.695498455045228 0.14211949548043074 -1.1167550585601025 0.8820778746240485 1.2554886998192958
Ni 1.2277376993789433 8.52079507610978 3.151227451297695 -0.12173067894329356 1.2487158998718364 -1.545285450437313
Ni 9.199793019560612 6.840781797856881 3.737587865118107 -0.7023271675225452 -0.7522569624734528 0.29952400520810996
Ni 6.974510320337112 6.70984624548951 3.1394255287510253 -1.3620794377973573 -0.4110096093846276 0.2100406163342963
Ni 7.830031398097128 -0.07001818330443921 5.943638970135909 -1.201817435548085 1.6093442285904347 0.891756021143761
Ni 5.104064731033577 5.293921745914788 7.587217442923162 -0.29465922091664093 -0.1556486718469771 2.1401677595116175
Ni 8.415571550927583 3.240801064877397 11.573427898732346 1.765061034671186 -0.33703048679400016 0.2315124130548271
P 7.886252680202854 6.027071761055507 0.002678838776022953 -1.5644178003913896 -1.8106148120415848 0.9625893990165552
P 8.545801901538882 3.4388699686286475 9.013748733647423 -0.05091709856484134 1.0474100923073766 0.6957639124827307
P 0.20210340011361527 2.7246768901675784 13.607329048225656 0.3365383776489301 -2.1572249721042205 0.25575097388721757
P 5.411402791093958 5.9234256608539955 9.76592991723159 -0.5565049948476868 2.1887274135878756 -1.6984833467509521
P 8.878889104666337 0.7294625522741047 3.5576027469248444 0.3997579477302083 0.028160521594616017 0.42515761875023544
P 2.1614341033876365 5.846122557829932 11.248047808481113 -0.5998710205381476 -0.554867973464896 0.07714286503058972
P 3.1022196408389395 3.960310993420424 7.7212725851641 2.0618151904436424 -0.20342516790030774 0.4886471546634488
P 3.9826269174118862 2.9474185764108447 3.8043101581099608 0.10755207345006638 1.6058279879070603 -0.17279741571212176
Ni 2.688145583408997 8.943851176959154 12.289660494903737 0.18188112318094485 1.1234607527150524 0.6728692672727444
Ni 6.045267822156238 8.602849012016849 1.2173897915056466 -0.8176665982275143 -0.9382096846206099 0.13431262937336222
Ni 7.340491473797097 4.344618113567783 4.498719543622092 0.10619221698806229 1.2820312261945146 0.1419151243109685
Ni 7.119178749006921 4.311009682508708 7.047764080646052 0.5609056950185437 -1.626937773302482 -0.8887419169077856
Ni 1.5213057672549883 3.938811618830728 1.2377896080940998 1.2889667769720834 0.28357031009233097 0.2391133653305366
Ni 6.8673382113552455 9.249398395717934 3.4420173954136386 0.38217931541649663 0.4228161151012525 0.03221360861806711
Ni 0.5878534001697782 0.608017530908176 12.306962991147763 -1.7380086585390842 0.9752960479499462 1.0799851980299207
Ni 2.0692846476041797 8.572534615476263 8.656453624448732 1.2813979634858899 -1.0164149294774432 -0.44276581875030196
Ni 7.977724771141663 7.011125137829965 5.773391203558713 -0.5367499237079466 -2.121950979393274 0.8140110037527981
Ni 4.993088244157115 3.085109219283739 0.6630251236758214 1.3670288113828328 2.1084323760815495 -0.7152449040254778
Ni 0.23042189010510972 1.4675619702659861 9.801782931248477 -1.7702965720385124 0.06363326057992912 1.3298974537481743
Ni 2.04910288682188 2.203356491991972 8.777688941081934 1.5693892854640519 0.6674964329966052 -1.029447080071053
Ni 0.26631202000389453 3.040310349832271 5.462013079753682 0.23499240118362755 0.653239665967275 -1.2383181015772804
Ni 5.548211931771764 8.850170691047385 5.884046638056754 -0.14590033421096163 -1.3242158299823645 0.4781056317021766
Ni 0.6502795298318829 9.028029997104912 5.51504517970728 1.137590250137899 0.2669928653496241 -0.6137464929686591
Ni 4.490223718255529 5.770183463465637 3.5965391628304473 1.1809897001694565 -0.49690039581117645 0.7038849989279684
Ni 3.177472091388112 0.329356129099609 3.5030219867990313 0.8040302383910024 -0.3351718363187066 0.8819050964916102
Ni 4.982148337967537 1.3232461424742128 4.654300041570054 0.7582491755011458 0.9598257202284889 0.3055414150467835
Ni 0.17227522162590006 6.959756757282466 12.617716640239854 0.08389972413844905 -0.3404346273795427 -3.0688903305773985
Ni 2.347755830518017 4.7221423062981955 5.814825518316084 -0.07773087632357581 -0.08149060047632417 0.44285683580221147
Ni 2.7223942634308216 0.19429143487103223 1.2074650046859925 -2.192380951180063 -1.5360672742731547 -0.713653648278958
Ni 8.387604733917076 7.581577684668687 1.4398410459730573 -0.3768147086704737 -1.3229457050206892 0.7551805638781511
Ni 8.755144754416797 4.747204805550145 2.416103799137024 0.06938558968267405 0.5766971535248455 -0.13538735049477973
Ni 8.258246606530392 0.5200334049707764 1.148314351601429 0.5556531883703527 2.010875209060666 0.17032427158128086
P 6.221957977933963 1.556528739176648 6.819527388087716 0.07390198949578886 0.3900121811973541 -0.19153124467619917
P 7.842214686330304 0.46607804745495296 11.229170670947545 0.2997271223578515 -1.243058187365427 -0.5797511098598209
P 1.2179576644986934 1.5171302305414092 6.810482247669055 -0.576114284438182 -0.4749017800528982 0.44716137671483636
P 0.798097241080778 6.811757178212268 8.838734359937416 -0.19115586361465145 0.9410319845607535 -0.10757547048883409
P 7.040381731736444 7.580955993646888 8.138688927759 -0.05886566398795668 0.9371933275409537 -0.7483350017112274
P 2.683812304197349 8.29712549281905 5.442646940476101 -0.10273665433929402 -1.4724833788739222 -2.3125913368240885
P 3.592845204684501 0.6179831451979185 8.93252248190669 2.2456760630587778 1.290011930407146 1.4027388631899327
P 2.4528587290840442 1.4366258827036011 10.96886864012006 -1.0982950520827022 0.7065028961667897 0.18130519607281675
