# total energy = -340885.6616327557 ev
CRYSTAL
PRIMVEC
9.13177401918044 0.00000000000000 0.00000000000000
0.00000000000000 9.13177401918044 0.00000000000000
0.00000000000000 0.00000000000000 13.36527433093798
PRIMCOORD
 96 1
Ni 7.002700901997666 2.309370857286037 11.388323036851988 -0.13466538472709066 0.3189525462463668 0.3889145772578012
Ni 4.922071851967466 0.579696885662104 5.882644986767382 -0.1870197299590908 -1.286480777325436 1.2487274698360624
Ni 2.8243481209846175 1.7924485257226521 4.715348578212178 1.074053663036834 0.8896263763952679 1.1754029501102983
Ni 3.4235294728586174 4.42105707073502 4.48705696741519 0.7749040104490074 0.7759939010790765 0.045812430348424325
Ni 3.9072760694321644 2.6793720767515667 2.6804989376647916 1.358353652206338 1.6754100098712565 -0.2338454320633779
Ni 5.835842818595094 4.798674189727531 2.646431028353867 -1.611331948444425 -0.7456003763888837 0.7417892301729095
Ni 5.5338367884316115 3.145046892553055 0.540139866991864 0.9554229631751029 -0.044326075610884946 -0.5634986525567004
Ni 5.759683823325275 8.383516450528756 12.238795285552543 1.3602652674067541 -0.27797507539274063 0.3785915980652383
Ni 2.325808050509739 6.530268573426433 0.2500024035132953 -1.5872183432256728 0.17132777314513073 -0.8753878641983828
Ni 0.550140072713684 9.587723489645184 0.7307437332591086 0.5194394574539569 -0.26289735512401174 -0.8986154672677557
Ni 7.855042424838714 8.982168159509992 6.821342043741352 0.8241542628343871 -0.34408970763362673 0.6977392910415467
Ni 8.965539199032014 2.609020889754123 1.4046366942218402 0.04222368455590148 0.5641663680476864 -0.028131468128893486
Ni 7.111195509048111 0.7891140327512766 4.655673348213528 -0.3945764035292688 0.11703944411521133 0.11014914475328126
Ni 1.1183683633926507 7.61547033360326 2.1011819338016355 -0.623219465456101 -0.8695607159936444 0.8359044613917798
Ni 7.6441623675526325 3.694752292823712 3.954410634178531 -0.041699179510999156 0.9407185670853928 0.14579954696703923
Ni 8.043567899340562 4.458570398381113 12.569318932781746 0.23934733571821362 -1.7133641205175267 0.11173988627916885
Ni 8.518995449788113 7.326723639306896 9.007392858866565 -0.9088245465902735 1.2503179542516338 1.232436703095839
Ni 7.19081544666892 0.946992360487532 0.38672515039324507 -0.4280583373367983 -0.7393623658989719 -0.43632443400033244
Ni 1.997274216838004 6.978949157789416 8.978924553380516 0.18374748696572224 -0.3663739729531239 -0.11209778383921984
Ni 0.39193026158075067 5.293662000111287 0.9692300565643981 -0.7734567364795196 0.27071068052084346 0.9280666826493371
Ni 6.847104604587301 2.0302399210255397 6.7738549925180775 -0.8440353180290303 -0.18022841806887027 -0.12621339730499553
Ni 3.755113319050751 4.700005371515254 0.860201240734182 0.35676935998382425 0.37143158998168935 0.3533189395413786
Ni 6.06065796302527 5.746004425853551 4.945926785222064 0.4990112715065922 0.35295872798848243 -2.5981696784853834
Ni 5.874442827348754 3.08319738716187 8.901660613455103 -0.5551217413469149 0.6795441081897587 0.876290064297678
P 0.3651832954961824 6.149455333529314 12.21884144615637 0.20886202264516285 -0.22614523520564278 1.0035226468958074
P 4.038563584419476 5.982234287800186 12.380707619604175 1.2654887484548014 0.35045164529591255 0.4430085308887274
P 2.555901360319526 8.765087627668969 1.1212101714655482 -0.0041610733562250915 0.2560898452838751 -0.08801143231397746
P 6.410359248859529 7.737909159571812 5.653230167766774 0.9324846092113748 0.7273766542920054 1.9237996582973964
P 5.274686173711925 1.3778111948807585 12.592440584583086 -0.19096251665692274 0.1605365960668977 0.6579887506164862
P 4.172398864356462 6.582228367561358 8.277461853494628 -0.33632831852065304 -1.157071498790962 -0.5594620205934816
P 4.871016103459846 0.9798393516128964 3.8041043734539937 0.8628380525578302 0.8051931483508521 -2.117621755890301
P 0.13500871289767816 5.796603585660513 3.7430520719341587 0.020101398735565382 0.2941807386183256 -1.2358141042085038
Ni 1.07281907461497 0.2591250457524498 4.337326008453482 -1.4512039006698556 -0.09540746766773246 0.4077263106476655
Ni 1.765865931570321 6.967223959956509 4.5070509866170205 1.1153437800348727 -0.5091794702888457 0.49893799506649555
Ni 6.463597491356297 5.481393010273989 9.035687660646365 -1.3908359411047597 1.2892889361981925 0.3827303028239602
Ni 8.941951826756002 2.4050261900739693 9.81728806973961 0.4496093240346966 1.2415098690417006 1.9856850829482835
Ni 2.3433410566150212 5.72614281737491 6.6522444184525185 -0.4644458748268969 -0.6728821227885509 1.1373323684908219
Ni 0.6775913294380645 0.25786394776123134 9.185498979219389 1.0029598324138016 -0.5183346544255525 -0.4673584204880015
Ni 1.8266561511759782 1.4702064843459897 11.59508375088073 -1.597823629545345 0.11669028830590872 0.09812949458458584
Ni 4.344395827894476 7.53659920145153 0.7448185365456039 0.6952052117657834 -2.146544609572239 0.6735017586504207
Ni 5.815999473664482 8.232970024147674 7.901349650859488 0.0859524929024197 -0.15511773904417156 0.3365913423740526
Ni 5.19386997369539 2.8621262700770926 4.860255220962729 1.0103437835826985 0.6578077449539316 -0.09071880394281151
Ni 1.0011163850635771 8.11992779363867 6.769471740991757 0.11160773157667876 -1.564782897040292 0.17952033625825212
Ni 5.1045703556206234 5.098296826873577 6.868174346767883 -0.8578066607815099 -0.24624560549994365 1.8507769860827674
Ni 1.2160783453335453 7.872602826266036 11.206408053558274 -0.590484437116925 0.22601539449599786 0.83636468885765
Ni 5.0482181781853654 1.0194712508300443 10.423416875282825 0.3691440794990933 -2.2736818042430844 -1.285108836678574
Ni 8.615518301107295 7.780253195670871 4.785182906800477 -1.592835175191818 -1.3832648136257208 0.27620049999082114
Ni 7.3846464818724185 6.333159231352209 7.147254145093907 0.5368034026537013 -0.2943468318825447 -2.057328615427199
Ni 2.043837132531146 5.2700746278352755 2.716665328643942 0.5931504139848623 0.6496642899111909 -0.9031277533158123
Ni 2.366006119715703 5.659371285790628 11.089649191025911 1.6192959404865082 -0.18952604132071232 0.34160627909014074
Ni 1.0142022172244465 3.3052547358400695 3.599121615825615 0.48604802647770484 0.32705820607263675 0.6427179405003447
Ni 2.0930756580101466 1.2704489278079458 2.594200020530751 -0.6642558145721205 -0.3736499377892468 -2.3832246828709343
Ni 1.4323552810614093 3.4571983236451667 8.437832242359079 0.2590556127804184 1.0631028204522852 -2.209898391238536
Ni 3.857279606710071 3.12269230976882 7.000890984388255 -0.8280859937886255 -0.349784701135875 0.1299839200910213
Ni 4.13563434217945 6.992199361882523 5.792924393910608 0.27998156429980814 1.4028255093664679 -0.5661193780089993
Ni 8.368960402751767 7.6457604280049365 0.17688246263505872 -0.4655987574844174 -0.24347421340239359 -0.12542021197973885
P 0.29974408974042116 5.8424907500766805 7.84436007559811 1.1517858249119906 -0.7965879231803442 -0.6705321344991355
P 8.979337309565912 1.6872048302208942 7.785459220035778 -0.7122354277751927 -0.2375629901242812 -0.3581873233772735
P 1.9609114927175704 3.392746262660229 10.470208998503699 0.7958173635629069 0.9743498819865929 0.8925373793944757
P 3.973527089897696 6.258178234930089 3.369652919358329 0.3599436439467478 -0.39120465884355854 0.0036360540906905125
P 7.507130966711037 4.217400246693353 10.27952659897994 0.3762845471986165 -1.1022764053279532 0.572663349775104
P 6.538651541970522 8.191493506579866 10.010149310542909 1.1728069072483478 0.08490245437135055 0.9254454429764062
P 2.8338908248283783 8.808427027135464 5.50562417261793 -1.163289968896848 -0.3209492649614214 2.0890817394690795
P 7.581390552986117 4.285294986481255 1.4818084032297194 -0.8693671119255996 0.04298935907733241 0.064072919220509
Ni 3.240273031962368 2.2711361194929043 0.1429378322733117 -0.07228425138670776 -0.34994488086282316 -0.16375638855577604
Ni 1.8612016522677919 1.1184231540367295 6.842886638170619 0.3015304941151775 1.6032908233075034 1.063670262919981
Ni 7.170908179320215 1.1095835967919834 9.179297591487048 -0.5192144859273445 -1.514481834792895 -1.3495172848616306
Ni 2.84352484641227 1.682355858219902 9.360556913406617 0.8744293569398554 0.476814680804895 -1.5845767918377678
Ni 6.413464052024005 1.966883672922182 2.4339766532279143 0.791814670161417 0.11888498196438237 1.3775451375331242
Ni 4.613764897734898 7.2368487194692985 10.440925225598274 -0.9547264513287105 -0.5194196599596151 -0.5093080254469099
Ni 7.332294021454928 6.34596197851867 11.473940723644647 0.876366168951252 2.695140633985494 -1.1552169620807267
Ni 7.991690291171756 3.7834309502655836 7.824913962837069 1.2271862533301767 1.4921152941722367 0.22530062781716034
Ni 3.4123521814665 9.034748914277813 12.54055658417247 -0.2163516461539887 0.14365396137894615 -1.4748413375831375
Ni 0.3705792607605632 5.2711065182987635 10.176066338942954 -1.6321756246626533 -1.048410251437117 -1.2437927515386062
Ni 9.200262318266478 2.360746217884119 5.753002104279841 -0.08229329888327762 0.10235613107142372 -0.7229080769976906
Ni 4.11537093564423 2.796642318628667 11.282790777291414 -1.0357570814494808 2.0184458223190727 0.3025216543838532
Ni 1.4429116118206315 3.9376026909298947 12.68458109755335 0.2759120222161248 -0.8825352738764414 -0.3805628628589962
Ni 3.438743008364555 8.627672692318821 7.900306802267185 -0.09284356359529816 0.6990209859674478 -0.28459206648862595
Ni 5.935296969372504 8.001881350970452 3.662753643504171 -0.7661373199999709 0.2810107768952709 -1.5428177056231107
Ni 3.453025102921149 8.410939167890298 3.525064754933628 0.1847872410841463 -0.10141150776996727 -1.528312055807768
Ni 3.9303064034933732 4.479500424419293 9.215797292217678 -0.7314824489302627 0.6881974129893826 0.19919518897936017
Ni 5.6823285656597315 4.841538736945341 11.399389833778548 -1.5960940484487478 -1.3287180887280923 0.25485751553867075
Ni 8.28429972587569 8.813358185102574 2.631395562441186 -0.8563372753248348 1.7119525848819805 -0.4385211845413351
Ni 4.515680513059464 0.6561955829252126 1.4393867470515485 0.811621420474699 -0.04785748580291113 0.41930038863851016
Ni 6.25181338844291 5.634021481130074 0.455758622400589 -0.8651260772610584 1.301512474847578 -1.270355075408167
Ni 8.267332889759222 0.07197481641698533 11.049686721589486 -0.14158448044442712 -0.2215018228963605 1.198906432548877
Ni 9.296967805065924 4.875472409178272 5.6286246026882925 -0.6271643090364619 0.19036344962034313 1.3535893980484752
Ni 7.625570075661822 6.499110960493505 2.489201969749948 0.7493762984915482 -1.391590559882597 0.330739768689282
P 8.586890189576016 1.8153966738177427 3.5342595381874866 0.5667909501547271 -1.5386702591136403 -0.8019885253706253
P 2.1041068410180532 3.328960821178253 1.5923521803687197 -1.2224885907441914 0.7602055278965681 -0.19815569197125227
P 4.908812516100347 1.484287679874294 7.926048360032903 -0.13035364472561423 -1.4822517711145955 0.810737732318165
P 8.87826683478817 1.861210784041805 12.538070915286088 0.2569676199031381 0.09393885354200596 -0.31408287685889136
P 6.36121204112066 7.7705552516688865 1.3360598109151545 1.175779616723427 1.313963299016421 -0.9401935478198582
P 2.051124288193654 3.6383453247443747 5.875040045369215 -0.9578937933130987 -0.9794404091356229 0.24952067670678962
P 6.785574711286577 4.078387250890901 5.951783474175877 1.2110533523240563 -0.964025103021817 0.8385069320116333
P 2.7475590333078905 8.864751809248682 10.122230878425727 0.5170334191156257 -0.2905601111466028 0.6450812985261988
