# total energy = -340865.2561256605 ev
CRYSTAL
PRIMVEC
9.30568241303352 0.00000000000000 0.00000000000000

0.00000000000000 9.30568241303352 0.00000000000000

0.00000000000000 0.00000000000000 13.61980684426771

PRIMCOORD
 96 1
Ni 6.608616386026007 1.0643746337035762 2.16651637894761 1.263826787371346 1.0010217348508244 0.22064898797776192
Ni 0.9425074185418592 4.251589426565397 3.869863825390669 0.9082313930909649 0.6566062684466627 -1.159618433582532
Ni 3.552137123540405 3.9372993131817817 6.271471516958429 -0.883624393175562 -0.2979983125922029 0.40094425472882567
Ni 6.464936651595883 9.370915114538843 10.313503492516553 0.7605407997487998 0.2877779204157753 -0.3975478274527669
Ni 8.772848219973449 2.374140109176737 3.6364205491026156 -0.8849647092535404 0.5124941364843755 0.5705193068489078
Ni 3.9799193380321682 0.6918225741221906 9.819771907694072 0.9184900947044955 -1.6479215746430005 -1.2766069698551499
Ni 4.90178675327312 0.26159296519032865 12.068251805611053 0.14135539515275655 0.33217881512865366 0.4695816533915655
Ni 0.22086199384313598 0.11163654806116789 3.915217859695432 -0.04660304457051974 -0.08062722403476437 -0.07135711158674808
Ni 3.8868997379438572 3.9570366653013602 0.4575427169970082 -0.22982988314608158 -0.6210628241244143 0.15866277608295257
Ni 2.6012918136741034 1.198599794935449 6.702265980804793 0.6542706783349507 0.38367029813972636 0.05504526180060198
Ni 0.08572022290651136 1.1532438994942296 6.319481392986402 0.22333219123687986 0.10351415593526687 0.4279372383779017
Ni 8.669629592104346 8.012611200284105 6.259867331153094 0.6613589526402996 0.38041425309627386 -0.6778806044444068
Ni 4.103033514619639 8.217792188914276 0.2698257023049874 -1.1031991742525387 0.7025973904647964 -0.3902695486237988
Ni 1.3761336015065577 7.186722592097061 12.879215960554639 0.9790575718749074 0.6995475478948792 -1.3242955341803644
Ni 3.208803975755467 5.683287256976247 10.940559448526034 -0.23168750518011066 -0.1579040435400571 0.7102147978007382
Ni 3.0770355146459747 3.200307887832235 9.081128723739514 2.001290650696024 -0.814322621455946 1.4212533770543523
Ni 7.072988543249587 1.165071421674326 7.59042728425304 -0.07825563847879427 -0.3806975886646476 0.4369507547304217
Ni 2.877949747910347 1.6005866581422183 11.454203332294991 -0.09297520407715601 2.478116387244513 -1.1830774359364205
Ni 3.1011465374379727 3.169245520375774 3.995520314377512 0.7957404875783843 -1.8109395423708552 0.6406019225986064
Ni 6.857338662052457 8.87472682959398 0.3463826198686656 -0.14396223664798433 -1.6261353320058445 0.053070140352102155
Ni 4.95482914227906 7.563453833591177 11.018559677411613 -0.030662719191179452 -0.7467871976081332 -0.29226835208696117
Ni 9.185089945054699 1.2619714912741247 1.581831986071592 0.6198207241871971 -0.5240751564537555 0.7091711870275722
Ni 1.1534393188221463 1.7035447269074322 13.143032053242074 -0.18314302061250395 1.4148770412143634 0.4865923290169491
Ni 7.602984371924025 2.235950727292841 0.18930828636219904 0.35044341776579646 -1.4811580238297846 0.06564874834806113
P 5.514742739489303 9.640407673418144 3.8454029089448767 1.1961280984727916 -1.8934614123251712 1.7112090218477367
P 1.2417502436758951 2.496342328900597 5.055195578528808 0.5171390914555546 -0.05465445412008652 0.6958392458053565
P 0.29523207607060437 3.56662607085308 1.653457822594174 -1.0172651932928802 0.3631220416747295 -0.21123463664239747
P 5.376264881454674 3.532464911196799 3.6093717224142705 -0.5648808776162078 0.9936442114398305 0.014018168655962953
P 2.348279618115771 9.333227101297782 12.515199072762067 0.006359109448808402 -3.474746935006177 2.0900726426274394
P 4.06669482530943 3.4775613857345102 11.156869102596943 1.173037278091599 0.27996279524673073 -0.23626741124130926
P 5.2137783631331445 6.125781755155447 5.733148963778286 -0.9838375097620539 0.9438182890566391 -1.418557575389744
P 2.9489986321314614 5.840441619350337 13.33881616390414 0.12995460951498264 -0.39903186819746117 -0.3991946190275706
Ni 4.6628633606893475 6.902545666577168 8.014289014799504 0.16188976766068247 -0.18319135735193612 -0.38467020015915043
Ni 1.6448910114856008 7.4013767652900455 7.87758761151246 0.32854250392764706 -0.929036245651458 0.5268226372919056
Ni 0.26726105626813884 5.400143262189628 8.577291167959059 -0.322763949572657 -1.1398366229699142 -0.06583978131294467
Ni 6.583556183641272 4.350974113334422 13.460509362807189 0.09730956978645176 0.7565810437701035 -0.29699866768309496
Ni 3.4529943845107063 5.323250409495579 4.166475934143656 -0.02985924945327761 1.1907472937768524 0.7765986245426109
Ni 7.368388121601263 6.052583258327251 6.258192308342381 0.19162868948601192 0.5416028809248736 0.6239936246179641
Ni 7.698172195983982 7.41079411575917 3.9465705644390834 0.5252915453593598 0.6014265379507255 0.5881359914894064
Ni 7.163532831850955 6.420269376643513 1.9288641425635233 0.49257991405895174 1.0154181127818125 -1.8266137585730025
Ni 0.026804087244334893 9.013334967180555 13.381187727037604 -0.6790422288526757 -0.39036519366139866 1.2343737722175514
Ni 0.6105076612078567 0.41673450848687704 11.013520650456048 -0.6493678417166945 0.5952438061787813 -0.039506799845370665
Ni 8.552322161260685 6.421972316501072 13.70956105998641 -1.6813896244934592 1.6644249716146624 -1.1524602252711957
Ni 4.207499103914495 1.3730068922598917 2.6925814874262386 -0.4770962166010557 1.8249227440238251 -1.8052939140493038
Ni 7.525486649881663 4.841364958217757 4.185612139187834 -2.2868731061223775 -1.9079261816002495 -0.6144540605586449
Ni 3.7955644663485417 1.6220455614839198 0.24233299457180346 -0.37068519873396805 -0.7723907571088505 -0.14842387196376375
Ni 2.174281970811725 3.690717344080134 12.269580241776579 0.6573416039507904 0.43664376501296415 -0.010157657259292184
Ni 6.888642977248242 6.860353703111742 9.640752914230797 0.020034807163688075 -0.1358411502027467 -1.1442830887770423
Ni 1.7150744672545126 1.1627915295152988 9.040691811952426 1.3954644410157064 -2.2425945959199765 0.6597460996272251
Ni 1.836029725552619 8.01102923429621 1.5191256460160614 0.6611013281035388 0.5535983627238531 0.4637971854993045
Ni 2.467392351322092 5.3947738835130625 2.02792126931623 0.4458575703017483 0.17148898131334336 -0.5741080526414306
Ni 1.5493216544520918 5.347594074344621 6.330839908779499 0.4711127453241112 0.5983211595525243 -0.999976838526078
Ni 4.915577774414664 4.825619743797047 9.453616574113155 0.3564212326157861 -0.04354343180858952 -2.674909137429967
Ni 5.934950128603727 2.384432193780346 12.1151180132866 -0.5156069710817442 0.4267123648318651 -0.5899501618800097
Ni 9.013269827404583 4.014536476120256 6.649203119297833 -2.5674905042339713 -0.39079456788933337 -1.490216277377311
Ni 7.96759030940503 5.623675056279396 11.351373681945267 -1.3279660410534162 -0.4768175090183724 0.7443965858887697
P 7.525272619189183 0.5195799784964816 12.250008530801617 -0.1769273787200953 0.9421437295676934 -1.6212903452087175
P 2.601198756851286 5.080446547400319 8.257103113145273 -0.1351235553104318 0.9649926091414089 -0.42854401872396514
P 1.648873843502187 8.650134187724094 6.123151969342627 -1.1859753263095059 0.24753064285995433 -0.9218788086710704
P 2.218195485499274 0.5364790975201283 2.844659600115637 -1.7251968514863967 0.12745781123505792 -1.4309855167404517
P 7.621558513758386 2.488739586476412 5.79735258811295 0.764812173430644 5.130567195670964 1.7057107177373272
P 8.766678552620652 8.352138324015812 1.9683481524849624 -0.5856980714718751 -0.048928093159270575 0.08129056865037612
P 6.801411511539176 7.980422845271554 7.593518631907035 0.6688020391819063 0.48268630909432353 0.5142522568260627
P 5.6117079488650745 2.6447865726589743 0.9418569513503653 -0.017416909924866778 -0.07603883333313355 0.22795014962486548
Ni 3.397365015830442 9.21390964308126 4.446812404585873 -0.21744025123247715 -0.893203552223565 0.748318289540679
Ni 5.4868256926440715 8.212115722722412 2.207334823708251 1.7987846521758764 0.4230236031263682 0.023375955721779095
Ni 5.460220747000567 5.921633697258551 3.1688518900152562 -0.997251726285431 -0.9851202331292195 1.2318726030622524
Ni 3.1759363059363475 7.17076334698387 5.556826757040262 1.890781294389847 -0.7105948068479763 2.5040701309957973
Ni 1.565727572314806 7.448444906271106 4.106276544894826 -1.0724428669062884 -0.6758635740143779 -0.9330975602050252
Ni 5.487486396086076 2.3509131262015046 9.575732250991797 0.4017310122961791 0.3623584240358276 -0.2339120236352552
Ni 5.532637566517097 5.2599345472505945 11.464976520672566 0.6088264299592223 0.1376308951133178 1.9448068566766827
Ni 2.361856608564835 7.979036298611574 10.550815140929128 0.07185333449687625 0.5382218802677828 -0.5587613949820313
Ni 4.997979591019506 6.032185202765668 0.44965894296791487 -2.370019754144886 -0.6505569769287893 3.0523933613636403
Ni 0.4538576668134377 2.9744589788543125 10.637055551475187 1.2797601707721509 -1.488926869141926 -1.7367220785171764
Ni 7.195460627759617 0.8631550740207451 5.01351914986179 -0.3348576475123975 -5.230397989217373 -1.8199417458694658
Ni 7.46570694690374 3.497847773108712 10.44904726892775 -0.22432746527061367 -0.7711784819683041 0.05711371429385647
Ni 2.0607526469744504 2.5528278203507817 2.0073147664715365 0.4736077438318231 -0.23578892894299394 -1.1851898542937331
Ni 7.561443806218321 4.159928456090221 1.9639893709041938 0.06883485938552661 -1.1990249604046124 0.11960566218049079
Ni 0.8739654851274469 5.024975375318844 13.645002889156812 1.1066971601034683 -1.230887613441164 1.4899154583074405
Ni 8.812043753744154 3.586019112728234 12.498256217031695 -0.16302542392702243 0.5751730035708352 0.5978349639447252
Ni 4.718920790754573 1.5418584972621334 5.451776770898112 0.5413910220243838 1.9729684067125632 0.7824656248463492
Ni 0.31703994249787104 6.343218327350674 2.253778553408206 -1.0545564735441708 -0.9786459382587855 0.7048525050475603
Ni 1.1821194316144807 3.0338385374941197 8.026356623582469 -1.04531721433409 1.1721767298635166 -1.7657804293357136
Ni 5.380787443043602 8.497400024433832 5.984025505252959 0.3258184201282647 -0.19487650699934825 -0.01575366328983093
Ni 9.069746013172486 9.015093741131805 8.413499062413402 -0.6795921878188748 -1.266734190826128 0.738648884771715
Ni 5.698269405449855 4.551995461984651 6.987478628762643 1.0917791053410553 -1.1665357295276555 1.6076820103966634
Ni 0.8431041204082718 5.221744027166318 11.05040279161151 0.3356549466027122 1.4844096979978627 -0.1780974877687965
Ni 8.532863979609557 7.864073899702912 11.514144023576389 -0.7011483167230957 -0.042355582148075444 -0.9816047637767934
P 3.398937676136057 8.621956581774972 8.286249440619924 -0.14580083251861983 0.9198954596924545 0.34814536576023913
P 3.738018127118238 7.437501423907775 2.7223001143612158 -3.0781447592961313 -2.2164063675603827 0.6076465507185084
P 4.713123350693046 2.580642504690914 7.52108878443531 0.2886266415693158 -0.9083830881774806 0.06800362173348289
P 9.176156490064226 5.700707494207672 4.849645154312053 1.1643256092502143 3.5772624744736006 1.8567650853454023
P 0.3629979155827192 7.136751078244097 9.703158680748626 -0.30127441224031337 1.2073710183764628 1.6758069881993591
P 6.409065335176293 6.7512911067697035 13.000800282974991 3.1775310091059534 1.3476321520237757 -2.7171497912667335
P 7.3436908408255155 4.6560050728477025 8.71314854586315 -0.3400301928522725 1.1665940935694166 -0.9275300934195767
P 8.961260369131915 1.7721834394175746 8.84693634002778 -1.2299710151641656 0.9037188499325919 0.6679057526198819
