# total energy = -340894.8429656486 ev
CRYSTAL
PRIMVEC
9.03168107718761 0.00000000000000 0.00000000000000
0.00000000000000 9.03168107718761 0.00000000000000
0.00000000000000 0.00000000000000 13.21877819278147
PRIMCOORD
 96 1
Ni 6.284659238078001 1.8926249227216907 11.459279697955115 1.049262315024767 1.1871948005389037 -1.3305656834597925
Ni 4.62750830766951 0.18397895876867026 5.915548878019215 -0.49373125405457546 0.33185099947558977 0.28594266697924947
Ni 2.7846931067799483 1.7922739128800238 4.612983557959549 0.24142710106537776 -0.8639192014371507 1.1143374502575454
Ni 3.3418213934411916 4.223981823220239 4.764748316214921 0.3622311544293439 1.295916468817039 -0.38357208199896525
Ni 5.1964229383000955 4.778644460913182 2.8199220824786617 -0.294509325602338 -1.1428260446155416 -1.1575165567481807
Ni 7.353576771763627 6.178139589974985 2.542393872981974 -0.18611187343284077 0.4219272847383959 0.3191600342714826
Ni 5.1770499821206 4.515100003422422 11.365875857294457 -0.5256427580511915 -0.6776234941282782 0.02257145754261274
Ni 5.494287784360592 7.748098670053943 12.27047640218939 -0.2364018799366445 -1.1085591530128716 0.6718950762849332
Ni 1.5637452834115957 6.481974377310376 0.3688854711968436 0.6549754177114591 -0.09826422039023722 -0.16286730108260336
Ni 2.7631254520682305 1.5200229147099928 0.5731170718941391 -0.8403396143449979 0.6971834185380767 -0.6234902026189842
Ni 0.5304315401945903 8.975052561422 4.713908982725699 0.6537011789847258 1.2376061631119202 0.24593733023090547
Ni 8.592353133825837 2.571581557124294 1.5727173555182208 0.45256120757416896 -1.9369464800919995 -0.029114657977769215
Ni 6.7957711090121915 0.7833131948576065 4.6735653659619745 -0.33919535565580294 -0.39840220503326224 0.03195495564004174
Ni 0.6448385554918047 7.553664637125187 2.48238106089531 -0.5525092434247323 -0.4665017289146611 0.6824983057220761
Ni 7.645580056723661 4.069702644918073 3.6877880704184136 0.44296585057625004 -1.1332569128698677 -0.09056530908408274
Ni 7.610076517916389 3.8161201317937388 12.643880423491876 0.0025109393473118045 -1.487525103698393 -0.4508046298943784
Ni 7.843744173989076 8.952581738590025 6.546745079054549 1.067377536568239 -0.2977838825885517 1.3939122660372383
Ni 6.449749338779634 0.4836998153162936 0.11835747265521508 0.5932450305811977 0.6860328012378959 0.991673460866705
Ni 1.982345643787942 6.40736365889601 9.37819429625204 -0.0940445258819348 -0.08449262052744158 -0.8752809063068732
Ni -0.12905911171213086 4.7930499924312695 1.3337219107041438 0.8604752087526085 1.2943892335392353 0.015406050142425083
Ni 6.314707641438926 1.8142931516518699 6.904326498058267 0.248391705308669 1.0229704712077736 -0.1592451309489838
Ni 3.3469242933206393 4.286670722447222 0.5506941169725382 -0.20291814635690214 0.43872790123550254 0.5192250274503057
Ni 6.146348072141967 5.64585745830199 4.738641338530796 -0.3207052672714154 0.40885219672199263 1.4661224696529007
Ni 5.399717050488565 2.8869407696741534 8.985477831034117 0.21799355263278586 0.3125859805983907 0.5303211373634672
P 8.996403455784856 5.482447250304034 12.363880242850046 1.9293684106344255 0.11266188387280597 0.6427076560876996
P 4.001215406359046 6.003999744708386 12.627739906014776 -0.8571883104712205 0.5035073596047328 -0.19248178151492656
P 2.270808509716572 8.355397945795419 1.3814281539841968 1.5723113442068535 0.06631723516999546 0.5264218023090612
P 6.20942533366066 7.657113513619333 5.921192775602695 0.7918748339753912 -0.5122581092141694 0.06277811166848542
P 4.458507489007168 1.124299802819736 12.408374820294469 0.466129690287223 -1.1604427292560402 0.7795250541607865
P 4.088380161644972 5.973219775170055 8.285451187554056 0.27664735772025256 0.6324715801819881 0.2374112950377653
P 4.7489934515251715 0.9796935550855147 3.7417604941168046 -0.5670362333963137 0.3021964098339505 -0.1408080072897188
P 0.27903379075315493 5.627541208823194 3.5737098083169725 -0.5361194892127993 0.24425325766026323 0.5837034096393495
Ni 1.4776101397827612 0.9681510665086405 2.6672984113409264 -0.67924251778894 1.2103236732468834 -0.5728225010607877
Ni 1.7183947606430658 6.7537828231014805 4.956605610496585 0.4996861860864298 -0.9050684219819509 -0.3169360300369703
Ni 6.252696118302135 5.599795884168923 9.211716929317696 -0.9321822474796075 -0.1610240772262775 -0.4232776281187033
Ni 8.677594141015618 2.146162277440013 10.003561450239243 -0.8850837513299079 1.0044495295854508 1.360362712216567
Ni 2.5161631612653728 5.034430704250943 7.02546301901951 -0.8414742421700735 0.3784787266364579 0.6721123345020619
Ni 0.7336543021015596 0.17680690072571575 9.168597876920424 -0.24486080933727505 -1.0177475322459375 -0.5596653948535393
Ni 1.5319718289409823 1.1239204722092284 11.247673729555926 -0.08823820361280288 0.4753977458527103 0.9275018112848027
Ni 4.081299323582163 6.817700030972013 1.7070861926093381 -0.03941655412440954 -0.1400922121696168 -0.7082036809079804
Ni 5.563551747503041 7.722638360743921 8.105279082412267 -0.6036016912251734 0.3300008336407284 0.2658078439025874
Ni 5.3016691193535515 2.9327042983275353 4.702990583319921 0.44505512900511096 0.03197243914153849 0.3798462964079458
Ni 0.7817561330182848 7.458353305394549 7.251980293084126 0.3170087922564347 0.5180947705006045 -0.923225809617268
Ni 5.227726745348177 4.59638513424548 6.9120070397529245 0.010487786905201291 -0.21337559424480024 0.2082837815441897
Ni 8.369478336790213 7.1117535075650276 9.238881516870642 0.07292342763260345 0.31685889694213176 0.16617579663054605
Ni 4.823947373825234 0.21833637723133661 10.448162214461526 -0.5840528225589683 -0.7288617234779641 -1.1102522244445783
Ni 8.237073890360653 7.164832697992486 4.8863346149000515 -0.7568450960647676 -0.9581627307037691 -0.31241937311353934
Ni 7.393370359142116 6.137722816593519 7.065740704510455 -0.8326957246464949 0.8413094344574349 -0.34356263148556315
Ni 2.2128883381645417 5.394848974320385 2.6080514858202393 0.0807120704390868 -0.4581111908581207 0.02861406419226685
Ni 2.187879612914647 5.086281586034852 11.514018911387602 0.10169150090423132 1.1593746930028421 0.6328361626102585
Ni 1.0648442454632698 3.4504454232644055 3.8724281482511116 -0.6907291782723007 0.02532588035929832 -0.7610516779469474
Ni 3.7060058745721016 2.782137140999623 2.5797236177284035 0.3504534450681255 -0.2512134910281803 -0.05866228972789897
Ni 1.019595522638434 3.398549383074484 8.362423690602892 0.8375376261198284 -0.1158575079919682 -1.0833281463602245
Ni 3.7360452462518237 2.756405881253524 6.947908875701229 0.07204128213796625 -0.679030915998766 0.12536184793797764
Ni 4.004891300608488 6.702257081840864 6.159408786328992 0.48237520561180797 0.8669456469683003 -0.7306923489287996
Ni 0.7219817573153684 7.384158044315503 11.304276178820503 0.26091272059381515 -0.6289357991145879 0.6256543001498386
P 0.3250131765872782 5.536881192911876 8.064459496049167 0.2389251605791304 -0.24113116709151372 1.2048135420619315
P 8.626492888771523 1.5655606513333107 7.943361811317095 -0.15220493627275075 0.5495974690945761 -1.641109951037806
P 1.7956788566933894 3.201848398163885 10.439569472965406 -0.7772303445893388 -0.44967565849625785 -0.4736504241443004
P 3.95631891910111 6.198641506304801 3.8516877955375484 -0.8645339522030142 0.06928660221096454 0.8376381562534349
P 6.960508974146923 3.776064625660376 10.345121569957735 0.2604128981392612 -0.1102879843239907 -0.5072773681701264
P 6.572968565426188 7.646022609102587 10.319028139795412 -1.3790055241287347 0.7468093090953203 -1.0872043414861792
P 2.4643664695686796 8.616675451304337 5.864325698078884 -1.0045024943105734 -0.2458781948581959 0.3891812006556265
P 6.788319972020077 3.8029067821943903 1.5999216824684581 -0.21319098903781994 0.5004410619745832 -0.27170312634109983
Ni 5.247126796571279 2.8433358128281836 0.32242018091402264 0.18043719164556665 -0.011705204252070164 0.7289041466801253
Ni 1.7024628750017465 1.273819285128151 7.012178319138661 -1.0236605552962628 0.7209712649862939 -0.25943510760702415
Ni 7.01333527750071 0.546029253631415 8.917850408525572 -0.7066342795383314 -0.5015546067537362 1.2160425780085315
Ni 3.1181608401409453 1.7704533710946337 9.287024893520899 -0.7031458067690988 -0.023449232161875742 0.11936526403491056
Ni 6.311844598497714 1.8738751525451718 2.5840064409546586 0.2040607446017776 0.46569337408075284 -1.0571553446195987
Ni 4.146742885575928 6.709283729816457 10.51872403019278 0.005616574855829036 0.22989698893859115 -0.6388522868973513
Ni 7.806334950448063 7.042028928681249 0.1784533762089428 1.3327218105708467 1.2833419745861383 0.04955030012430176
Ni 7.6335588890430515 3.9106998973469684 7.9954177122643015 0.10273305479486823 -1.057056100037573 0.44829240499548606
Ni 2.9727959311857086 8.426070851205468 12.405255277607104 0.8931683281102554 -0.6475068772485558 0.34880922459648317
Ni 0.0633671784852957 4.653691151475737 10.282848128066068 -0.6264019769491406 0.26767189369451966 -0.13469006731743902
Ni 8.588830778156838 2.4913982914079478 5.724219937087899 0.38027104265019024 -1.1451374663575373 0.31529078112406345
Ni 3.477414023335256 2.8957285954842464 11.761857275267106 0.19566429300796623 -0.22355562010159563 -0.5544334570306387
Ni 1.171029721361792 3.1404058709428555 12.655804049015499 -1.4273006116896967 0.1797244818492582 0.7545066777395779
Ni 2.9306992651005666 8.507780471045045 8.063587035645 1.2298365464688303 -0.5220902648132428 0.303730844200606
Ni 5.648566962662758 7.7551253180295365 3.8117668614541036 -0.8430261600382255 0.8337488485013576 -1.2025964798059547
Ni 3.065009396263867 8.527099237137326 3.7733930543606578 0.7669420752894534 -1.0281062497724422 -0.8061380287626245
Ni 3.4720040462949218 4.357244279364042 9.550898104207432 0.42628273349361423 -0.5946699359531823 -0.38338901945388165
Ni 7.115971302686624 5.916076328201443 11.407038647543253 0.48080914667626873 -0.17049062195581607 0.037073250703213566
Ni 0.6547336654173317 0.06127815062314309 0.19199728534030489 0.2639324812567454 -1.1884782952370176 -0.39036210833760515
Ni 4.37662626722474 0.1721655197557191 1.5278127397472026 0.9332376853273153 0.10487066996316133 0.6605202587890882
Ni 5.901932715438232 5.4120543270112655 0.3958351047371686 -0.21926496314604174 0.71044645419557 0.36075945497982387
Ni 8.111018715816494 8.97308365491984 11.210964461308114 -0.7188596179599297 -0.29427998320035126 -0.6262603091649538
Ni 9.144125633533962 4.932887512490538 6.0541084151883195 0.49707754481898914 -0.7539657176344434 -1.7298896289763754
Ni 8.023113362671959 9.228210585529814 1.868408275913261 -0.23198061094049727 -0.5939798518646932 0.8596730245662872
P 8.444323878915846 1.5746194275794805 3.5945160923033153 0.6910485092849324 0.08613838366098069 -0.15132947564633292
P 1.7377496534601564 3.224752741693582 1.7382960701729115 0.2856210219737726 0.055781111525362 -0.6960163948131691
P 4.779276678597362 0.8891699175603555 8.21626399370183 0.5932175197773719 0.29086710086406037 -0.6659008063747112
P 8.383152302130892 1.4475436730594322 12.586590663287785 -0.7428701219419142 2.684500894883461 0.54619024318524
P 6.264708254301542 7.688886968089946 1.4853945458112496 -1.0860077500749168 0.8211252462000761 0.08469830878034444
P 1.747368393940885 3.3193866973340276 5.946930357525637 0.3695004343972475 -1.0143863290831885 0.8539950003449034
P 7.013579132893179 3.9529139752877436 5.822806156422585 -0.6917653328462989 0.1119445460908072 0.6296153416801156
P 2.405931492188103 8.424689003981475 10.293264365996984 0.8906105946854082 -0.6243664345763505 -0.4869067749335743
