# total energy = -340885.7892925141 ev
CRYSTAL
PRIMVEC
9.11996878728983 0.00000000000000 0.00000000000000
0.00000000000000 9.11996878728983 0.00000000000000
0.00000000000000 0.00000000000000 13.34799618077545
PRIMCOORD
 96 1
Ni 6.308920677610249 2.2213325116789875 11.151075893474362 1.3653532234526229 -0.46549437069606925 0.6547406759928336
Ni 4.6161724259506505 0.704818533223113 5.473599041725367 0.6139807204666523 -1.4901193467881304 2.54532605232179
Ni 2.867035408444507 1.9983857593120735 4.364527868393809 -0.5470849870853675 0.22576085528303055 0.5857466653216234
Ni 3.6156480308791847 4.644936806911349 4.889637420377044 -0.017222277415557437 0.18461934804771432 -0.38647305769584406
Ni 4.150224110268002 2.9997309515574333 1.9757974210865 -1.0298970231242779 -0.5952502339366845 1.4968494664231125
Ni 5.479851692196724 4.687563540142265 2.911491607376347 -0.6514064694132781 0.27295165403622024 -0.8158102617450661
Ni 5.750222281277535 2.8277192238149653 0.3682415320991194 -0.904872761031377 1.6838013192587453 -1.5078825843088224
Ni 6.2184232292040935 8.327671326803502 12.2685565898509 -1.7103207057055125 -0.2542831310924395 0.39449027157336575
Ni 2.2470964229706727 6.463513265328959 0.23435309709346647 0.28172014425746966 1.5364143731999282 0.5466586981812263
Ni 0.8097282680059946 0.5324857825859666 13.24199923816815 -1.5005492838722028 -0.9410286421266438 2.117404754783489
Ni 8.327105888750374 0.11059329921367028 6.98142898608144 -1.3963941519188272 0.307400065522077 -1.511980665637596
Ni 8.790482373288153 2.5468333109397063 1.5355801848085813 0.2921878765580129 0.9200191297545123 -0.21990542494351806
Ni 7.315227132773371 0.8182098388029033 4.815249484503855 -1.123538400030523 0.5435492060179671 -0.06359340848092918
Ni 1.113703205382903 7.836916696532047 2.254823772364458 0.6683371837303458 -1.9766947065242153 1.7495547115054708
Ni 7.518830431742173 3.7809383417643176 3.767324964636849 1.7953275468652115 -0.13146333285002518 -0.7719590688880705
Ni 7.679916437103247 3.932721979154588 12.615671714690839 1.1128271842606061 0.33234079462781474 0.2452315624131325
Ni 8.578269823962058 7.772438518538343 8.909613787104046 0.05382578757120407 -2.1303903684098793 0.846470152722768
Ni 7.243170260874042 1.1495264420390936 0.16661726631626184 0.45153842273660943 -0.9629280133028966 -0.1266653972407496
Ni 2.188847183529967 6.746934529474691 9.056054946889123 -1.3197115143541078 0.5541125833561101 0.7979560071724644
Ni 0.6461233273179251 5.093338303009856 1.5068021238949842 -1.1280596849396443 0.09154875604327459 -0.37273333951224835
Ni 6.509331987569463 2.2342737471207226 6.5998230519976 0.12680706502493644 -0.2326835505447928 2.2566027372736106
Ni 3.59625897763808 4.383038668658847 13.305402171864053 0.15128936643701688 -0.21893869015487455 0.44831117404856335
Ni 6.635379073573845 5.97891461386171 4.590763281437459 -1.0333330453890204 0.9518061923581222 0.6096458405367242
Ni 5.633158364342998 2.9531187920488304 8.952834230290746 0.029596225599878057 0.2882695153402132 0.10381137546071152
P 0.42990346378950556 5.723938531775718 12.525345721694341 -0.3523768873430835 0.5835267748521693 -0.14688532383205025
P 4.2801198230210895 6.501616494134855 12.71248474135168 -0.7230667140627418 -0.5157134147526214 -0.8129447672718128
P 2.4729798052264087 8.794048281010294 1.0034236330890323 1.3452934765882705 -0.09692056187814921 -0.030019943400857976
P 6.510727342765084 8.11193846959826 5.798395779410257 0.005694479281615999 -0.02246424254078712 -0.33597710582882134
P 4.912316046291747 1.0661790490144178 12.554871620033042 0.668271877710049 1.4935034327690149 -1.1027263483811782
P 4.104660747148265 6.5484201729840334 8.333007420430675 1.6352673762141 -2.1276392880273036 -1.0650206063002883
P 4.603860468342234 1.215345255416825 3.478394327460565 0.7018270879576752 0.8428747220620257 -1.9855940658963738
P 0.5762196800047794 6.125527229056446 3.629307007849648 -0.1957882201803402 -0.8751112134982284 -0.019953560303791442
Ni 0.6734750251426659 0.1945517301344676 5.017845026942489 0.7933465334249111 0.40067403178657446 -0.7630473682207375
Ni 2.097218859017557 6.887026367121266 5.086374294987791 -0.4343518836549939 -1.6967293401743233 -1.3290592741175948
Ni 6.189640608306197 5.7527120327050145 9.135342129893601 0.29230100509710955 0.5314567936298072 0.7883801905585712
Ni 8.86690771014632 2.861390147881833 10.157251027335596 -0.040120522169969614 0.2919413077648456 -0.8627084689585013
Ni 2.5970752179506422 5.225003289671114 7.105538990755431 -0.7306005605459417 0.2761933009019695 -0.45483869075443606
Ni 0.6034747061623726 0.555861174101619 8.714119052216459 1.2709358876123016 1.1343090082834657 1.7089855318338565
Ni 1.590741402881724 1.4143703301490171 11.462938691692397 0.46941607434797866 0.146954743617405 -3.5041279592714556
Ni 4.737823687090398 7.041245036127424 1.7199823018894147 -0.4172483912054879 0.7836205643863988 -0.3132974048431185
Ni 5.976899100801369 7.80082898078649 7.923103135781537 -0.6261898609383344 0.6171367495971307 -0.3463157687506681
Ni 5.41054905081424 2.8911394854512054 4.6841052480495895 -0.9679264949587525 0.46860206308711555 -0.8752757641005506
Ni 1.174588115748669 7.921714164563936 7.0342737321304805 -0.1970696579959251 -0.3879560699992738 0.9041094005027913
Ni 5.158828797518028 4.804080258960873 7.240807277010086 0.6666245719146132 -0.5043041444744153 -0.9465025207570215
Ni 0.8604726852867255 7.784048238564648 11.349921304825159 1.309292633013629 -0.9708230997802572 -0.1708320644556348
Ni 4.883670224922832 0.5096585011831037 10.232694143575669 -0.39668625078342007 -0.8299662415304737 -0.162830534307397
Ni 8.171127065804644 7.7045312323514805 4.399018677637711 1.3500327910454686 -0.13803790074374936 -0.23065315037832534
Ni 7.807869596544784 6.578069190898819 6.85606498572511 -2.324921319144351 0.6403378703039423 -1.762803606095577
Ni 2.925011048827247 5.136603434042688 2.369896800153872 0.536880792858856 0.9055399623017307 0.6849663076465945
Ni 2.384844428687349 5.551388725885919 11.301294544253075 0.43345533998265345 0.12091101125547564 0.6543066737792086
Ni 0.9430412329930615 3.688024101679473 3.605694497150426 0.6594041429067741 -0.33805789961725 -0.01040988247941433
Ni 1.6608739614067 1.0782812473450607 2.5800071967179377 -0.5246174021104707 1.0310558193190695 -0.5751627191581902
Ni 1.3792584510435348 3.459386488906891 8.260394230446819 -0.7613494116930243 -0.06282259175317567 0.012065415804966317
Ni 3.749392370380977 2.8950975518230964 6.763482712497262 1.3517549159428979 0.24101906699368164 0.5239196047124977
Ni 4.404944833233229 6.746396451327361 5.999256703821393 0.49079222603090955 1.261732880956795 0.016416750795126566
Ni 8.756100091670579 7.713067522959982 0.5352810529615069 -0.47635162512554735 -1.6747962875466578 -2.7151083353566725
P 0.3028395012863545 5.90951165282464 7.7352035107430535 4.361497532515546 -0.2401238088729219 1.3495031437942435
P 8.454593929793372 2.1569364134026734 7.9926200964260925 -0.35093681246244723 0.1418369627748654 0.0915749812955197
P 1.8946643564376189 3.6225244872027003 10.423903405218667 0.8548236668937859 -0.2486110204083267 -0.6770012871632469
P 4.578424875920107 6.4565364893508566 3.7832493418072604 -0.975941651953745 -0.016688516399274482 0.23263315692283162
P 7.158053593941195 4.302755585083377 10.365172631435943 -0.22719295974386677 -0.010622512710852672 0.3855747142512908
P 6.759948724665217 7.9207748077982565 10.059637267431775 -1.1226973921864665 -0.8812754333274113 0.9031197828960125
P 2.681243408149212 8.773710751034912 5.744176654093373 0.5273021480314853 0.7924952411682094 -0.005456909349513182
P 7.224364885623261 4.426258199848687 1.571939675618383 0.3490593929340763 -0.9336835146154824 -0.7239701997136176
Ni 2.7493695735824466 1.908554068613632 0.31017925201469015 1.3166454738342743 -1.8409723412875196 -0.7374594924493042
Ni 1.8991331410510441 1.4735042065438084 6.835188465605536 -0.6328009384969489 -1.3749478091195932 -0.4593589472222927
Ni 7.07787994998891 0.614437820415022 9.012219817818863 -0.5335481289411973 2.085199373695538 -0.24969808282491837
Ni 2.949078645959551 1.6275769560523845 9.009710002460466 0.11822883643762218 1.2304952630987518 0.3355526166968931
Ni 6.429058023962591 2.1806392117910236 2.47724156655264 1.0283471621386548 -0.7060532102238808 0.9742066715405093
Ni 4.601598716129725 6.871102901947715 10.478376977659458 -0.07948334023830828 0.9215589634378064 1.1372313241365835
Ni 7.605488373368224 6.436755277460001 11.518599684044755 0.48881196237608715 -0.9403213316469742 -0.11859804685158284
Ni 7.9272682254406215 4.497229795484754 8.179011278658331 -0.40928799870783056 -2.1945867005821302 -0.505747047568529
Ni 3.359586672529932 8.774467708428615 12.256917685925078 -0.8017365572608193 -1.0421634991964568 -0.1261884576043311
Ni 0.35364228636611783 5.490485575582955 10.006579114117523 -0.8617697591943159 -0.7251156261719705 -0.0999907161630407
Ni 8.814340211142685 2.4919766998177644 5.873745871970622 0.44776327196489335 -0.6485666859716379 -0.2505234069396911
Ni 3.674024949880274 2.56172621966159 11.263986576708996 0.8294846739083649 0.5214706289513729 0.32694044954784984
Ni 1.2787563970844662 3.491005420039022 12.672440783227954 -1.066984929115511 1.3411061779798 0.018446893851277908
Ni 3.599487446522064 8.588921947285488 8.024614770264495 -0.7093601631099268 0.4763945625483409 -0.7649016478206568
Ni 5.902379837380358 8.587544832027065 3.542958233159098 -0.05621974172467737 -1.4456752575421425 -0.8924880142137791
Ni 3.3349536373445012 8.399454599644868 3.472961562166244 0.02869042595615704 0.2623155144786128 -0.15518767305015854
Ni 3.890441804730428 4.601954394905079 9.506429092195555 -0.7745332573731499 -0.4467471719955532 -0.17141879019704026
Ni 5.384648339993572 4.332076284128604 11.743126014972985 -0.24689120950374252 1.3798943544915911 -0.9023029434216718
Ni 8.423795795835135 0.07794107563929155 2.236590219144824 -1.5082780199750283 1.1543790395604636 0.9956946662109561
Ni 4.981764607171811 0.6774002596276009 1.3771398823380272 -0.6552119592022974 -1.6171696381721243 -0.5062299007422184
Ni 6.118523093172547 5.905015508305419 0.2399719097472035 1.333210063061175 -0.22982885470481706 0.00613722324598943
Ni 8.19478426435 0.02704617887668005 11.272702530698895 -0.0810609691380733 0.686314851254689 -0.3454788746716695
Ni 9.037232243698005 4.7332181029479905 5.583466391438572 0.8351393010909809 2.2700850880307613 0.3673098545038319
Ni 7.798995867098126 6.404707707803725 2.32530106570247 -0.602699234015562 0.10381008990913089 0.28333608259433785
P 8.797377069548867 1.7173448069706343 3.651384627833687 0.758477489461868 0.7840273129065142 -0.8773228764375665
P 1.9869128388147497 3.345423361295954 1.566640973862465 -0.4769005556504819 0.3670224051704002 0.6654071545677444
P 4.900423607238876 1.1818932105963291 7.921007366997527 0.6541619206712282 0.4473835200279715 -0.015758034165205118
P 8.625365341806399 1.975211919102455 12.061836085615019 -0.017389142010724893 0.19232751532524942 1.3766179977331647
P 6.734567852054683 8.288181862770584 1.1370931888483136 -0.47091297060847936 -1.07685256593821 0.845586464566234
P 1.8590599990278 3.3346344384435422 5.75601619732837 -0.4180179223816608 1.754711830226378 0.08205984271623287
P 6.87113938182211 4.207005034764297 5.729253649475114 -0.20607828925243865 0.16860806022112254 2.2118197766309646
P 2.3112462820948187 8.874468164114747 9.85232943721813 -0.03803612883711514 -0.4847982132310038 1.6034767140660642
