# total energy = -340857.6661607553 ev
CRYSTAL
PRIMVEC
9.40515856100975 0.00000000000000 0.00000000000000

0.00000000000000 9.40515856100975 0.00000000000000

0.00000000000000 0.00000000000000 13.76540024203619

PRIMCOORD
 96 1
Ni 2.3123616987763036 1.7342171944202727 5.327980964712994 0.3135653137925245 -2.3301653411521093 1.99500764590079
Ni 4.035809986598544 5.234864251468906 8.573972066451892 -0.40077636169239367 0.4452250789240719 0.25298163867219653
Ni 0.30757972327287 1.2693296099363003 6.77831755450295 0.9902025327481333 -0.3261182107568706 -0.7085770050869991
Ni 7.060998060895792 2.500812861662572 3.5045332685825263 -0.8755202760111889 -0.14731726916314627 -0.2177552113697347
Ni 0.6171871987400945 7.87409283226095 10.52633250946148 0.07101104110123899 -0.3470760439554603 0.3323839891609243
Ni 4.703604462738371 8.563114751363011 13.247834596146632 1.0768775056388744 -0.9002938834114431 -2.296363562111316
Ni 0.23171489245041627 0.4980953184720362 11.846103866006137 1.2073784745756302 0.1462644024185997 1.7237045832115863
Ni 3.6983058702051848 8.298246674844416 8.33310501416694 0.4269347652553164 0.118144504253932 0.929288213761264
Ni 4.995446534124352 6.683155219263165 0.7944960702318744 0.8694668707282573 -0.13090283236086486 1.2518127936296053
Ni 2.4959974204589104 2.7409265607435938 1.4380572147206176 -0.054994353958008516 -0.7170382484804747 -0.15202393061019626
Ni 8.527704329230616 3.0422584371578845 12.78266109484119 -1.262129087953949 -4.854265651325904 0.43183914453546923
Ni 3.1661619965661645 7.602989135589957 11.147454826560192 0.7042246416555743 -1.7309856902540315 -0.20166396223482688
Ni 5.5289447506019025 6.9977107486703245 9.830932011796287 -0.9147720224229601 0.6750189666258956 0.7974438434227362
Ni 5.686688070656227 0.7815141298150496 7.607696417469708 -1.7294507416667442 -1.7365058487413123 0.36920244354085446
Ni 1.5839603806122664 -0.045860493853857 1.6977421083342554 0.7527400727574584 3.032242597447378 0.327718465364455
Ni 3.9073261149516254 1.1669732688826866 9.62434111951646 2.8925229381258313 -0.6156660785888752 -2.6975034777907156
Ni 6.5476927199343775 2.4696065454247798 8.840401399298237 0.30405017521323763 -0.05718236274826281 0.06739966960089683
Ni 2.8695985355625306 6.671332934901832 6.843593117256647 -0.5193900922732604 -0.6868018181934366 -0.30302327661062006
Ni 7.259108321665186 6.039503785251854 11.904193887588747 -0.3903574803519148 -3.649403515414225 -0.8048527342922978
Ni -0.05053297664678498 6.744063026362605 7.479196557053168 0.22123751349138027 2.042324685819199 -0.9725863623282669
Ni 2.9535301709169777 6.5282616622649146 4.1519608737721 1.6356671827556797 -2.020376463682882 1.277413267806529
Ni 8.24123260340575 4.520363757717002 0.8341773748849389 -0.8878507725520838 1.896832642790249 -0.988674269029065
Ni 8.953541695203645 3.5002238249115933 2.5740470696243536 0.2634650547020237 -0.21147349212608094 -0.10007119169198894
Ni 4.232189698185373 3.65205130020595 12.63599046800771 0.26657197576212155 0.5271365689878986 0.8369149049341651
P 4.964983225416031 5.5375410655631265 4.60346679859871 -0.3154712725659857 -0.7566077832429808 -0.2217224235475988
P 4.175185031905307 1.006145056807267 12.198526444972245 1.5616428087494136 -0.4395383129519398 1.212134244093061
P 4.753517639433356 3.4875550762761787 9.598558758243808 -2.1512870093532306 -1.708638432907083 0.3174764759214726
P -0.135026099969706 4.815121428269263 12.633664572285706 1.511588829515816 4.402685576718082 -0.7961132975367708
P 5.907163798578565 8.396351884210421 6.321760118991795 -1.0354608903653004 0.44896706246500745 -0.771914074582748
P 1.6728767500251915 7.968050366683958 12.68773482908229 -0.6088709100439127 0.23654868992715392 0.0250847108827697
P 1.2351136429462197 1.8409469342233056 -0.10043110508800909 -0.37009513055845294 -0.4471742322306428 -0.15324237639832963
P 7.296522042579574 3.1199074265669293 6.285282211358199 0.010151229501388968 -1.0113364865132712 0.1269747009510523
Ni 6.679788172484042 1.0305326330594051 5.46050058991556 1.717219746818191 0.11092613212862186 0.020333826461345628
Ni 4.873687350877078 6.060242159966841 12.20670234934401 -0.058661775507266714 0.17067882670722218 -0.4023622181222748
Ni 1.3227321004722203 7.660069043138829 3.356307028516455 -0.7964004897598865 0.9628200269701226 -0.312760558503042
Ni 7.584808964014413 7.817614854862534 10.74337159243105 0.196891480546848 2.78402881247747 -2.077608705832473
Ni 2.9332526489734336 2.2760201659424193 11.180602367533211 -0.28942831153500476 4.854070761706279 1.6451954339610892
Ni 1.5881738916654704 5.315447650361432 11.0388600438066 0.07477590746030993 1.2932610334720631 -0.7982354860860963
Ni 8.008473738350633 7.247699864282293 1.1594105808517017 -2.28449072193313 -0.9757724733657324 -0.8684937081817108
Ni 4.235782468770917 8.210863346283439 2.6834685658189645 -1.7124292674080834 -1.0122446001498373 0.7366143708401894
Ni 8.321618493967657 1.1209538278484743 10.253957235347645 -1.325746407694278 1.1297049338525513 -0.9853200078448514
Ni 3.6464552308384137 8.663787569027065 5.198172846735068 1.0980078598595866 -0.28090561877597425 -0.9485051530093471
Ni 1.3828122536147807 5.011943182310333 0.9815900687320325 -0.935982337951988 -0.8835506025148331 1.430552285857775
Ni 3.7721739858566674 4.385832369089703 2.750148318751778 -1.6128902940704803 2.726650017447685 -0.22070812335047152
Ni 1.6642428144295636 2.9491191515331545 3.790123731046488 0.8318981684458641 0.009388126083119315 -3.8103242342934185
Ni 5.788132111325552 2.1671930757713853 0.18341470045548539 -0.5168817240291098 0.20273122715707664 -0.013559226741673421
Ni 0.9387853109076085 5.036161465707655 8.38182091417203 2.503897867083991 0.1434978954170561 1.3631474740505556
Ni 8.04703488861433 8.413281169692045 6.361349253090571 0.23926583174800084 0.10798401878116243 -0.2819970520679401
Ni 6.4474901602003705 4.677777897220294 9.508973682054357 -0.08029426617537785 1.499695677622656 0.7055364184884623
Ni 9.020280700635643 6.81326618334804 4.8635777458969685 -0.8394189023029415 -1.326873836430502 -0.5487376921974421
Ni 0.9253904840282042 7.391043886518636 1.130575305097197 -0.08340272989737249 -1.3454505709914246 -2.100437530801531
Ni 7.91477014320985 5.046817510402477 7.042034439608793 -1.1230709734758013 0.00013961090165782406 -0.5124190602720659
Ni 3.5093844493888717 3.9348267987006618 4.926306391701543 -0.4053040743594181 -0.037264283668097115 1.9829520002878365
Ni 9.212710245610094 2.7474537408126194 4.967946790891175 -1.9400554580346265 -0.8356535217232384 0.3114760353636636
Ni 8.975239396095926 3.9014855114604656 10.552211743867723 -0.2781172573975597 0.02946355667675571 0.19772760329489816
Ni 0.7233131273609495 4.916367960607969 3.7834479494715683 1.2882813208692845 2.1785281044573708 1.1385693262217165
P 2.8051167681947478 6.47815097723931 1.9130468800578184 0.7968699731971373 -0.07110025838093562 0.9650062359881638
P 5.773065047246908 9.441368461515216 10.01339302916964 0.5831822470285569 -0.3298817915643609 -0.5666395121785273
P 8.428620983370116 5.834132742042563 2.816483842879798 -0.3954873453793124 0.1447867894318087 -0.12980882796573773
P 9.039796404732515 0.26439687807268974 4.777915561359955 -0.17420612313419032 0.2164084675338531 0.17707624559313376
P 2.046317977432596 6.807858217152521 9.280247749007309 1.4339224878815886 -0.01181319058484417 -0.7428348978286045
P 6.906480710241577 7.944734978512323 12.813123463033653 -0.9691385129889826 0.8847788184949794 1.687627377873055
P 6.341804393002037 4.865100441074454 13.426110317942584 -1.7409980801847111 -1.3546034411352865 1.0435590939924027
P 1.1716476327073349 5.515354296423599 5.94768498389469 0.33637768370134974 0.8393589955992834 -0.612730650109635
Ni 1.8329149287781357 3.922665928629696 12.77202009840013 0.3280282832953899 -1.9478710974243034 0.7889905704490605
Ni 1.4101060238745977 3.502264744327989 6.578939478354154 0.7002561439261296 0.07827466464218777 0.00507998562606867
Ni 9.007367417876605 3.2978530272959903 8.297398329538616 -1.2764668447328598 -2.653892425968984 -0.7090354327806563
Ni 6.107079849799333 4.88319596622259 2.057569368666855 0.602853243094923 -0.40574424722063024 0.2562297132958491
Ni 8.502235159739374 8.535510610869364 2.9048302596815083 -0.28272184604910666 -0.17530629817690452 1.3427285440745715
Ni 4.094639253647184 2.451228865518618 7.218864588527788 -1.482466458228563 -0.08859404429032483 0.31794981601346534
Ni 2.1331181861603183 2.90109641171695 8.877527322359436 0.9933125391320248 0.7270832914213027 -1.2294210561979666
Ni 8.994115549407935 9.515951369220366 0.2555240514485991 0.4659581977063652 -0.8464596111998067 0.7144242078963955
Ni 1.099557092031423 9.090697123080595 8.418106956570169 0.6677329744874436 -0.5171164657477352 0.14085325870535742
Ni 2.9269511927108294 6.256010536244611 13.545347037653096 -0.44906502149545247 0.4116112475243685 -1.6861636488433345
Ni 6.107898098597611 2.916097639685389 11.512045799724147 0.5375513365633194 0.03555192896268071 -0.6847122826542594
Ni 4.541760493534054 1.6356887529172262 4.884280381009273 0.10440452896002018 0.3760624038854814 -0.265057338889808
Ni 7.8949816895135525 0.7183669544527354 7.984757690422599 0.42820489021699154 0.2964127132726379 0.1806361950302502
Ni 5.445445752543097 0.8753258842797442 2.8039298371793144 0.3986693426517198 0.053470975334946616 -0.5304530349556413
Ni 5.352080743111944 4.202845603350559 6.494873349231713 1.1445394277622223 0.9599853857348047 -0.2925388321395284
Ni 9.168233250586429 1.311840926812376 2.7601412997652357 0.24216680744487973 -0.12937096909737075 -0.04087334117559412
Ni 7.636443284733365 4.585155895318613 4.557559278951848 -0.5891834589173143 0.594465276141544 -0.1582334018550178
Ni 5.953747549128831 6.716393049758752 7.602479375993788 -0.07653248514010046 -0.8059261698621345 -0.7496508923091735
Ni 8.974750327848678 7.201783879992691 12.750656280638182 2.1862110749239254 0.1483901905123509 0.16632980570990707
Ni 3.850039293913533 0.3570818945369962 1.030323838538465 -0.9891717774907739 2.6441278903830527 0.21165501200926773
Ni 7.061590585887648 0.7396470663031356 12.487599637666122 0.06167665107419056 -0.6182636641127224 -0.35726789688679755
Ni 2.289469542741709 0.23315388171635423 10.81566810608032 -1.2211351620400905 -1.6255115823789168 -0.04003181911090525
Ni 6.611017652794249 6.907045019757631 4.616639663735133 -0.7558179403518339 0.7772462854289388 -0.2596731917597592
Ni 1.1988285410639408 8.18971114459001 5.636105246668857 0.9279070171430213 1.3881383396679383 1.255651193539089
P 8.47883512514033 8.18825334500687 8.747953392830674 -0.22014428042720152 1.2111042601666497 0.6036274022567862
P 8.242549325609875 5.563038450530171 9.167743241823322 1.7206897076446623 0.21552092272257722 -0.16872607385622557
P 4.881277313868005 2.896958141932554 2.051347856252358 1.48229265165486 -1.3959496081822411 -0.28028032648714957
P 1.020008260584996 2.0791984119013485 10.34453267473777 -2.975432016216237 -0.7703310463663442 0.3908261924582172
P 2.9754441904570785 0.7642076974735303 3.2799503078991736 0.5398077366976638 -0.12935399981650628 0.08058094417786123
P 7.599311718577004 1.3844863718457414 1.038895700087327 -0.3031693152701811 1.2526581723490362 0.8932431472122488
P 6.287414360813022 8.165727990157711 2.472059410787895 1.0134442768848935 -0.7882909732788745 0.0346713261299403
P 2.7227557943266514 0.15439226204482276 6.8024201544494804 -1.025458270626634 0.757567576053089 1.7080565922616842
