# total energy = -381166.59729245625 ev
CRYSTAL
PRIMVEC
9.28497522251822 0.00000000000000 0.00000000000000

0.00000000000000 9.28497522251822 0.00000000000000

0.00000000000000 0.00000000000000 13.58949977783067

PRIMCOORD
 96 1
Ni 3.7838037467504426 6.931651697510568 0.16616019947621394 0.27882482498754557 0.5820902995159588 -0.9113439705780175
Ni 2.4631460357656887 9.11924752876478 3.620052069801784 0.7847071125823583 -0.45806748210437886 -0.18950598671605426
Ni 6.5037907623050755 2.3196838862928026 10.48505993040493 0.009836526474447575 0.1033192663156414 0.29356135986677184
Ni 5.048612332819048 1.394343272968886 6.596791857882401 0.5298580816841197 3.9882291464354345 -0.288512998809587
Ni 6.390309797263485 6.94612697361103 12.426836047252651 0.5224062533917648 -0.6910819336260291 -0.07135428337327065
Ni 1.2317076500210462 1.228457908754105 13.393892196474036 1.890395628915654 1.219658320384248 0.28104651522921276
Ni 8.996593008375367 6.621802795170287 12.236773536509332 0.7892638787151052 -0.8398045677771344 -1.8104415196885142
Ni 1.289404484971827 5.98032243902617 6.095366065368406 0.18979677848359572 -0.5271077726324922 -0.3252196102020012
Ni 0.08472632581418894 5.202845053348083 2.047720467642523 -2.5539634162818143 -1.4183248905536476 1.649273974905837
Ni 1.1423954750304506 1.2792931471441151 5.045278098279166 -0.009227175025222818 -0.24679376469392977 0.22924624272846972
Ni 4.1799193522654425 2.062053683624744 9.96440495456569 0.3068174535457297 -0.025143589145163146 -1.1680693925633625
Ni 8.541545666228146 3.9903015918269418 9.120646774504573 0.37838590981233544 0.9111717066662114 -0.239224179876788
Ni 1.315318850331922 2.4922080076671924 9.156550844519245 2.6471715623053833 0.011630128039760615 2.06245025292448
Ni 0.5161916883334718 5.916785354769943 8.31787433130212 -0.5184392983242168 0.3741453893684266 0.5748688420668551
Ni 1.9441437854850647 8.838135624199307 9.029407038693929 -0.3485302599034837 0.901353692134525 -0.213113084612033
Ni 6.083255672412773 1.7393265208923268 1.5731886053562292 -0.8980714218388276 -0.010424023546801404 0.11999981229511592
Ni 6.51574981016742 9.072878363373052 6.296844452933739 1.7222395686302856 0.2891760863148826 0.7379760270744065
Ni 7.854076828669285 0.5193652928050163 11.213171889243169 -0.08195185638345885 1.7650695193116182 2.0491741046408647
Ni 5.251721162002879 7.796203579192586 2.6132469423981837 -0.5588896930297794 0.3690582046535063 0.19726686160839574
Ni 5.996645425161263 7.448239854278606 8.216116575756644 0.6867434541516753 0.24707555760040673 -2.81397625076918
Ni 8.521712959524756 1.8079889113752725 9.195103917915228 -1.4509879280043074 -3.0571203345256643 -0.840033910179121
Ni 4.442498446634301 1.4767752814486144 12.278357225761113 -0.44244983017177997 0.8287233702623081 0.816958002196264
Ni 4.6969067629605625 8.611480098292724 11.686466992853015 0.655029410877846 -1.4183014935148799 0.0811679270295828
Ni 5.334329585008528 6.551292694652709 10.095869987778535 1.037709062969529 -0.2175991454078446 1.4949869592930771
P 8.22394380972245 6.943007221994765 0.36962928569192377 -2.00488916668056 0.8407530477333327 3.6974497201891743
Ni 2.991888224872088 6.799480077696541 9.822204633201883 0.10788683108166582 -0.7567777331619419 0.8989931623221485
P 4.728020714347764 8.936342805286273 0.7507672979563439 -1.9622173388436464 -0.2426522317217305 0.7089457012803274
Ni 7.851820579732523 4.319240402866741 11.526586222002036 1.4141147091270418 1.4145358558248606 -0.35614046815057376
P 2.040661101113222 6.024110381354442 12.00772248704026 1.5099137558062383 0.7305607084469418 1.0610071142655213
P 7.707717766981298 2.434251193415056 12.528703365503699 -0.8579593843092901 -0.7124789112445665 0.6656465242720601
P 0.1960104657593271 2.834730737202806 3.1711365251765318 -0.7743813051763179 0.7551155149681705 0.4104596504184286
Ni 8.169097462111528 2.2258963533288765 5.19087672051069 -0.007213229918987578 -0.8685721268281299 -0.18910386618162917
Ni 4.628727191180134 5.28056957947827 8.357990994496253 0.019461194048405194 0.7729363451996752 0.4265539848771299
Ni 4.297095737376298 9.095700832042027 5.275076588239635 -0.8864631481759377 -2.888655227640309 0.09775591329525099
Ni 5.476482552999589 5.328517190628228 0.4470158387303495 -0.554537843818987 -0.25497501495314157 0.7382200247644125
Ni 3.204133469503549 4.39381732245552 0.42527506965451223 1.4121308459277937 0.44872820698132393 -0.6206157092846667
Ni 1.5747317682092739 3.6086798323625 5.52911907654899 0.9114025917300949 0.6303913006141918 -0.4243014413975273
Ni 1.8116193366191984 8.306487237902758 5.89088491687242 -0.7059249121761326 0.6336625151662957 -0.45546809680831885
Ni 0.5233764020259267 2.5704339224499937 7.122243451831647 -1.4098831875441975 0.08754323442830729 0.30755073216732837
Ni 6.1895314968168025 3.5155422476519615 5.43537889695781 -1.281722179594528 -2.265599798565898 -0.38086111082570534
Ni 7.4317033137174 6.773704986962172 2.41893098458519 0.009605641410564102 -0.9604232446031719 0.011843529602147344
Ni 3.320307077309176 3.0834009389491555 7.926170945930121 -0.04273302009215221 0.3178114906633881 -1.3027293779738145
Ni 8.342680070641435 1.9038841336751864 0.9340935593020467 0.45855444904312637 1.0102018586881958 0.03315257549256871
Ni 2.1912448264482336 8.405957175596308 1.06925308408665 0.25288522230364835 1.7282857748243654 0.059128687841356234
Ni 0.8136256505365324 0.8713986222827101 2.466371636097504 -0.5089892086549105 0.4278475068775728 -1.2775824463945418
Ni 0.532902786425589 4.447233783908986 13.35884512965633 0.9465557425924601 0.29760904757358425 -0.9444155563210058
Ni 7.968996964843379 4.649246986037106 4.551694395691053 2.136255568941405 2.2467189025009953 -0.1227002419454145
Ni 8.466504497886948 7.282178075537906 6.742457331934275 -0.3221124320315872 0.15498712700357822 0.4299000185312274
Ni 8.06944182491701 6.315547178173738 9.918241915620037 -0.9039463925623659 0.8782343325082423 -0.21961309051407982
Ni 5.8053377992639525 3.3579762210805506 8.417634888714684 -0.767835019417368 -0.5829747590034412 -0.5870946947090857
Ni 0.7215576949515706 0.48803592999669243 10.951275240540369 0.07102389661704543 -2.2660343150001556 -0.8970216404180744
Ni 4.738317751676444 1.2414475888468215 3.719771773324136 0.8170060818253801 1.1628227994524427 -1.4290016535412036
Ni 0.814942259998396 4.920721086502335 10.760234093426948 -0.20966137861800666 -0.6130309549588733 -0.8416994708070019
Ni 3.0679600254436594 4.250420167807973 10.064383708891894 0.07357905893873135 0.2283620403513035 -1.0662483080598024
Ni 8.814700347177135 9.159971429327078 13.33101341694874 -0.22696078912840265 -2.149371794608389 0.337000147776697
Ni 1.6502093303777479 3.2415612039236645 1.4877380514882648 -1.499735786831972 -0.7301179644825684 -0.3386857630092361
P 0.257476072082255 6.4234107333110435 4.24368856089788 -0.9421162187638678 -0.9665910639767805 0.8153145530555701
Ni 6.675228541598802 8.43159299170495 10.243479735605543 -0.19887637218736073 -1.112880920316677 -0.8581326766623607
P 2.4546874234965927 5.3191022259291465 8.002897337242606 0.7662846442111125 -1.9677035587691982 0.3444607178198003
Ni 3.9425768200781466 5.6608728724858395 2.3184777680340147 0.17200165928370376 -0.25702906926869284 0.6882871444897114
P 6.882868438606255 0.5498785063065855 4.13616762133986 -0.07814662370475574 -0.40027808189973646 -0.13117305530311604
P 2.5826622345887413 1.251549641699485 10.976605580969919 0.9042230432625202 0.5986348341382013 1.007159729427762
P 8.607905382899089 8.51098881334385 8.89684173593785 0.25352208455669883 -0.5388124626639302 -0.06349879188459387
Ni 6.445490403976149 9.152172050286419 13.332413591186041 1.2681930347598416 0.788359878843597 -0.6621277124855242
Ni 1.809195958131565 6.172530707503175 1.358244218478197 1.5988351015289948 0.09891830903446835 -1.111661188976963
Ni 6.990583434142787 4.092603446910254 2.7225886655631957 -1.2877578442656468 -0.7150911520564329 -1.942648158462467
Ni 7.585416075643724 4.688104606614676 0.32632323356866383 0.371578914192831 -0.04639735631761687 0.2945985428820346
Ni 5.38294571436197 5.540706725409398 4.15469021806392 0.31002773295291125 0.14000942264782337 -0.8712183062017254
Ni 3.1287301871354622 0.5683630346329477 7.347407810745457 -1.3367445585769946 0.18859273087316553 0.5352730820521039
Ni 2.380732597236057 3.3690439113382475 12.129742843633867 0.6172007700658466 -0.9251857615571164 -0.1409275635867186
Ni 1.9981173454414358 5.103904359232293 3.733579459718617 -0.1925172627385523 -0.12028880429044446 -0.674341995163529
Ni 0.8674794343147789 7.410635705332571 10.475316277589133 -0.7988918887231725 0.34508626721894115 -0.5942899269059443
Ni 8.955349149210356 8.66042120177286 4.625050341060967 -0.850097207952394 0.5534296983564727 0.5345590867042149
Ni 4.36531244905692 5.407829447491691 11.70445941750181 -1.6966164687455425 0.1056222034172052 1.6849544590265821
Ni 4.4731945741443235 8.8483583817276 9.378697586542325 -1.681587856547194 -0.22675972886119014 -0.06629178124869874
Ni 3.0852486489837876 7.293004356444345 7.509924586012676 1.2025224320349097 0.5120087122075246 -0.4080682673681165
Ni 6.068687546561828 0.8890205764270755 8.495434623142765 1.1379049531648402 -0.45499424249569387 1.4550893517671908
Ni 7.862052622235865 9.148077376290074 2.2635218577175227 -0.889750817788274 0.2926966978736314 -0.19283247998612596
Ni 6.147062020945404 5.479342325314498 6.333521961369942 1.1015372131690835 2.066582272814983 1.5779906539798179
Ni 2.412951460654018 8.511016668268995 12.085536148930911 -0.5022310639954706 -0.46001149320462714 0.7518003345520085
Ni 5.79714845127126 3.72123229989925 12.199511074645079 -1.1056368371597538 -0.31786625516072353 1.1969778480675966
Ni 0.17579614658144732 0.295011512212932 6.954127836610239 -1.0750826185219808 -0.6597183317130833 1.4172244584006173
Ni 3.4964059140772017 1.3834798521622536 1.1700953410923536 -0.4158491968651161 0.47963235275934823 0.5294911852630043
Ni 6.7306691276128205 7.451294611069532 4.8085762293702095 0.21119247055055243 -0.7257530026456532 -1.6966894880753232
Ni 0.4913748070240984 7.743084236940668 2.687704085808838 0.7241206092485529 -0.20759241190411987 -1.8413896313305964
Ni 3.1861391878597427 6.978401546879281 4.52655346875249 1.2672733511590497 -0.25890931701054115 -0.13501068388165136
Ni 3.9070060806677116 5.053319815168589 6.205155324330751 -1.8576999384548458 0.32503860453944666 -0.9192380286141136
Ni 7.934039033786139 4.257439608944566 6.804602598430745 1.8582187870727933 -0.09387251908044478 1.3631112214959815
P 6.619973655085751 4.6972595920124025 9.8012224465875 -1.3250640369152729 0.6128394077733574 0.7275108658770245
Ni 0.2911294641451943 2.563609465789417 11.453597033146535 -0.44103803742591785 1.5227435605810549 0.04287365943507455
P 7.215344825139495 2.2737139748281554 7.336617741241707 1.7792059587130005 -0.8321665916159023 -1.630532946852908
Ni 4.037422840197591 3.516953563859319 4.422485611414971 1.5959714068279547 1.5279395029596976 -0.1469503727420308
P 3.1946070851038866 1.883596463194424 5.57378723451185 -0.5420402255726084 0.18907609826748728 -0.014676371065252143
P 4.533277647682544 3.3670847816030345 2.0641223760655283 0.060867267799017764 -0.12533947934047449 0.20445720870924788
P 4.921955988183773 7.204889943234994 6.168328327796267 -0.24033566777341187 0.10125621313902562 -0.10294902746041625
Ni 2.402338734173693 2.5037306617022614 3.48661676488367 -0.522484672038184 -1.191599871585135 -1.113993179544249
