# total energy = -340894.33239083394 ev
CRYSTAL
PRIMVEC
9.05674740341933 0.00000000000000 0.00000000000000
0.00000000000000 9.05674740341933 0.00000000000000
0.00000000000000 0.00000000000000 13.25546529496687
PRIMCOORD
 96 1
Ni 6.527804558523487 1.8803528111526855 11.385702508125625 0.955786774272425 1.1896453189619254 -0.2124458833416793
Ni 4.574055867506331 0.31222049398713725 6.263247008386639 -0.6892947598186193 0.23278562334029587 -0.6634014369916252
Ni 2.695749881236342 1.5346024274278585 4.870760342072958 0.27554795400848675 -0.9514351821719486 0.06508439120415889
Ni 3.358006411755792 4.359130198075959 4.8847584506512565 0.11754466588640403 0.034647671980856456 -0.6000993344988698
Ni 5.1948868360193545 4.443004734530161 2.629393811023729 -0.2212475407937093 0.37628249031608746 0.26956525406249054
Ni 7.225971091962807 6.071598085111211 2.4981778452472714 -0.05741247648119789 -0.15684963413361375 0.4116693544558136
Ni 4.975831289834516 4.182070788975468 11.656432231526002 1.1773677871461528 1.0293951437871949 -1.1557404386843646
Ni 5.891214849763156 7.843659369173637 12.47756856235375 0.5118593311138541 0.14128906069119537 -0.8644974425381239
Ni 1.9696161122316855 6.385206072779894 0.20856058745002273 1.323904726499849 0.37049365154845226 1.645715053909985
Ni 2.8029908256434477 1.7138263991255378 0.4792205738964313 0.1795103089559231 -0.15018379207766394 0.1796630324837035
Ni 0.5134251913056296 8.675648400253309 4.393775879077137 0.7935815322538526 1.165952603330676 1.258912380788864
Ni 8.811445268798208 2.557417123456244 1.5215679567589362 -0.399103601975661 0.5806448253186839 0.2530834543573835
Ni 6.7461536784213765 0.8350429662586324 5.022190967752859 -0.18411798293126355 -0.6390790581961767 -1.1164701803298323
Ni 0.7154685434211913 7.326247397720384 2.502790446631153 1.0413471739427484 0.16756907743364688 -1.2765118390381822
Ni 7.468492670320503 3.8138687287718613 3.7870335866150966 0.31897620039545066 -0.7128355232530368 -0.5354738852090003
Ni 7.797968079203716 3.985937870127373 12.660666104858196 0.0900181783313611 -0.07284989408219067 -0.8238575575295747
Ni 7.793738578229294 8.87706140275898 7.18161204951609 0.43835483416679993 -0.3953868152457062 -0.6595694648400448
Ni 7.064425890933371 0.6170162665635031 0.3963966201253828 -0.7229139905349614 0.6517898208946258 0.5854579304366111
Ni 1.6828070397306945 6.704963591843932 9.393273355199145 1.1966513179661133 0.48465423145397174 -0.8919925626345993
Ni 0.07707654195441561 5.117333909158613 1.2924385905872702 0.6613869776647577 -0.8000799954940028 0.131608857288954
Ni 6.287157726850384 2.0030626798945046 7.149334707925644 0.3370852512913356 0.9968724885691413 -0.6180597756320323
Ni 3.636990454616741 4.44933540087089 0.5539124742950331 -0.4240152776156762 0.1427363346606832 -0.5179266203538564
Ni 6.014603974550117 5.586174545010539 4.883949683120174 -0.43080273285115483 0.3409904998830128 -0.3129852729193384
Ni 5.235243701848091 2.949773528625119 9.274000522045748 1.753122117141755 -0.8818842705560037 0.5445254538883074
P 0.3215389812517662 5.810039223994986 12.251018557804173 -1.2060271027540586 -2.2274605684920155 -0.12801831172421824
P 4.164654663978013 6.2234344530687435 12.333481147359205 -0.7556731872438534 -0.6234714335659068 0.45946950465822806
P 2.4072924807324716 8.447400255590875 1.336456193661961 0.0501190281435782 0.10649046495477145 0.3049264071706039
P 6.222193678692951 7.904321462378501 5.926637599679976 -0.14470502835127982 -0.16089526495789708 0.294181509949274
P 5.0178274269188625 1.113988970781053 12.563516188257728 -1.0640204471705481 -1.1228699132085886 1.61421724041202
P 3.7188453364300527 6.135448153354611 8.170165070627485 0.072210717836295 0.728715427708087 0.670971021808767
P 4.676804665268228 1.0485811420074598 3.743754108442794 0.6001664402913792 -1.9360715336862138 0.7936290976623365
P 0.1553766504648147 5.646021530961232 3.6567187671918617 -0.3843048463999317 -1.2131819686312848 -0.8184561840083453
Ni 1.5529604541412445 1.0571397681762558 2.6770205278849444 0.721671376377112 0.2010029316120603 -0.3044163003034048
Ni 1.7795602708007996 6.386247598715779 4.818109847501869 0.892831770706443 -0.01495919241299359 -0.7575837740030049
Ni 5.808934300828221 5.58559491318535 9.293380149851028 0.5080078185782476 -0.6576056562454545 0.15613383901351174
Ni 8.676753323420074 2.3274663103073188 10.162634073241948 0.5252365237517083 0.3695251169875958 0.32723586930108156
Ni 2.240503423034535 5.118982237161492 6.817762662049758 -0.7796482100022122 -0.17700554025619836 1.022913135607277
Ni 0.5353515764428312 -0.013681122423897846 9.356741153741927 -0.008615766693469033 0.6711440570515216 -0.3502017340686356
Ni 1.538795701413205 1.2241280743141008 11.54258076728757 -0.8017131602220515 -0.2108813670680368 0.12699912643108452
Ni 4.168540008556228 6.902038412407958 1.5458916628981274 0.1786369052120343 -0.3523156950878449 -0.07926556780054736
Ni 5.364954436228512 7.68541082414996 8.067063965396843 0.44993456858459924 0.7286172115673258 0.09172719060266783
Ni 5.1471758914085415 2.816195563161019 4.9497632541713985 -0.0021797812601381814 -0.13080024534472956 0.08779571675874558
Ni 0.5810066394236791 7.454246406867047 6.583021735270488 -0.27938789657986723 -0.06425855286875386 1.0479873049670854
Ni 4.889837474519469 4.612719121595846 7.113399346113423 0.5676250160202482 -0.32327739887396584 -0.39182917980143483
Ni 8.451901458983352 7.043115364610433 9.011382927173829 -1.2558915916846691 0.5397614568407607 0.4076381218092335
Ni 4.738127901023697 0.31713830775396934 10.47551570977969 -0.3098428706356148 -0.07321319095888036 -0.14836550792200254
Ni 7.874307401930469 7.1003811775895835 4.687808613199537 0.6306137010376429 0.4151966508827817 0.1909280638745615
Ni 7.25205452409628 6.301929281645417 6.998606885833784 -0.66568637637106 0.23273548682865078 -0.049860889386185096
Ni 2.4610714460132246 5.278199854142906 2.631886227872039 -0.18624248547343408 0.47394532967689995 0.1321585591448369
Ni 2.3909812789017817 5.381129786850174 11.234059954559642 0.14181845083210415 -0.41954644321104523 0.46910599930672753
Ni 1.019146713384616 3.440721684559618 3.6993217063432025 -0.2103720315317861 -0.1933220180280348 -0.03887893645338466
Ni 3.6591432584356567 2.6131885731360818 2.9015680856134423 -0.9397284352579816 1.4060697273353784 -1.5407459106957466
Ni 1.1343123116517182 3.220724236658848 8.256736706418268 -0.7524639362779364 0.5064481874006116 -0.8872115963061883
Ni 3.423876134640083 2.7095251938318325 7.250116380180808 0.13342868410651215 -0.3976378160634119 -1.1767396666438508
Ni 4.044688989658569 6.833506005826709 6.044160669261086 0.2449124885108169 0.12005277702023841 -0.5557128379636945
Ni 1.0256585146707158 7.6628776369457645 11.739901931377299 0.4797969033616705 2.0090448407201467 -1.1294527086324289
P 0.2697860103349918 5.580015956867913 7.716457353786609 0.4564641421730009 -0.3431731093566283 0.7366447098574926
P 8.575806818364622 1.6510993675434402 8.066785923255697 -0.5312151099326464 -0.09871236367124935 -0.011388958563231999
P 1.885053262985072 3.424727468883328 10.331945435054179 -0.8446518685671067 -0.6988183830383384 0.7370082638444985
P 4.238267905776928 6.138690468876759 3.7955967411575267 -0.8628010286723077 -0.3529150192347406 -0.6514663761169361
P 7.015619079903061 3.8295097313046775 10.412764224979968 -0.6084389647128167 1.4822011203823182 -0.5825713529174353
P 6.594589012881903 7.741580770709615 9.959493949032163 -0.6339057415253535 -0.2388354290788016 0.9779872216288641
P 2.418033782992992 8.317943110133973 5.7354007584052695 -0.37757678364747876 1.3898476090495613 0.033919792675896426
P 7.028198901859101 4.11276855887639 1.496952623357697 0.18564676087096416 -0.6580350304733893 0.36394916556171514
Ni 5.410709123429315 2.8745572425596673 0.5794787661594719 0.1698535025924494 -0.47889958835838176 -0.17487203885296335
Ni 1.365567296407317 0.9240146400755844 6.885471810304295 -0.06748657288774829 0.28467768422389683 0.32682037903021777
Ni 6.710171221523359 0.689431300698787 9.090518067782389 0.6180896004287032 0.04322204391342879 1.357635800203707
Ni 2.6328326579616044 1.5791435104946725 9.26276019301073 0.36122456754170046 -0.4239396871827344 0.22459254600654222
Ni 6.398274959088436 1.6913747226467593 2.580560735426341 0.7573125226194893 0.8821660634624807 0.3447149999224515
Ni 4.115195767144366 7.007549518086768 10.247336396396499 -0.4043062292225231 0.3999266120975887 0.15310096572445892
Ni 8.24449288978589 7.219504574413049 0.2801424008365985 -0.1747851355661119 0.50367756663401 0.11043016632880981
Ni 7.590151956379168 4.20848026401061 8.07296262489286 0.11651133952588322 -1.3209050204415769 0.4257271181004604
Ni 3.601968012929191 8.359703771789336 12.681145221781879 -1.5841769852961878 0.38572460956559373 -0.8125097366169233
Ni 0.1213676587966174 4.976990553484892 10.02003105912472 -0.19975106148283017 -1.4207903213750046 0.540131695695986
Ni 8.52277956310716 2.160559514894891 5.833000795344985 0.6741170236369165 1.160068119525441 -0.2101601726312961
Ni 3.639798046269997 2.4319811737865864 11.456194794815794 -0.47954467814154833 -0.24917023534590638 -0.1565866102802142
Ni 1.3515293381410378 3.4202262654908497 12.568222074138475 -0.46249286486558416 0.7894896215726661 0.18976078303933772
Ni 2.9475002850607086 8.353853113053843 8.008169749258803 0.12146662664862952 0.09704114661641353 0.1866075821223367
Ni 5.816877068182755 7.8758289354715885 3.710005951095931 -1.4465936555913537 0.34053849994725865 -0.3222271032325805
Ni 3.2946363511176266 8.149541951422231 3.5810170394728145 -0.6748168779174185 0.7661473473022999 0.21973187548013126
Ni 3.5106941139565695 4.245694438537153 9.218115863025053 -1.3163335990208105 1.4412226210874277 0.029079433864459596
Ni 7.370752253798125 6.115695387561866 11.257229831096819 -0.04126132064263216 -0.21563173726882864 0.30301016398449754
Ni 0.5037978689591425 0.36605742245040906 0.5913648412747398 0.2861614678582749 -1.1178747739868424 -0.18602445592535705
Ni 4.610463991525972 0.3218749865754301 1.4986897074838081 0.22205563851730142 0.004188584160050851 0.23597816213566455
Ni 5.9122355601735 5.5267532261814685 0.0864928420895451 1.036913049430795 0.588011035875768 1.5960076593825288
Ni 8.129426915738744 9.06752479781695 11.623929376928567 0.03924634709513241 -0.48279326698583297 -1.2041183157671198
Ni -0.3615743325524682 4.843041261382782 5.64734472173717 0.9506749069671563 -0.3529736403868179 0.5383452932195245
Ni 7.82240318333431 8.7014963569578 2.6294200755908084 0.4897347313006727 0.030279367709831723 -0.20676245980365682
P 8.619858837078933 1.4602737025947259 3.5143285866354455 -0.9063629724236584 0.821099020947831 0.8864384655855896
P 1.8983757382171345 3.493794223553423 1.5374616425405452 0.04698536761060295 -0.7692990055574042 0.1149995308670471
P 4.609920586689858 1.0899070797939325 8.333021688661411 -0.06507384968119762 -0.3970377205855678 -0.5941881112207573
P 8.677079366321744 1.9390586469475393 12.619216089634142 -0.22649002013957123 -0.9612457405044671 -0.7993017225670814
P 6.30797013207355 7.703832248094226 1.4242867173230735 -0.25524678055728944 0.26846867856420215 -0.952919737137275
P 1.6079077398196424 3.159681760068705 5.851916717690115 0.2994083055658521 -0.31714506072398285 0.6865465076495209
P 6.685473471721976 3.9356366957977498 6.0093918164970574 0.901033589790945 -0.958470491752175 0.5942683296393895
P 2.5127492459276697 8.736908238777898 10.368491221632302 -0.06323139715582013 -1.176471757694445 0.014128468981582121
