# total energy = -381174.6212747163 ev
CRYSTAL
PRIMVEC
9.18298452435888 0.00000000000000 0.00000000000000

0.00000000000000 9.18298452435888 0.00000000000000

0.00000000000000 0.00000000000000 13.44022608169943

PRIMCOORD
 96 1
Ni 0.2439285384495021 7.787648463062562 1.0593518593122073 -0.6272512123233133 -0.4700223404734098 2.638462207456843
Ni 6.591757560504495 8.210074938030301 6.150274555877552 -0.9459101385886612 -0.35164078050800734 -0.2647362081049634
Ni 0.15650468838128906 4.431249222749123 9.65178974706103 0.4449083190146015 0.6560020592037605 1.1809871290662952
Ni 2.494842441375411 7.827475067308884 2.613720768622533 0.3607409430370626 -1.1097578013066631 -0.37954779133092054
Ni 0.4674286093393156 1.643561402214103 6.355439879698376 -0.8033887481522616 -1.846137944648859 -0.543555119555238
Ni 4.8747965623160185 3.874549146838399 13.234268558640762 -0.8465025486226002 -1.4602163885811108 1.6102698257284978
Ni 7.38689383177048 8.189238745954004 3.6413472527098856 -0.5186784109182164 0.7010138480277605 -0.31144415368446365
Ni 7.0796770816988355 0.7650959737167586 10.972345175467929 -1.153556286548852 -0.5002970801975513 -0.11420043200451944
Ni 6.553124744257255 3.5027851979548106 11.62582288956891 -0.006369908082085803 -0.2744313239055403 0.9441371058486384
Ni 1.5322911777149815 2.039219477048563 4.192651406864757 0.38333065541212047 -0.4180521180537058 -0.3648143417754878
Ni 7.238597813330576 4.553107428501648 0.3630281756256849 0.8038201792627253 0.02381612858299124 -0.11042039613679694
Ni 1.7414887500773226 7.153802133457267 6.762355375364186 -0.7956420143273071 0.9574207103314221 0.5420402255726084
Ni 3.7836743311543755 1.6144972559287418 0.5023726206693897 0.7912500559071985 0.9436735359486587 1.5118017168575706
Ni 7.873325709458271 1.167901165471881 8.749224493757588 0.558291140213832 -1.5589884018457023 -1.0160475188356952
Ni 2.3244705279370845 3.2485359031040075 10.11583993636294 -0.7344839547607479 1.4249963890365525 -0.21635138904367257
Ni 5.29386206491711 0.45853121555230575 8.275536762109235 1.5639578300358354 1.1857045891466227 -1.1030883597062875
Ni 4.582144025833184 4.124307962215729 9.901979244416491 0.9138878200457938 -1.150043131189271 0.610243107801091
Ni 3.3408340814023214 7.127768372092654 12.291248584943787 1.2620059321125232 0.16158149239164432 -0.7820840731372144
Ni 5.704662881370704 5.822122437495839 12.57231035825399 0.06248603434936336 1.3634752897036195 1.1612693389223938
Ni 6.587101787308072 1.6876121793802568 0.18403160304321584 -0.20664136084476026 0.9275971992120863 0.18910052374751948
Ni 5.0634885300479615 6.190112179705404 5.177242751883636 2.613975278059072 -0.6149903926780893 -0.14041462850604206
Ni 0.44907457800264866 5.202555648956495 1.5643214280288327 -1.003880544455858 -0.39452369591446246 0.4837841701441926
Ni 7.569534212645534 5.796437629546343 3.2634343773325605 -0.7906466179952448 -0.26542860618629766 -0.8596100325388357
Ni 8.563629028435573 4.001531458002371 4.586275450608471 0.8076747771221251 -0.7495087103043544 0.8354300928585224
P 1.7592210933560057 4.137384532297989 3.6815466861313064 -1.7418020641432452 0.8060480401519796 0.3627266060085237
Ni 7.183977420880235 5.3342488312245395 8.753095121769999 0.06724308941837451 1.578724446822049 -0.72823771674072
P 3.797219233451661 4.959399399512553 11.66166775168906 -0.7724537491363019 1.4273078107785482 0.6638554938099083
Ni 8.704844965742456 1.8823832829229132 12.139306003315916 0.9051630385782863 0.5298223433501779 0.7320563191558619
P 9.278120328871212 2.332909690792139 10.050439638280883 -0.2030292180134697 -0.5208340238086384 0.5798097310118983
P 2.4792130015720355 1.0498722643010294 12.114119831430653 0.07103340969874218 -0.7394389847731782 -0.39241873375631775
P 7.1705610803674675 0.9245979882742063 6.516990618121941 1.2920330746022328 1.7508271504599913 0.03468752407985639
Ni 6.972631030119545 7.936100592240808 9.387702720799325 1.2060106476938262 1.0516308152569436 0.8583522488723346
Ni 5.716747689115265 6.256266400823806 10.358839156770081 -0.7827877840724583 -0.9454406551514104 -1.3712613614069415
Ni 7.216622931162846 3.2569658829744537 9.512010946845352 -0.19555013602760515 -0.5183565088024233 -0.2918343498733361
Ni 2.447127653350534 5.665800490508256 0.4470543213888163 0.23237630371701912 0.10662879030484863 -1.239773345966568
Ni 7.6772781710550575 3.0938944422997485 7.133198270891559 0.46209588653748157 0.23070997175818977 -0.5988610912163944
Ni 0.005588764432628985 5.216936202853137 7.5647507959630556 0.2122589641418538 -0.3101074371509111 -2.715257716450343
Ni 8.352952995551291 1.4351076516050363 4.171335862991903 -0.5092342347861811 -0.17210013253478104 0.5961264658940507
Ni 2.260887542509015 3.402672299754809 1.429542762932389 -0.1341992437239495 0.6164029567548998 0.576248238912885
Ni 1.3992480967095118 1.3549218300051082 0.7230434140013772 -1.1786628518084927 0.504145507409364 -0.5095245123330903
Ni 4.706665297122125 1.8779203524032653 11.8738617319291 -0.4359966183472685 -0.5334563405583393 -0.5325654533129538
Ni 9.07960256760836 8.331097492183469 10.506668679591881 -0.4925722007494678 0.18572209419358984 -0.4435080962329652
Ni 0.44010188374185044 7.1339117887956265 3.34418403418744 -0.6719860933368427 0.18652864925528523 -0.24744862466910927
Ni 4.443334030493684 7.18598849450946 1.025970791962471 -0.08411775368652609 -1.490262300123898 0.9477587617616258
Ni 5.200847613819346 4.432920525947839 7.76845051544039 2.553979871342047 0.20296571176538591 -1.3449939430699804
Ni 5.659978478266575 -0.010840513330132296 1.7907618905902332 -0.05418368513125507 1.2243840079946913 1.2001179363584753
Ni 4.752212900779436 8.553417549551112 10.249717750669308 0.6224849012829214 -0.3254687500983298 1.9879749074237245
Ni 0.8485702221049294 5.763773753294518 5.089584735707911 0.4498450941945865 -1.5831009786231898 0.127078059298136
Ni 3.693883107654136 2.821536301801321 8.019931140431781 -1.4039344261599305 -0.42757676971468944 -1.3491843270022443
Ni 2.8443284695991933 6.575613873563052 4.851411173712449 1.1652141825027547 -0.6757049369493267 -0.7717749779017224
Ni 1.2138620034365675 0.11232167623677525 8.558413093178043 -1.606893453057097 0.5394948334429354 0.23125376007680173
Ni 3.943485812293124 4.170333081072673 5.654948039298133 -0.1696519281046046 -0.3269916145007594 0.3221556265646968
Ni 8.050548129414413 6.601307864497157 5.464366213333795 -2.0541445612722624 -2.8529086661683185 0.5102251379445407
Ni 3.320603966310173 1.2544324294361646 9.614989854541612 0.07442135233436861 -0.6931799538056385 1.1539190692049095
Ni 5.417400756852958 2.207516035965407 6.378086038040976 0.8258743308492874 1.1734067456158759 0.9253963349060257
Ni 5.031118509303602 8.890910599876417 12.970006137373037 0.677585184691175 -0.2678379869587387 -1.0857938342918978
P 8.864353408389128 3.0339479187765774 0.7661896671836107 0.48382247958129576 -0.03870872942410753 -0.3587876759654337
Ni 6.128632097752642 3.869672982011376 4.580415788129897 -0.559304669080011 -0.699623395438137 -0.8940641004516474
P 2.6651592569060876 0.635333973111845 7.126169614472344 -0.02851893337529927 1.7520278556363118 -1.9962654295672912
Ni 3.8113702127330957 6.047592258584139 7.158761863444225 -2.6717471947622182 -0.41735534909699734 -0.19368942866978253
P 5.680823853327482 6.948984844753098 2.8086580841866002 0.670634978625587 -0.8756012657607694 -0.12200450142997052
P 9.233674683366901 6.364809278894254 12.760083109226638 -0.6512645445187751 0.049335870120650514 0.9453529805336107
P 0.790261943035884 9.455351931811963 2.962696222902092 0.9273704279132609 -0.8376358422605896 0.7778535799956345
Ni 4.502362255556022 8.127262782832391 4.063666286757707 0.3153188061485215 1.6426127608355776 -1.1595600695407708
Ni 2.053921435406498 8.749097768569992 4.75072984876519 1.1663866055443008 1.2912548016753118 -0.015846994334585612
Ni 3.6640384076770665 3.2804192256641254 3.545679837358776 1.6360705888416855 -1.6322820683335306 -0.562162193133464
Ni 2.3067565506276178 8.383486419373984 10.563318511640663 -0.2388050900614984 0.7027398295799316 0.5038004653651195
Ni 3.843584122739114 1.2174617334030324 5.195373636694321 -2.9349268570133384 -0.009883834772615237 0.6381753154349848
Ni 0.9897696300395167 8.279617680469176 12.59022636122484 1.3622907824772152 1.022733158385987 -2.6838941145373973
Ni 3.416722266205552 6.3811825404509035 9.806970249061798 0.001730352427545407 -0.7149155457105171 -0.9784119678711084
Ni 1.111058490746325 2.8109758695017426 8.158781540903558 -0.09921218612580332 -0.09215399372744128 0.3891724589048781
Ni 0.43879239013670274 4.340530517803442 12.336044102161676 -0.6626735576866651 -2.1824726909274155 0.9970154419049089
Ni 8.62080229060703 7.710226719829741 7.728224451363605 -0.7788812499292005 0.5582980821923674 -0.7815508263415637
Ni 7.873316526473663 5.456116219961673 11.12257972195865 -0.23855492172390524 1.1143436209051325 0.7961670335928417
Ni 8.461624435406256 1.021772331399543 1.7598225788478512 -1.7785199883895693 -0.09623921954040844 -0.7296515663691112
Ni 7.889157174923031 8.78246873463666 12.88569623738551 -0.2326511546449606 0.2865232220730678 0.10259241545194589
Ni 1.683902253598492 3.6153043083606646 6.059122414058357 0.15567772531269963 1.13495692628011 -0.4660065344457974
Ni 3.4189445484807677 0.7122175934466182 2.7618322090718097 -0.053766395088178376 1.7521543539118467 0.05793003954756475
Ni 4.132728759101567 8.184886011249656 6.311866617731855 -0.13741980754377625 0.8124169197928008 -0.5807103884492967
Ni 1.0221947486915262 6.716609419239335 8.985637677603634 1.1297959509044606 0.29800268346757713 1.3498661835606172
Ni 3.3608162559100454 8.377756236978389 8.412184164573473 -0.43524868443765036 -2.43749398573746 0.7085021859850057
Ni 5.83503371385515 1.2342665952362744 4.294689976937125 1.633974111323973 -0.2030382168745342 -1.9067964388711809
Ni 2.631825022777854 3.2447157815069425 12.3474686533129 -0.316635468077416 1.5683729283843956e-05 1.4593334717555253
Ni 9.171707903229898 8.373431051227865 5.342852369504083 -0.6097065185713306 2.6445402953301227 1.073621460595422
Ni 5.485951736954134 7.064800646633343 8.016583942542047 0.738108953107845 -0.003589260013155109 0.27728833373836115
Ni 7.553574185396259 3.4697448193340428 2.5384827391295723 -0.3796172111162753 -1.2483939977560436 -0.6146738898789349
Ni 3.082443260493162 5.4719568684110405 2.679080661572314 0.18976129725996996 0.6953517646459767 0.05864840577082803
Ni 5.3217875211110375 4.671494466072225 2.023694723269722 0.43217827304244283 0.3754563948703663 0.4654416630812629
P 6.41763898934597 7.704377158634236 11.727860541342817 0.3619035958865961 1.2067950912683345 -0.2937194827111909
Ni 2.7432789069691417 8.735020253165425 0.5459449643374497 0.9289958793318259 -0.7744144724070985 -0.24751650179256723
P 2.246112120274214 4.954973200931339 8.141389886353844 -0.8317014790540257 -1.0277249551736236 0.49432697865704545
Ni 6.970399564859721 7.340124891160261 1.0405423519389672 0.30174595256009323 -1.3311842908803977 0.13674463585362256
P 5.485933370984917 1.9444143439521753 9.973964660761183 0.22611772440181702 0.154054844997296 -1.8561457065938487
P 5.398566455421276 2.389201386441195 2.0641632181401666 0.047897852122543313 -0.47188484760344535 0.4355667298987015
P 6.8427836277577745 4.943237346601895 6.215379161855221 0.3273492549504943 0.39494227150911987 1.1360280478571017
Ni 1.5754236564203021 5.961125275512114 11.219739372308613 0.14222751334506475 0.292813940177786 -0.05048566745437757
