# total energy = -340859.5316301013 ev
CRYSTAL
PRIMVEC
9.38130993416813 0.00000000000000 0.00000000000000
0.00000000000000 9.38130993416813 0.00000000000000
0.00000000000000 0.00000000000000 13.73049536599821
PRIMCOORD
 96 1
Ni 7.053262604218189 0.14831850544754027 2.2883650366007684 -0.8881294801347672 0.8202364158372196 0.8720379738895434
Ni 3.018464521395473 5.452107580988655 11.54432537215753 -2.2918217083769044 -1.1840786235074254 1.4089627326124572
Ni 8.844717493545343 3.91965188827097 6.353511656116894 1.9470200622779177 -1.3958727321977187 0.8118808447836727
Ni 6.0043196104737 1.8054611846233695 4.017625595522165 -1.2246868839470908 -0.127088086600465 2.0657106688433067
Ni 4.715749824531455 6.575313021862982 12.137098432012785 1.3685074528108883 1.118427561166519 0.20764769062208754
Ni 1.7596897748777305 9.095892677912985 0.39036473740209066 0.4711675098214467 -2.997898572749869 1.3504014872387968
Ni 5.735470038739633 7.575426298918385 3.4478780220534038 0.0915029904070037 -0.06568602934389978 -0.33787252307932136
Ni 2.9739408258322833 6.619405177182617 3.3525066900970324 2.0973555494420975 -2.2693155568545884 0.21479638585172686
Ni 2.6597795285250583 8.768588165796652 8.434230785091106 -0.37608374404172007 0.25061879486697486 -2.0677837493222517
Ni 4.575020798584678 4.81023837525047 13.600933597219615 -1.9850831876982262 0.008116201349231184 -0.35964488175940645
Ni 7.079877379673893 4.796607332339953 7.517569886091309 -0.7210005755623324 0.12577630976757695 1.6360078539245504
Ni 0.28423304328579924 7.202312851817843 0.0019691368939556424 -0.8597732975895774 0.07029730286366603 0.5472935035517478
Ni 5.035539907624165 9.176965955843261 12.409978214369259 -0.276810108550362 0.09530668042381005 -0.6407736722897803
Ni 8.818205912495706 3.570151197540539 11.082747113259407 -0.1898885668664536 -0.48440766266080443 -0.3548029802860728
Ni 5.250634575106848 2.282031714461133 6.587080936678503 1.6661535242699947 1.0850757251789505 0.33729968129498683
Ni 7.969525735689145 7.532281655872639 1.8455428300708465 0.7225730622557749 -1.1476147242534365 0.3812318639015628
Ni 7.814687220040084 8.287824190548703 6.08595951950638 -1.420512899343902 0.03989220820924742 -0.5988500354728009
Ni 0.39241549168993584 8.869624870646115 9.582787339012294 0.7428739785966562 2.6555903824966975 0.26392271106473253
Ni 5.973136137222111 2.6364763553731483 8.913150394863345 -1.1602738077783439 -0.6872461048197067 -1.1132563013782248
Ni 2.6924264860808735 6.739645422870228 9.36313992196012 -0.3724044954179199 -0.6358860051801758 1.0081246644441928
Ni 4.893656980591364 4.318226209741192 4.044564026160534 -1.791471663454231 1.034258385416767 -1.0423041385393792
Ni 4.548284066103622 0.07967077213872459 6.781107058966113 1.7664103496102286 -0.7626892135503703 0.5213593001844892
Ni 8.812980523024848 3.74329264830207 4.022183973877444 -0.8604057889672537 -0.8625009809333856 -1.8513050906720956
Ni 2.0076753139669323 4.24159967258145 9.771526155185406 -0.18481886565303007 -0.33071534320924983 -0.7985712721589602
P 6.588202941311743 4.328395549393635 9.731186523722759 2.1066847972628233 2.905010271959565 -1.0585910486248609
P 5.543650400479933 7.376467484020761 0.15162354083458446 0.008682872485978594 -0.1704075753237065 0.5210931910072961
P 7.608138925641697 2.0792171813004514 6.111402569387739 -0.29980142723921266 -0.34646335007212586 0.5278536496595813
P 9.288838073329783 8.31726274020679 3.4961683134380475 -0.8076817191006607 0.07920283288341198 0.21004678698188342
P 3.8295444091549915 3.950019187583664 2.0035541046409926 1.2098544469199486 0.9473239882170524 -0.9961898606798198
P 5.459143563220512 6.463384616518605 8.134713712135785 0.11988848352823224 0.1755127577607558 -0.13779570282595624
P 0.1452639510279502 7.484071105619957 11.07799641805646 -0.7006960596770255 0.7673490809198849 3.8431014287244394
P 5.280420233221708 1.967973611559975 11.650351995605826 1.2408856051941404 -2.004242791345813 0.7431123198597073
Ni 5.824226609267095 4.069311920997384 11.591819190353528 -0.6896549713715154 -0.027927065427571257 1.6350316060542096
Ni 3.4570407471812103 1.7452519393379604 5.349593319870502 -1.5699040203169412 0.09608983844673773 1.0900415538246582
Ni 2.8947156659015763 6.678638766265209 0.5780415893236733 0.5442536882841594 -0.23109538012206654 1.163043400103681
Ni 0.4862886284964043 6.416074671991599 9.38322812029755 -1.106480416106972 -1.621646700106872 -1.3339119742242058
Ni 6.716032666500116 0.5289032275473501 8.077210974682231 1.043077526370294 -0.6245767508149437 -1.8789470207590802
Ni 3.9488840491169244 7.938989572802887 4.973432823398084 -0.16808869738254278 0.2610309913392343 0.20838534011906046
Ni 5.925666710431185 3.5559009881936188 1.0797136893718093 1.0050624805791013 -1.2993028687907686 0.7750644472862716
Ni 3.368621903800877 6.966401058238507 7.1542608456981185 0.7071091622922209 -0.7203146052389015 -1.055559975108021
Ni 4.4300889459180715 5.27364692765984 9.827766168361082 1.0444085864768917 -2.2001338556526044 -1.2458887148356863
Ni 4.809046948925875 7.518800713916402 9.99010222667641 1.7090228128296951 1.1890783907148619 -0.7840237133620884
Ni 3.61418706500232 3.046946177470029 11.235828509612434 -1.3181374849987688 0.9042538965004556 -0.9544942807132465
Ni 2.0622182482282856 0.9789771864309056 12.250965015929296 0.289106923639844 0.19818063167191677 -1.686913896745798
Ni 8.198364021798055 5.990866812446391 5.612833806569334 0.3543100998100543 0.3123972616263523 -1.3343128092070504
Ni 1.770628381920857 3.4654933071690808 12.920313015741256 -1.0272662703696502 0.8392430388467095 0.06418141977391528
Ni 3.3070898938558795 0.9204406286547502 1.7245361313854457 -0.7997413812076614 -0.6833344284701264 -1.0695156659571645
Ni 4.618897183782536 4.678046341078345 7.186266121674388 -0.1778673740358614 -0.31561576856365003 -0.499196905154837
Ni 1.3831427684480424 1.6820875815151717 3.0277248121435605 -0.29578896364570995 0.3803867422924481 0.10669152522198398
Ni 7.471612726414749 1.036850485615338 10.205931450704098 1.2115488039032358 0.4194433419742776 0.5135989395127799
Ni 1.619017036788808 2.0305188029463603 7.419135556536669 0.4093057393196435 -0.9393977913914403 0.6361845102572011
Ni 2.256983617715723 4.043306930668442 6.5837590149341025 1.4369095955343705 0.20065608979560282 -0.37056204289254246
Ni 5.387976948272692 1.0176094195386203 0.853598797452111 1.4558048897769766 0.04615644395140438 -0.12973169487089914
Ni 2.620997194463064 1.104198907538671 9.71383110088418 -1.0280640836805972 3.1555293080238815 0.9480752645607801
Ni 2.16659469931047 7.608926955651666 12.340818261553965 -0.10007633389831153 0.39050686144558555 -1.6868994985680947
Ni 6.723941110528723 3.9469608806402166 5.066442879717444 1.4699225601252814 -0.10436621952291703 1.6178502091789169
P 3.9251587170311035 8.4076422773024 2.4112949037628764 0.4473850626898682 -1.1658312472614634 -0.282906451256087
P 6.599601232527351 8.59411456906589 10.77246592562031 -0.18854773656784302 -0.4220602107718344 0.2596017150918755
P 0.7272034745080721 5.184477579508109 0.5895027353138859 1.4556431673881318 -0.7971427672425497 -0.6269236537805656
P 2.592065235525669 9.173870123661244 6.201021282271344 0.5914018067248717 -1.5672182459546622 2.192745019387701
P 1.3380280503773767 3.2076292490263523 4.8117966107820855 0.7934249520713303 -3.3397964149384993 -0.4532713462673162
P 7.274126777130994 6.026618983493864 3.33471128383622 -0.024103577916423004 -0.9366063446892321 0.9090446330208796
P 0.6178577437082686 1.6789073175463727 10.679949326188144 -0.6976050794565276 -0.25668711254824184 0.09215270817586063
P 1.5832742470509755 1.7269114789869204 0.5274566296004803 -0.4473508670178231 2.3119444472687087 0.7508138022690231
Ni 7.49814307008367 6.609123261814464 10.045833772869464 -0.6855676886760194 -0.23871253034769208 -1.5269722539504218
Ni 5.842548306998849 6.2640411679256385 5.937930896526793 -0.2991349972998074 1.0918528960017841 -0.7627483489230799
Ni 1.0299646043377608 6.499831004479622 2.414411374826107 -1.9991316953714926 0.009740624326531612 -0.6967491592141355
Ni 7.159524698538511 8.806291649249763 -0.00788780514739354 -0.8418676209537501 1.7257907763166536 1.1671638500299577
Ni 1.1315078999079173 5.2193197635202635 4.7130752131523845 0.615969725872223 2.920527136648241 -0.08473558977618309
Ni 1.1666502858286312 5.896462693514158 7.215841638453257 -0.9250029561223488 -0.2160150887501764 0.6302696874346628
Ni 5.016402035953515 0.6814386316791832 9.71553380858429 -0.5164626342138202 -0.7697350646535583 1.1063261499172947
Ni 7.268263458604447 7.046902076280591 12.342465619527182 0.3333887762763549 0.830344450805499 -0.16995377561573957
Ni 3.819037342355419 2.2440749356476766 3.2913367987042337 0.27330466650026475 1.7888794772470225 -0.45161812693460934
Ni 3.7998056575883434 2.3647561028884834 13.519717723382776 0.4622121004003717 0.030339017303173562 0.31340127741083446
Ni 1.2108925421025465 0.6099061456553062 5.13050971952784 -2.5266279616916547 2.3891515898783307 -0.9066506788674062
Ni 0.6014310705242937 5.586776280906393 11.923589205859681 -0.012027106367863158 -0.8106451726043588 0.19017498775862088
Ni 1.9466874199811979 8.720433903401824 3.3131961883021663 0.3613778052901131 0.3304224945591793 -0.7179635885082215
Ni 8.669530917281751 2.1606281863778554 8.407100037605066 -0.3014983553256614 1.096921311663627 0.07601029408804329
Ni 9.230476946043941 0.7151766355464184 1.4149003778497506 -1.1031870900676806 -0.07060609235333647 0.2647935437054601
Ni 9.103416488246252 9.330613045167727 12.823595465851191 0.8961685483891598 0.5590483300948307 -2.233828162581256
Ni 1.743704023246952 3.957833818515846 2.5760194435131787 -0.3364789851659044 1.1003971860273694 -0.4522269641632018
Ni 8.2819045841643 0.7596984548476794 4.271680841950048 -0.15505577545798457 0.31140738690925723 0.5949710121333689
Ni 9.317469830358618 0.23376910245699412 7.25152720220227 0.9187767727069789 1.270241175538122 -0.9991409728883439
Ni 8.383973233074435 4.952440266811116 1.7494847862486453 -1.1548176697597787 -0.17616530374309014 0.9219076050264767
Ni 7.404648938186758 1.770647144540142 12.405310074691164 -0.9074369222141275 -0.180111947095664 0.7110028409196723
Ni 0.8037080546424613 7.664614409689401 5.879576336157701 -0.019241364728115253 0.4603537070353943 -1.006397397340441
Ni 5.367957233495648 5.962197530178984 1.8022377666302147 0.042920196402293824 -0.519885286742124 0.19129881695041892
Ni 8.580127036388959 3.1540150644196037 0.16557167201101727 0.25111167534299333 0.43686487988483474 -0.07489289265414845
P 3.5669990775006677 5.599028271299467 5.311902970250891 -0.4034569938483503 0.3247264726156665 0.03548430894953889
P 8.55375617498396 7.944487020253377 8.16515418566369 -1.3570914976644628 -1.87584755589815 -0.5721187901255438
P 0.23484326241105757 4.157496231636656 8.449101099005395 0.1828817965313173 0.30996679780798875 -0.24175774493191912
P 7.135555452401986 2.351472168434738 2.450275183458327 2.1006347344140015 0.7172999867822937 -2.2633505975204056
P 3.644544983005371 3.1516040678414874 8.285790322618213 -0.9185083495369406 -1.1230393489069175 0.7310178505890184
P 5.847632976825071 9.160661239684638 4.821806468170608 0.9855061557137285 0.3857693467606001 1.6281924716451894
P 3.1291358312477584 8.664624492338737 10.709044519913318 0.10464107045085849 0.05160821109459499 0.2342717209675191
P 7.573606324847745 5.0424914580692395 12.340034922198818 1.4564661775100594 -2.3186141459794 0.6812271523191366
