# total energy = -340891.38303084305 ev
CRYSTAL
PRIMVEC
9.07855344335903 0.00000000000000 0.00000000000000
0.00000000000000 9.07855344335903 0.00000000000000
0.00000000000000 0.00000000000000 13.28738063859921
PRIMCOORD
 96 1
Ni 6.45233685236307 1.9350755433656763 11.257534475287594 -0.8619438228783348 -0.4831599062966324 0.9580550014813114
Ni 4.424033642048503 0.2909186187857064 5.88472843185359 0.13967080836148205 -0.15680463982829126 0.0914723942793844
Ni 2.5958580673577885 1.6581524228143072 4.797794062461303 0.9975222063379983 0.6212857387684977 0.3254186135866847
Ni 3.532828349059429 4.335672079830804 4.675563140317006 -0.7259957147840788 0.19470835685260016 0.6822635640034508
Ni 5.119541633571972 4.596117625592783 2.4205357637433287 0.05693836505825678 1.4298814850429957 0.5100945259039472
Ni 7.146174390023592 6.118745400221966 2.8302254678952394 0.7203385164983014 0.0628542163220595 -2.1303327756990664
Ni 4.80677638339608 4.383089365299112 11.634456955920307 0.9843504448427306 0.6828754865558369 -0.8614918229425808
Ni 5.986007867992954 7.921156039787454 12.52844573344405 -1.2744297596981728 0.39584987092505375 0.8179499337958881
Ni 2.0225383287766814 6.366462813832584 0.5746669959357878 -0.1896615384573121 1.0321374824190226 -0.4480085552064801
Ni 2.888478007088691 1.4394137523043675 0.16624375001149086 0.39785507428054057 0.9633820701211795 1.3337062859713031
Ni 0.6293543871293535 0.3423304678393209 4.7496677419566025 -0.733218457784763 -1.0206323099929004 0.4754748789475489
Ni 8.881630696767182 2.199206981890462 1.320465635142905 -0.17703639349413383 1.5010164533166086 0.7387298745212955
Ni 6.966546128435244 0.654748917267579 4.623290644381831 -0.7182497522900727 -0.14289342906383778 0.4535847637426769
Ni 0.7234735680420556 7.419112025543257 2.7215343005944117 -0.10982364309306249 0.47069879771514417 -0.6456045180195205
Ni 7.773947293115309 4.150505900544644 3.9964056238324845 -1.2793300252132678 -1.7314752282959405 0.24858119561165576
Ni 7.983117168127719 3.7021615308620106 12.652801944986804 -0.9168435602400081 0.8023353671870828 -0.44195540703386466
Ni 7.814628291810213 8.989529306338472 6.823667851831715 0.04043573941754326 -0.5583554177928642 0.4526496535229172
Ni 6.908788370413155 1.0292265434150136 0.515659121082569 -0.0626176748312212 -0.5905931947806473 -0.5277914289630782
Ni 1.844072122049513 6.530258077937354 9.380146785081266 0.08071721264540938 -0.418334425180815 -0.22920150553346333
Ni 0.06823440887991641 4.770489404645013 1.2850029890589867 0.6692820641421183 0.3660898660538018 1.3171614942387444
Ni 6.171709681941689 1.6762187444842158 6.825647884372523 0.012523072167675205 0.663542847665496 1.5868743296226928
Ni 3.413581547484429 4.305458653440122 0.2974569930905648 -0.5732801574234965 -0.11748527340337832 0.4076360649267044
Ni 6.109685003726204 5.814632011629706 4.853826895298829 -1.2091299100490984 -1.5628815662525213 0.3494319457821466
Ni 5.315021049751104 2.971637558091889 9.19808274756124 -0.007357468806335716 -1.0488054299930067 -0.11390604069255222
P 0.36980943388478804 5.764690888259771 12.628805512103435 -0.7409520789835948 -0.6434208801046403 -1.6267567676399275
P 4.177006198511711 6.246680377595008 12.700264623223125 -0.2184113568964948 -0.8602306968419701 -0.27894643816707443
P 2.369148426784442 8.359005601505055 1.7069233206248178 0.5259775156827909 0.8280705671696577 -1.3927899795073369
P 6.344401928577368 7.619321368149537 5.944468945982568 -0.5314349392529364 1.2531870482693126 -0.11049727212131938
P 5.010544519014724 1.176516997069586 12.7026295864367 -1.0613606409501979 -0.7719482702547931 0.12583030293396394
P 4.176688449135607 6.2185187043185985 8.263846926204813 -0.65292984803634 0.9902794087326557 0.3709765047221417
P 4.80023074624834 1.1445877240479432 3.769988312685154 0.15479635114901083 -0.7885398560648871 0.8912045195156652
P 0.1121609904878828 5.659760965716654 3.6981969265035937 -0.6133528570746662 -0.5933705004154683 -0.9911767237359446
Ni 1.5991690600558164 1.2491181902325303 2.6244173812820093 0.46478268934102535 -0.38347180897567507 -0.30947648843513154
Ni 1.8896827753508303 6.2326086195104065 4.500369752163708 1.2311323824621183 1.4012939032132898 2.599552417765523
Ni 6.005390579935293 5.428366791484176 9.304235551274678 -0.5162754579036787 0.5922703253727541 0.6339247676887471
Ni 8.60212926699257 2.408385935456475 10.398757775768326 0.9443679909125219 0.14998607424456106 -0.36578544743950553
Ni 2.472271717160569 5.409655892508455 7.1951831459385005 -0.8708187567704615 0.054971728250189186 -1.5242903362428843
Ni 0.5555611798783391 8.714558074811741 9.160041792254079 -0.567858472187293 0.27171058254026753 0.4464059866060506
Ni 1.4783607472611056 1.0522497553521435 11.366104897825503 -0.5981578945017827 0.05573328900656208 0.9138597950213357
Ni 4.211314052577332 7.124857946163821 1.417006066301519 1.0018671135702553 -0.28649931081366786 1.0794884608991602
Ni 5.566596848642984 8.087338963489804 8.050744221771597 -0.862615652134379 -0.8806802229455736 -0.3621087699188667
Ni 5.179632579870026 2.8729082876595995 5.103948309903512 0.15305442875723962 -0.4067770593605188 -0.5958055922195223
Ni 0.5336301179396464 7.510306096485084 6.996537130262653 1.0942069980562574 -0.5444462639109399 -0.7046797269151219
Ni 4.874211879558935 4.551905069546324 7.180141798329102 0.531596147421149 -0.5130142706539036 -0.9292108235561094
Ni 7.923806977439521 6.960599675825299 9.051018349891383 0.704089915849923 1.0094256426438035 0.5063139758155925
Ni 4.544515126913507 0.3337412482755518 10.376460848119434 0.514410636780798 -0.8896469452205582 -0.4325533969936744
Ni 8.22173787102816 7.282706757658646 4.777265637054269 0.02595322953065208 0.8776329514788177 0.5252375521929729
Ni 7.046618971213432 5.957655545090882 7.177617052572116 0.41009095422510017 -0.24150629104274537 -0.8747394319811065
Ni 2.482648503928763 5.144798169695433 2.5600667776334425 -0.04067665178375575 -0.7045383162412512 -1.2968487508233215
Ni 2.243337830954495 5.296337386436194 11.400784972588845 -0.45752395089608305 -0.3392691463165319 0.5857613206096428
Ni 1.0356995521339307 3.5450753178698347 3.7837014679024388 -0.018800934756586975 -0.4985325320979608 -0.9915222800008213
Ni 3.882307270005728 2.652290356553845 2.5879697121321685 -1.5818766192977853 0.1754554221602591 -0.39595657170624715
Ni 1.1114600819507086 3.437367357924208 8.146665495574489 -0.8592284808297008 -0.33052636712689526 -0.6263472124518051
Ni 3.308987531424621 2.73825518062036 7.114382203161355 0.38032914958163533 -0.5362117918162894 -0.06453391801732757
Ni 3.988435561624438 6.921471109796502 5.757036759717108 0.771624054146155 -0.34821221444243255 0.5569207422288667
Ni 0.721612464553447 7.802426715767822 11.580364209987737 0.7762587247046889 -2.4345500726177876 0.41516528342421405
P 9.47510482434688 5.630455394686269 8.017950670446952 -1.0031436662898336 -0.46963230412384277 -0.2892750737865922
P 8.658035000079654 1.4554283208600054 8.395153678385999 0.763418378406911 0.7763566837351339 -1.5711175810090683
P 1.6962551122859688 3.3424601585587688 10.27551731846338 0.16295086193534516 -0.47748496739904217 1.3020794030946414
P 4.089289213599823 6.174051948771255 3.631055575477475 0.5767115517025487 0.43000594798147235 0.11536385618500132
P 6.872065621089144 3.9022710093786572 10.61231259217097 0.06589994512691877 0.7658609264101327 -0.6786694188942892
P 6.339154524594853 7.712630742080854 10.372687801242039 -0.5638925455610094 -0.05638969164363837 -0.6650220033141837
P 2.336093413116031 8.339123569114554 5.725718473352945 -1.0570113628425666 0.5603894175037575 0.8223120674193257
P 7.077585917553161 4.119457247222489 1.4840811438863364 0.441420103355685 0.08271907356678657 0.6386067465454486
Ni 5.462801745300236 3.1873258345912308 0.46079197452766435 -0.09376581829925143 -1.4745225207911379 -0.7886609550237837
Ni 1.4115153570824432 0.9318953702375812 7.185589838346244 -0.7333765806291821 0.6064712994634845 -1.3854255687224657
Ni 6.950858387809313 0.5092069930369387 9.159164803976031 -0.28627793883148117 0.5242695318527487 0.803995528498325
Ni 2.3943504915862843 1.3455051938352542 9.292357171740552 1.4910056060478258 1.0841930654636813 -0.6579100748597508
Ni 6.403094777620565 2.541495688383209 2.8521229391856013 0.35453507133666684 -1.3862884309433932 -0.5370725971546879
Ni 4.093447191149982 6.742696232246833 10.490294108180985 0.5541835458033617 0.8425723603302585 -0.025325109028349935
Ni 8.235764236344748 7.1137004037857725 13.94098696708363 1.0004038987611674 0.7211455857806289 -0.69523066568708
Ni 7.6260122621549264 3.7387662589891826 8.250493281710206 -0.05443950989580302 -0.8789974359265119 -0.3321263646241635
Ni 3.373581440309747 8.318315524256548 12.599107747557403 -0.07617844423479138 0.004671437333740341 -0.4958223322556493
Ni -0.1093085089458299 4.8797679543639525 10.00141127309501 0.8947546987607687 -0.28812090557749087 0.6062895224699816
Ni 8.415428812147509 2.0699374571377835 6.108527488141824 0.7901923040666456 1.9326884761465943 -0.13345645202065404
Ni 3.6786480770303207 2.31991543059554 11.343516548605955 -0.5458516288988986 0.915408113345062 -0.33471957927263646
Ni 1.3032808410278445 3.225982315832674 12.629136879309943 0.15222447665677652 0.36857072349412656 -0.3597037600217999
Ni 2.872372652997024 8.353612940664892 8.02216311931873 1.4631713574443768 -0.833675572061261 -0.4306983460628066
Ni 5.693651206316537 7.989027306523252 3.7095705384573936 -0.8193961793241114 -0.20272865605391538 -0.3901487067752184
Ni 3.254080439233863 8.425115628841876 3.7052527783638216 -0.3610692729107588 0.057439987285023655 -0.19323074386580913
Ni 3.2971218618655405 4.266784015091473 9.165103993743095 0.4833573670194192 0.2751067527060101 0.842019316040266
Ni 7.382207705147188 5.966507134853777 11.419507673684247 0.5548384057785412 0.5539937983900588 0.03494077774124305
Ni 0.8783909145784822 0.08366704214960374 0.3177793353308114 -0.5069094433077463 -0.7379734559712452 0.4738442853226614
Ni 4.783353715100421 0.48189416452240597 1.672097081148468 -0.023506310652056293 -0.5850234140023537 -0.18105194241143013
Ni 6.297393178021195 5.6617854831701155 0.14173528670491525 -1.2280226331885433 -0.07088994214234244 1.2867378876415647
Ni 7.872522228136349 8.882157252876155 11.484389372718589 -0.08359813373763023 1.0721237930039729 0.13864776641360638
Ni 0.029117644970803075 4.923345011658205 5.8420492435106715 0.13713518642382191 -0.11352346054215288 1.380002083714049
Ni 8.306005005570922 0.12405117214169156 2.374760788621798 -0.7494632017783995 -0.27346793155100646 0.48053121042453373
P 8.41610062511413 1.899487613242037 3.743759463470816 0.964218707089862 0.5349049000794078 -0.6049710607688742
P 1.8418660335239916 3.205891476709303 1.5608947859210587 0.6802300785131898 -0.18384287489300596 -0.1620013535378823
P 4.506194552155374 1.0684368164262377 8.119201055214786 -0.36373962065407034 -0.046916462045880486 0.6584968006011563
P 8.704081423953914 1.6471764515083174 12.546981416335234 -0.2934703428148623 -1.1584202995093726 -0.7857450669285694
P 6.52263209291086 7.876643891472096 1.6371782404253674 -0.5373975845942746 0.970685031540496 -0.42508254253792593
P 1.70261917836165 3.4620882593850935 5.789418144708178 0.9590654450236966 -0.5008699219818858 1.3226582556872577
P 6.724566360701703 3.975489544186604 6.152801778352785 1.150269131157148 -0.3523547758558964 -0.06382943575113523
P 2.4052175202490385 8.341257029211251 10.38873868401209 0.9875442691896797 0.9916847737206146 0.15236228778622146
