# total energy = -381171.95896394015 ev
CRYSTAL
PRIMVEC
9.17946878687316 0.00000000000000 0.00000000000000
0.00000000000000 9.17946878687316 0.00000000000000
0.00000000000000 0.00000000000000 13.43508044451072
PRIMCOORD
 96 1
Ni 4.998431864855246 1.387825522124382 2.199927615194142 1.470071941218952 0.9965058492583418 1.7322401314864233
Ni 6.3523667883363295 3.5901728452823307 5.47108730078234 1.7448809601788853 -2.2021146335280593 -2.7371203208513895
Ni 8.257124913927338 0.32900776527452885 5.783547237732309 0.06971186267384122 -1.3442665779856526 -1.260698269044693
Ni 4.6514387664491315 4.641075146224785 9.282297163949648 -2.692055567302267 1.6914295252279645 -0.04884427519621266
Ni 2.0489033234500935 0.9185068230897149 8.157471683176654 1.4984101260420128 0.25950324184079826 -0.3716300791457406
Ni 0.6171127357238465 7.004825068501136 6.523631808685057 -2.1875807015779425 0.19153278733809595 -1.010008768840783
Ni 1.7102727210797437 7.204818154265376 2.967916853215082 1.0210418867264932 -0.2891681158950826 0.3588316418294917
Ni 2.7768810930619288 1.4972172512772004 3.120257480778591 0.4220242153275764 0.8095113161102317 0.5621603933612512
Ni 6.524959159867024 0.3555401017638555 0.45115161242173274 0.0002702229422511475 -1.1225030167874734 -0.6046905534139779
Ni 5.002213805982288 6.9869801812415 5.690508732166447 -0.49634195220454513 -1.824379469925845 1.050301554922559
Ni 4.462892478222322 5.845467344218869 12.537065990128998 0.884929999360863 1.156893321341885 -0.7259005839671112
Ni 3.964548298984482 0.8010068691856436 10.85069476979341 0.6868267578941011 0.24846343908686888 0.07474788243585191
Ni 0.6339974505517137 4.464792628254598 11.179881534708661 2.9138900909476977 -0.3007915590666239 1.2557265268617148
Ni 1.958017403307268 3.320746257855599 4.718561795826001 -0.3850021295772724 -1.034535550337554 -0.27153086242929364
Ni 8.85333140956177 8.588209992981113 0.5747256208009588 -0.4103472932102804 0.9445695654003667 0.8101456072601209
Ni 5.403558538886502 7.117750893124612 8.084935521074987 -0.41484569530126614 -0.05016865043459102 0.4555532003229574
Ni 8.041104475716944 1.9041522806531825 12.749152108031018 -0.5143098495368755 -1.0896857131471362 1.2644176268778096
Ni 7.936587044473008 1.4114442952308857 2.1125996571407373 0.8837277515226458 -1.8586931556060504 -0.7579912938540687
Ni 3.606457222853624 2.643007720739641 9.347632032813053 -0.8785819456556482 -0.7988497226313275 -0.6208571358715114
Ni 7.971505743616863 6.378757761006829 2.3889181897086913 -0.7948352021552956 -0.09242807332443437 -1.207941803278268
Ni 4.121085779662757 8.478965135328375 4.055150573542779 0.3497281368663267 1.6527958720161666 -0.991685287941247
Ni 6.180398620680972 1.5291801614819593 11.097457248864155 0.29119697339965334 -0.6891332945400906 0.12712382493440688
Ni 1.044605185376554 0.1279764815941033 3.922210753192871 -0.7112229273502784 -0.08789804666456474 0.7541816902999915
Ni 4.8737196023504055 2.4233889307773038 6.797451689857911 -0.08275044102535425 0.46561546965496586 -0.3528186028661924
P 6.93923776424697 4.956683640957704 3.8150927784506554 0.3752288522405925 0.7950601736819082 0.18650833754031104
Ni 1.5698360285976622 7.337883733337227 0.5544775486212755 1.0966477462872661 -0.5980069707462153 0.29391437233081635
P 6.351788481804767 2.318853140595858 0.8606082418647015 0.49979391530888767 3.7534961695607807 -0.38626582678104443
Ni 3.0374035957963526 1.2702457068421429 5.772475880466956 -0.2746185002156819 0.025828788137645838 -1.4174789976135846
P 3.650839954283839 7.033051934922627 1.5591676500106517 -0.9661981994137362 0.2672474045625914 -0.11122129477153749
P 4.734953573181726 2.136668224216234 4.214664955938287 -0.7209380977555132 0.10935210277328264 1.7895721324386729
P 8.625891712220211 8.00170619582067 9.814460341974502 0.07291365744059057 0.16981673581724302 0.8482123322248553
Ni 2.0588171497054466 7.405765904780131 8.046820530910656 1.46176187869136 0.06455294418072109 0.7138187131019126
Ni 0.2894451728875413 2.225121585138996 6.510411537784168 0.16255054117313295 0.6683119869193651 0.8248332911792826
Ni 9.148488047908646 9.105959569166933 7.849647377947939 -0.3370055470933357 -1.3871165832716434 2.2466230003530794
Ni 2.701003604333457 3.0444442483314043 11.465873391450586 0.6410436381217153 1.0261216152422457 0.6672043556774833
Ni 0.07067548378503755 4.730868709585771 4.208995716035226 -0.22209060552029494 -0.18593292465281527 -0.7407787866305242
Ni 3.283202230647826 8.179035173228922 12.368886189228812 -0.9079809676430557 -1.579436899508041 -0.7824630537431879
Ni 6.4669724557419626 8.524394326196656 9.743429612748647 -0.1173772870706043 -0.13220663877395294 0.5297575515505134
Ni 4.375880293894088 2.2011539922198042 13.208792893157334 1.5710126800000879 -1.5766331115106589 -2.167666736262835
Ni 6.708034484715879 5.212487896752079 9.574604495194984 0.6673272544085926 -0.12096603286312717 0.8987450508670844
Ni 2.7326544126005476 5.643399698516009 10.862718955915527 0.5416589309737898 0.6620618922445953 0.40718637898379545
Ni 8.20410430239871 5.912963977974066 11.250616685040605 -1.3609183276097208 1.689669605114064 0.8438926218035789
Ni 2.5267405694893608 5.024813658056992 0.12444881175157345 -0.14041668538857108 0.717566610180119 -0.9893728377579865
Ni 2.5730326304206073 2.8823531890563805 0.8840002820929573 0.015831310605301768 -0.8368953645501392 1.745116987449091
Ni 7.32346278792319 7.123276933315097 13.41668766562584 -0.42680389610440694 -1.3635917606768255 -0.170298560549668
Ni 0.7688998413214319 4.792793405806708 6.904798233372125 -0.06610100539413132 -1.0903122909875416 -0.7333848081592983
Ni 0.8509560304688645 5.239723380548036 1.8179680844066457 -0.9481153737700961 -0.6261353535513151 0.4146536338951181
Ni 6.488278002722217 7.509420465961101 4.1423977522711395 1.374223015138427 0.41854756963288564 0.3205846825331511
Ni 1.5089761507522998 0.4900844932521302 1.43857421513616 -1.0089636154057207 0.45422059755446287 0.5899766442425709
Ni 2.3972733421694525 1.0112469959210417 12.711426327341895 -2.3497046967366177 0.7766400193035076 -1.207717603082604
Ni 5.738728481536233 0.1743667628410276 5.92391692009248 -0.579363644613415 -0.06892896176122967 1.0968565198639626
Ni 5.480106128834085 8.229329482537329 12.415236998760088 0.4239723401928827 -0.4924919823308357 -1.5629898096956114
Ni 5.380196790905138 3.7179877682263465 11.626678407153042 0.1299057585549182 0.3214678564690528 -0.6722851126345003
Ni 8.846795627808243 7.087008852264263 4.4065856168794175 0.8680784750211631 1.1608425357976202 0.3803687445703191
Ni 5.558324382095071 6.030718203162649 1.3078044211999234 1.1590332505030234 0.3040961979598246 -0.5962362519990377
Ni 5.785543772186512 4.948247709171898 7.015772502938297 -0.5730716409571164 0.7887452872074738 2.3290880489275305
P 0.7190645054507723 2.8134704555191856 2.370324257798651 1.3778428712792012 -0.2722535995279311 0.7779831635949633
Ni 7.859699814181492 5.505349667910216 5.973156508440942 -0.7943454070030708 0.18830271043657248 -0.8017769235804514
P 0.0782595608703827 5.52570972960871 13.280267908670929 0.06305836191306559 1.1686738589165808 -1.0390835747195524
Ni 7.870540766781096 8.96778102599857 11.826874359176767 -0.019835289558372292 -1.4636585814934406 -0.5083001530076858
P 0.7538803945445718 2.050261884825827 11.622271344203787 -0.5105388125302175 -0.055399045595594915 -0.29896041939515605
P 2.0444237426976746 5.442415230126234 4.852025763841817 -0.3919317668175702 0.6254817791277164 -0.6069837203235288
P 7.026791537231747 7.687639851838584 6.539458130765477 0.18819292433158558 -0.09560801371431277 -0.6521094090175737
Ni 2.5735650396083947 3.2367908366227653 7.105249374627237 0.5727181142724395 -0.41259366604229586 -0.140600519264603
Ni 5.592416929050979 8.147421082836852 2.107077288737756 -0.2830846287051641 0.8210092894475022 -0.5336463450819584
Ni 0.7094793041768466 6.253944524345684 9.544388437894295 -0.41548384310589737 1.1465952818499867 0.35773660899310006
Ni 6.781534491036815 1.1104127968808382 4.2580737457336015 -1.3390526378848808 0.25308165458517057 -2.2587745481139487
Ni 8.509707176188725 1.0956705700603777 9.886943263157388 -0.013163276854835397 0.19697992649559626 0.2858490788241787
Ni 2.2325294164242457 4.814456952068405 8.727791158975235 0.3667025599371362 -0.31339613520451187 0.6337275640762763
Ni 2.635434659016802 7.459392361246588 5.3704316720436145 -2.1958264865265025 -1.4267496242822333 -1.451272549124262
Ni 4.1354332893267545 4.515656064625812 5.126396413139968 -0.8619931880590316 0.09815006340987613 1.032834508486047
Ni 3.7062747660950217 0.33994510229605973 0.8780253658803562 0.1779257380776226 -3.3767117999076097 0.7419902904401221
Ni 5.972878370537667 2.849059255882153 9.065172435648034 0.7562084909220331 -0.47220469283670935 1.2940529332457391
Ni 8.668153986368031 2.326095741443519 4.140544417529514 1.4869005827405166 0.4077229682135559 1.0361224352086993
Ni 1.7787974553354948 0.18947525046481067 10.402608181988958 -0.9286670352374975 0.35315156072557885 0.211011721998314
Ni 3.7753961658198456 8.514829319753991 6.804640131839918 0.33428531994869526 1.4526491177568144 2.999940285770246
Ni 0.41314585793558584 3.3515800934034985 0.2559300145163192 -0.2285134783275032 0.3369039885184649 -0.7610059123106765
Ni 8.766998505921404 4.242401638728264 8.975265046874487 -0.8707639922731262 0.07015872040327271 -1.3540226289311519
Ni 7.932291053095688 3.3254002485143617 11.087031208252274 -1.802884533276863 0.4979617471961553 -1.172521514797445
Ni 2.975332028075336 4.881439535573324 2.67671105822034 -0.9506180855872918 -0.48936577799702813 -0.11844712309601535
Ni 4.657800138296316 6.169888128956545 3.4071232229459896 0.37436881823314233 1.3926488259437824 1.1773071091115466
Ni 7.193600843446818 1.054601626850702 7.787805296945796 -0.9781173194488252 1.0288536694614283 0.17975379242529688
Ni 7.255461283386472 4.55335614280242 13.434382009597895 -0.34308594895946076 -0.35228047097453524 -0.45069612934097214
Ni 7.864041702902585 6.493519479381297 8.095817781283987 0.816080227577001 1.009994627773396 0.5029041788030952
Ni 4.876400007226852 0.8791314918653284 8.411717265176438 -0.5489978878373641 -2.117728970892127 0.9762463276783575
Ni 1.0551432155072442 7.5202063417481755 11.729295688364703 -1.0791896987118188 -0.6637981582094117 -0.4018382272980047
Ni 3.606796863197557 7.862673962058097 9.635384511662181 0.8836439335595879 0.35026009811039677 0.8747006083233709
Ni 5.126485453986891 3.9611243571388832 2.9837697957548923 1.1669357931795517 -1.4348002625008516 -0.2837711132492274
P 1.2793333809095497 -0.0545379777138238 6.256098945662472 1.4528725466215302 0.3758829408848236 -1.4365272724942872
Ni 1.1016188658135897 2.7440002359816744 9.567403201956722 1.288183876059472 -1.1068874217374034 -0.635798330562376
P 3.6879984438039037 5.547272301714103 7.33376674160063 0.38528469381469777 0.32379444771970045 -0.17462906960422184
Ni 4.819790223415036 4.135699493920648 0.6212407428229506 -0.2135319173170064 -1.0250980590737375 0.29226706653538054
P 5.198360694338202 6.521672910052748 10.485744794608848 -0.42920067847135757 0.521728767708766 0.4861141038289499
P 8.071148876951916 8.58373959169745 2.9815401027943134 0.5482342701984622 0.25824083018860683 -0.3531168508329015
P 7.328171855394483 3.26550421488827 7.55017914312686 1.131713736752464 0.45374314369741214 -1.4693813429098306
Ni 7.868264258529866 3.650454416596131 2.1975354456366003 -0.9024777784366392 1.9993672084210663 -0.029744064031652
