# total energy = -340890.0656627149 ev
CRYSTAL
PRIMVEC
9.07089235911279 0.00000000000000 0.00000000000000
0.00000000000000 9.07089235911279 0.00000000000000
0.00000000000000 0.00000000000000 13.27616786741600
PRIMCOORD
 96 1
Ni 6.341941477070133 2.1298273409870414 11.237678866502137 0.24663332785666556 -1.011320288563355 1.0797954506166179
Ni 4.521622047998093 0.03870186855533399 5.981033354643528 0.7721364750061992 -0.780379688851598 -0.6686871108705967
Ni 2.6898188694320666 1.2975639130068115 4.6706087307105095 0.7844955107921844 0.7099096078554936 1.0449130369171358
Ni 3.444508027528732 4.276680746587208 5.05435645254542 -0.5267424188732734 -0.17428942687661594 -0.2668735661629404
Ni 5.205921082814069 4.697134740698876 2.5745541354707195 -0.7193594404144836 -1.6465956567427253 -0.46767672305936875
Ni 7.078370929217825 6.059219909748929 2.7850079048309366 1.4919407162675855 1.2849360585461356 0.04323669920144812
Ni 5.14118212535862 4.392144133087196 11.422469267719862 -1.092434736647183 0.13214004720207564 0.7999568396525771
Ni 5.861256758914163 7.925873456052638 12.364705471166342 -1.138836463840174 0.7758748590027089 0.5794263795305505
Ni 1.92567784168869 6.127369522662308 0.4669922064172836 0.11584902335153596 1.2612006626024086 -0.01793832964597556
Ni 2.630894353861015 1.5766299107813508 0.2427788007162828 0.054861427924570036 0.5971253394722104 0.5920276132343287
Ni 0.658561285357647 9.058755321616031 4.540621938748575 -0.7160679141474056 0.4387016759832573 -0.24860536398137184
Ni 8.637022331707639 2.4144175120963673 1.5179575660127738 0.7855715174651825 0.6611532643873969 0.5180590321666626
Ni 7.007636112034472 0.8754082195230487 5.007053564029422 -1.1513600502284818 -0.13307438609088693 -1.1333507581352544
Ni 0.8880838842488782 7.641473773678994 2.3491515358055306 -0.11629408130875456 -1.350975357464396 0.12184303615144175
Ni 7.684778212924099 3.821403597414385 3.9396499336337687 0.5465273148096845 0.3124363423944039 -0.6224964712471471
Ni 7.328228654187749 3.923333212788755 12.582607350091738 1.0057227398709194 -0.17422026420157738 0.7621261419580487
Ni 7.6081291740424195 -0.33903910848106145 6.848060069796556 1.0156060604229025 0.2628269068973925 1.615326928536431
Ni 6.787803040164946 0.9824592606196197 0.5189321350133186 -0.479174182176007 -1.3386042374935527 -0.3253219401078204
Ni 2.05979098250119 6.487592792729674 9.563806270333416 -0.7246481996172488 0.730534997415329 -1.5751907226371775
Ni -0.10367757629655953 5.036422391625542 1.4529836724499832 0.4478278066542416 -0.18831813705554018 -0.0694642654394094
Ni 6.280132417787321 2.0893802327771707 7.369587387061242 0.8970604640758099 -0.3063556834179627 -1.6684279221264684
Ni 3.6449838154960683 4.454506516792704 13.695428937609352 -0.39637951817627864 -0.8772511426593665 0.34014692093579485
Ni 5.838053416729627 5.391212197279875 4.718907603187361 0.3639597070846764 1.78860668320161 1.2124872565571052
Ni 5.23954688010808 2.961111112612334 9.246452036686739 0.050692384148544954 -0.5083510608502794 0.34470034463443217
P 0.152963361842088 5.883135750841099 12.49653818968596 0.08891903172991138 -0.7233467071970059 0.4232447179982388
P 4.219325495362492 6.081987849109048 12.526767844949521 0.3340181823302376 1.3543633001000224 -0.2073198749690236
P 2.316125324484311 8.629348356927297 1.0900237142133153 0.7771123309542358 -0.6858636226498834 0.17616864617719982
P 6.380964455208474 7.509474150743349 5.607069497108947 -2.28484604839002 0.19760778988758226 0.19625050452873943
P 4.744648073913341 1.209367628385916 12.748731669391036 1.1605265472190982 -1.493287202993151 0.3773857506825952
P 3.849351016206628 5.859497005832146 8.471787866930741 1.0138762222159892 0.46013027817067853 -1.1821963188830478
P 4.835683547785121 1.096344311881097 4.024749415666001 -0.5418306806649635 -0.33202583449055717 -0.09536607290683576
P 0.12455695590577245 5.740886019747313 3.628469349201632 0.45174642498235756 -0.71326566881192 -0.8998547389914954
Ni 1.7183988845898437 1.1164635507260157 2.588096070399294 -0.7079941360003356 0.6715292083050822 -1.0659950543984158
Ni 1.976756035528067 6.451100593508254 4.653217109142718 -0.5699395230860377 0.2583693853466712 0.1872364739555872
Ni 5.914058422266856 5.588649236368471 9.430672785875853 0.003942015366883533 0.43679674565106064 -1.281406448126322
Ni 8.664924396039005 2.2749253322238867 9.995825651968651 0.4259713729007825 1.0268047573521994 0.9609035266736999
Ni 2.245218160349626 5.321711021432369 6.828662873968796 -1.1521149261166352 -0.008086633662876395 1.9083866661764357
Ni 0.4577408034876476 0.16196712941533706 9.111885351265471 0.4342534104039166 -0.6185012340448252 0.13578330038161776
Ni 1.2169599651366811 0.9272719526248107 11.513583658353566 0.20973465505810332 1.5355767077899811 0.01437040978905912
Ni 4.2818783678036825 6.615764499167321 1.630366783117322 -0.540507848088482 1.4351370770149798 -1.8661246721834313
Ni 5.6671033827930435 7.5192344307240235 7.883786330537464 -0.7880528891261396 0.7031036406772536 0.707093478562937
Ni 5.4066145721936145 3.09983226664991 4.793413190248005 0.24295356501223317 -1.4702591175290938 0.5847943287106832
Ni 0.7690411236964989 7.604909007320171 7.047905430757706 -0.6914958812349962 -0.8658935515547022 0.24039583158738595
Ni 5.230811610943221 4.351570032386871 7.160155907249186 -0.8264001214457702 0.5465728233356393 0.2261652898103008
Ni 8.129723615909203 7.284416244980824 9.200715691249423 -0.3562014032954962 -0.1408252336808994 -0.2595153260256563
Ni 4.550676115635729 0.30771731779958944 10.430049260402495 0.39483788472077164 0.7430521560457332 -0.5855934275732109
Ni 8.281588492708856 7.272342887495437 4.807857678948028 0.3245842906108475 -0.3897627841907094 0.0797713037923723
Ni 7.3000091086302445 6.037368130498518 6.908917592490174 0.6137449503067623 -0.5860413137439068 0.587133261256505
Ni 2.6444462667709825 5.048704379630962 2.745497819782779 -1.3648279470767721 -0.4283951518509267 -1.209025266150434
Ni 2.424386422597073 5.210964498863562 11.468737167438654 0.0459659252071531 -0.21326220859538753 0.587925161030181
Ni 1.2081974832952964 3.3668067651547124 3.6862872159272912 -0.5419821186411634 -0.12819186118760503 0.19933788520481155
Ni 3.8447430029815517 2.743182928099631 2.913999619921236 -1.0716990467617284 -0.11707132579441129 -0.6804159692717507
Ni 1.145100357323585 3.436407720816147 8.30975270582409 -0.9620798063699884 -0.07179137091068927 -0.7592426497626666
Ni 3.693758002722907 2.1443679811441223 6.935390084214706 0.7353815268743529 1.4753010508283753 -0.5014849298580654
Ni 4.145479362162995 6.497870113564341 6.1224376785865715 0.3268643448942758 1.1313159870934129 -0.12256114526438892
Ni 0.5875507130521633 7.630225867381564 11.285167708307728 1.0524792793001683 -1.2736100920103548 -0.13478031303840016
P 0.34395916039696944 5.795701421162933 8.2247847517284 -0.048188386779768624 -0.8083121535958079 -1.3901540845463864
P 8.407238491121758 1.5545785719030834 7.8600487128038 0.4021817266803525 0.5714683010257384 -0.38558139911951017
P 1.6431558339953434 3.290910610323587 10.565227323956382 -0.7592426497626666 -1.5966203532658632 0.6642164766937529
P 4.039885106349784 6.247232291867338 3.701568040885881 0.25660560857802905 0.023443061514288658 2.2337785402902433
P 7.012162487229969 4.030632796330931 10.360189784314063 0.5536274161895754 -0.3647649765947911 0.09643693737351133
P 6.295244524151448 7.782898053584824 10.23356194372466 0.2825521532404618 0.06678826126914304 -0.5409037979753201
P 2.286481648855278 8.340322519544227 5.731958447668337 1.9913497374332285 -0.1716728151893753 0.04989405661696568
P 7.041688241260723 3.9110421538911604 1.7583353015702423 -0.45044416123116615 1.2573270385796154 -1.1922750432752887
Ni 5.33716782169916 2.962762014988247 0.6526135013582721 0.2030482441768632 -0.16395102106508538 -0.22682734887433195
Ni 1.447832312783604 0.9062274827780065 6.855122666444281 -0.3028818659367493 0.7466018210702045 0.7931421307235889
Ni 7.026984325044486 0.6908962946951052 9.298030036684976 -1.823901244737846 -1.054156667002591 -0.3908886702650365
Ni 2.58614764276003 1.5384958800761939 9.05915262669331 0.2256947779317855 -0.3073874671165867 1.125329687602991
Ni 6.344163845653092 2.043517801938618 2.7258892721673322 0.7390006116841789 -0.5215053388440501 0.19475180849602586
Ni 4.199360461684554 7.01204456563169 10.452286552570357 0.1000025432375826 -0.32760867925946807 0.24904193729815824
Ni 8.166741926876792 7.650535594962166 0.18284197357846232 -0.5649556967182012 -1.1620067313090503 0.5598978225793196
Ni 7.8913768531097945 4.033471985581814 8.362021000716872 -0.8471121571821411 -0.11516151036620811 -1.1840642253297222
Ni 3.357418391753229 8.342971220059427 12.378459664971821 -0.8724773754198071 -0.0699201220299054 0.8153898863781956
Ni 0.15230481507015783 5.021700333624955 10.252560020296706 -0.4159736382581223 -0.4369396989868281 1.1089353054053674
Ni 8.898908059702073 2.323699519450725 5.797344159735888 0.06280793646515635 0.6834293021767779 0.551132931902496
Ni 3.624030054571018 2.3635570196691984 11.498621221710334 -0.7866896902300258 1.7943685253860515 -1.8572769919848142
Ni 0.843150312769081 3.538019854964381 12.646373000816771 0.16107138552444517 0.2381474018728415 0.01645223201875231
Ni 3.1856610484130403 8.428609513086876 7.927133402975793 -1.1903500583384337 -1.633622127301193 0.5574830424902399
Ni 5.498203370488089 8.041817599837918 3.5001425305077856 0.91849112314576 0.05343780810416604 1.2155502117531451
Ni 3.116840189478685 8.215933375143697 3.2369424302371446 -0.7037248192010203 0.2730043616510266 0.616387530135932
Ni 3.14706440220694 3.9560065664043536 9.369336320075377 1.9657736887363373 1.2878894847475044 -0.7335555294092077
Ni 7.2690410827436125 6.142200431368999 11.527868499351303 0.4805381524030692 -0.14668914866084415 -1.0974905539035356
Ni 0.3764683308641943 0.3782435044629096 0.5117071693956549 0.22687799960660926 0.2175448951311415 0.3266434871327213
Ni 4.467849799182639 0.5239619447245483 1.7322211100866367 0.26374479072597157 -0.1981477215514523 -0.711058376747956
Ni 6.412975633695272 5.913314609108478 0.46014640409254953 -0.993350848569128 -1.0143076533264532 0.11119944039466656
Ni 7.950446502955652 9.03801926210319 11.41470276983933 -1.2407886746049601 1.2584686083832262 0.32831187597407974
Ni 9.105270856691208 4.824136302045905 5.663971203724897 0.5125085346620786 0.29553365310179425 0.6443557332140838
Ni 8.017516679700165 8.7936675686837 2.7487506417168586 -1.377800190966724 0.8723061399492654 -0.4099294889465715
P 8.490300650771408 1.796726038523962 3.702590330434042 0.9685862400299384 -1.4728330489038572 -0.8959559181577215
P 1.9023202943371722 3.4304753573334708 1.3665689110523258 -0.3480875159391102 -0.6815809361141294 1.1347687215287037
P 4.6848073982325795 0.7664613619618303 8.198750384095938 1.790927875135619 0.6813266540114783 0.8640490421467959
P 8.376932640363925 1.9065926845517607 12.58421380509599 -0.25513828000388317 -0.7564226638153683 -1.0053273042047137
P 6.09956723814487 7.872817807719035 1.3963876549003431 1.9923344699440009 0.7431735121149459 0.09920241593379044
P 1.9475659045078013 3.1580855361999864 6.308768317295672 -0.7004258367347743 0.3146878574327419 -1.6783441527989158
P 7.01555500090355 3.9183623638766654 6.046046253042673 0.574912550820597 0.14818784469355767 0.776786572183701
P 2.2872708164745332 8.650592386401957 10.22312678936614 1.2543687272822397 -0.7054160908605142 -0.16498203343276105
