# total energy = -340886.6750480934 ev
CRYSTAL
PRIMVEC
9.12699386510223 0.00000000000000 0.00000000000000
0.00000000000000 9.12699386510223 0.00000000000000
0.00000000000000 0.00000000000000 13.35827809225941
PRIMCOORD
 96 1
Ni 6.838117284304294 1.9219806411254479 11.510440887153765 -0.15383578700795442 0.9319649892624788 -1.2590807880459285
Ni 4.938251349532889 0.5515059113529082 5.98098211526118 -1.11571453311073 -0.8031915445397909 -0.6870429876699652
Ni 2.868331263383639 2.0950010655388125 4.823193725632367 0.5633675262954749 -1.3611998634058815 -1.0204729015969005
Ni 3.4016397741881814 4.490791343873259 4.470855250976381 -0.9968179811821221 1.252523703653701 0.46483642539709624
Ni 3.8292211870128527 3.177508183624327 2.495085583673916 -0.2973272546671073 -1.2873598374962798 0.019946361214939843
Ni 5.4883261482335834 4.768772198774237 2.511102545366326 0.03612039987164102 0.383131909137753 0.7995148670191521
Ni 5.662076732163383 3.224932044216817 13.351652195270507 0.20194087004529737 -0.1470244205130758 0.6789545542348759
Ni 6.207715811801732 8.10843968400495 12.377606622553914 -0.5475855808708698 0.48544047480069297 -0.6605626819912496
Ni 2.1733928166221266 6.712803657296039 13.520180313259 0.3502822095975839 -0.40037526959923303 -0.4583981259709202
Ni 1.1751095987574558 8.888907191122932 0.050947792958687656 -0.744487345830363 0.5776859998006761 0.535103132133143
Ni 8.271703351879944 0.3619263818061804 6.834241962670813 0.45180504613443473 -0.6901306254563534 -0.4589288016634096
Ni 9.134569360427683 2.2979945381018574 1.230921166795 -0.20534603907210439 0.421703598763364 0.4763935341070763
Ni 7.0153817609069415 1.2355302987424994 4.903931114162231 -0.6329801443872906 -0.9219466857945283 -1.6109061737609163
Ni 0.8038298735457358 7.639211797761584 2.4194246291820707 0.06234925166118295 0.11877365319749866 -0.7498645509818764
Ni 7.560053379186012 4.280487149151903 3.8939918123170614 1.4326911865776486 -1.7346675099809934 0.15103302745183667
Ni 7.9560097579550675 4.1176707039807265 12.726110847049219 -1.3176070664165953 0.07098018786330357 -0.9763697406300991
Ni 8.715658591860683 7.458771127262443 9.055029433504773 -0.30055296069325654 -0.0993026889570806 -0.5255458274620111
Ni 6.955189235770783 1.2740188322526094 0.31720867492147925 0.5760947440541563 -1.496275081976881 0.6950026088366741
Ni 2.069007386753706 7.001271428251823 9.189119577900582 0.7899537056932783 -1.7784446550669435 -0.5774623138256442
Ni 0.22112607145432667 5.221562368903847 1.3158943932195852 0.058765390964666535 -1.0259334104908395 -0.6122369983026682
Ni 6.39301204308517 2.0831451003906896 6.8943277019776925 0.8569363423614145 1.8055589947852324 1.4850820414745391
Ni 4.044663879331124 4.699388790724948 0.5509418631264617 -1.6564090432887217 0.7940229906666454 -0.4122882189867351
Ni 6.2217987634749825 6.000259239194475 4.638715273007337 -0.5854185925582435 0.550445161806852 0.4628391924614093
Ni 5.609012389306428 3.0340774736145137 9.322474999282981 0.2848358070683159 -0.5069194706100753 -0.13954431008594678
P 0.21799733792640022 5.879646014073273 12.494785359849681 1.3713716617325609 -0.7598931388624719 -0.8977227802501572
P 4.614845445715663 6.586604711874107 12.696522045345061 -1.0243845779464809 -1.1016133178226577 -1.5373255721602879
P 2.8016585725391154 8.734870914136893 1.3722289380107762 0.10218823803499175 -0.5088843076459301 0.09627701475687934
P 6.807404949644224 8.226232667993918 5.818559043529483 -2.074268585715647 -0.4056249480339466 0.7220719542496402
P 4.840930212985983 1.2381953809774893 12.643917702983462 1.5925073595387542 0.6645419783539717 0.5839011274724525
P 3.91013198842787 6.169820532898726 8.002049053564518 0.00185196560707423 1.015410913692961 1.851915727672901
P 4.752608292479144 1.3134383191461751 3.788033801390118 -0.07514280388142543 -0.07547087664480552 -0.0330157928043883
P 0.31441216397353106 5.808254667353785 3.6098338079070387 0.7741049115864798 -0.33468898314501716 -0.04296956158299051
Ni 0.9813252630954548 -0.06747860441078903 4.327481128329092 -1.0045012087589926 1.520472762269007 0.5596075450324104
Ni 2.0061223984006924 6.808828760701273 4.705533995755148 -0.3897026203767353 -1.0896504890338266 -0.5668914802883334
Ni 6.080275595201858 5.727672437721164 9.037208977806767 0.507482542202397 -1.3381401533729405 0.6804684197762411
Ni 8.837211897359294 2.3932894819906547 10.27123332254662 0.7755167043323418 1.0516796662170083 0.07194615132099867
Ni 2.4298248387943002 5.445602689528147 6.659930068612753 0.05806527957384838 0.08032769051647455 0.3475203305817305
Ni 1.0941531623726617 0.08742564970041333 9.26420644447263 -0.23654663304462487 -0.30939035647922847 -0.33830729662389475
Ni 1.6583748017042952 0.9730562065718218 11.418469081764146 0.15107545065399786 1.5522346280616364 0.09452917882783719
Ni 4.484594114977512 7.162381125553332 1.3776521978191016 -1.0674119893506002 1.1751499535592276 1.7251765397714225
Ni 5.544137716271128 7.642570531537187 7.884162974237203 1.651810882395078 1.2053537308361175 -0.8663020998470305
Ni 5.2909183959712704 3.2668340734662635 4.556922803976224 1.2421012227687964 -0.2849144828250513 1.3591039001088012
Ni 0.6501632398148917 7.5330374770778965 6.719855172826016 0.48463366262868146 0.28743724924690495 -0.06086623935775323
Ni 5.212307597033026 5.108469786801932 6.773862334158569 0.4812670601492937 0.26456985773042824 -1.0261347278683681
Ni 1.0760086983892376 7.609348273539369 11.277645953927403 0.4548561742559327 -0.9288647530706002 0.5778978587011661
Ni 4.916793786743638 0.8427072169983478 10.521541131774686 -0.1831615325552652 -1.4308723882013552 -1.7673452027196723
Ni 8.17303142022763 7.614678438009348 4.390518537481162 1.1005195705378465 0.2785579444794042 0.4177561840798418
Ni 7.543159313374484 6.342576274487382 6.900779574004796 -0.6967633002815227 0.08861487022593126 -0.3099649980357759
Ni 2.3410283146017785 5.7146117093709226 2.3369375959109484 0.7677756269343423 -0.9172436238919042 0.9633242203000506
Ni 3.0893322950207756 5.572486159496739 11.196614676192175 -1.2900306994602235 0.8204577878194063 1.1951215115851483
Ni 1.0984154685498542 3.4102008945183884 3.3464762227214737 -0.6408081250721416 0.6989399962178673 1.0873130991499016
Ni 2.037373225704135 1.2856740035337124 2.4641478122631453 -0.3845257041614862 0.41379771365272605 0.18816309953491467
Ni 1.3502474857684832 3.8750569506570955 8.21632987955226 -0.3215071943474204 -1.529544128442656 0.38518133546761407
Ni 3.9414923396587778 3.2029633697660618 6.904399339807525 -0.8555006383561524 -1.3998504858985439 0.19356704415930534
Ni 4.3668102579824986 7.398377808259265 5.461077507779604 0.01176973894141844 -0.4445900164432343 1.3273646600239914
Ni 8.339808980775471 7.437514358340212 13.323506371310707 -0.4837193783445282 1.3988940355225457 1.2977110988236167
P 0.2960148822575412 5.729269661663367 7.882559361399232 0.5305918745263507 0.7492163758749162 0.04741397050758931
P 9.317474319294792 1.6220128577858037 8.241216453970571 -0.9734564236380461 2.2546008763522334 0.28648028465027436
P 2.1362094432476453 3.7656699281010915 10.729409331809336 -0.8212586864541468 -1.5101644383644635 -1.12720325047662
P 4.166372343726978 6.353373508336673 3.575636786954778 0.05423150765005499 0.07215955288338541 -0.13621396016113313
P 7.139983482386672 4.141775095017055 10.455337568419475 0.37630922978896486 -0.49803965162194236 -0.3198578316694556
P 6.866675648390881 7.9266025834306255 9.935740540634198 -2.625585351494175 0.26760324524011336 -0.461536928710218
P 2.462097889420752 8.603798153942753 5.884642130564484 0.6314685928387705 0.0007579612119470818 -0.02510193727395032
P 7.338459092941771 4.0698452556541955 1.4620905823978978 -0.4709777624081437 -0.3183203119790066 0.500384497705035
Ni 2.911848770563199 1.76335348617982 0.16625458379419336 -0.19691024959992537 0.1558250495238413 0.17896214976193695
Ni 1.7751546893642096 1.2838851127184452 6.873688830546245 0.37429657023431023 -0.1461841839999676 -0.04736177711341521
Ni 7.395073836447395 0.7471174712047892 9.055055901787243 -1.0807318463879583 0.16262073228943608 0.07952344944762434
Ni 2.8064776253475903 1.9255036607922495 9.030823732835538 0.6897326186869863 -0.695326567834996 0.8083736029613627
Ni 6.430962083951909 2.2463996412717284 2.5729114611319925 1.7664957102351835 1.071364546240445 0.1978268478769238
Ni 4.658645889707842 7.119904095684694 10.342499629448918 0.20779784304670665 1.4147793392942345 -0.04587105150050164
Ni 7.546654952059419 6.271677785441488 11.08898733807078 0.06649824083254999 -0.8018599702125608 1.091182866517953
Ni 7.900618031639474 4.163570356582657 8.205202248521783 -0.13074882328150386 -1.0075952743032839 0.1377036573327822
Ni 3.6106388087739085 8.597783464926115 12.308691429294539 -0.16820054037005872 -0.7191218704823809 0.9832785519347904
Ni 0.5052986790546784 5.387171674225391 10.047776216836072 0.044546419151807154 -1.2783203530018308 1.4963311320257973
Ni 8.884654011939697 2.527483674117558 5.805414346834851 -0.40326827487631195 0.4742410065404477 0.32636143711592824
Ni 4.038539666387021 2.8628003050466395 11.430892745936296 -0.8640698680824022 0.539944005165212 -0.31815961803142623
Ni 1.0664436087239317 3.7029400986453203 12.676365079194463 1.6961184460632013 -0.3730398150090737 -0.30713292790361946
Ni 3.4142441528406504 8.460029745156588 8.051248114481343 -0.1711151429136924 1.9686029306550161 -0.8848487525009663
Ni 5.960346894627316 8.422563434969488 3.4246215449679913 -0.8361793123197212 -0.3178366874743688 0.44503558862108517
Ni 3.2164987018019864 8.58587273781426 3.621589376121651 1.5860742023189007 0.40218146957003637 -0.6949375599266935
Ni 3.5899114055010934 4.257669664263291 9.164393638575888 0.35211180660715485 1.179523400036575 -0.24278130110042706
Ni 5.2979735622988295 4.859841344461664 11.558690740699225 1.4607776604012197 0.06653809293154993 -0.26627064247161886
Ni 8.007668543742884 0.12055755045807301 2.237779195480811 1.1720422611681816 0.39902826865303537 0.7196661730216252
Ni 4.954241842942828 0.8705974851273957 1.5875776222913065 -1.9006036797969073 -1.6728363356068094 -0.5366789612606951
Ni 6.348362788655135 5.9242313795456205 0.6455504570698098 0.5300961658368548 -0.033604832538638905 -2.024521853309823
Ni 8.306084738110103 8.990837459617339 11.179729737374602 0.1585293358288818 0.03432011343810863 0.11102949047570557
Ni 0.2354271582831129 4.997093079563641 5.6989488750439845 -0.6910320542247002 -0.07574392780053407 -0.37958558654739144
Ni 7.613145103024833 6.261537695156989 2.6129059486447512 -0.6464226430454415 0.9913770126722088 -1.198076480448414
P 8.704934373963034 1.7645126144121612 3.7324631859929975 0.9002056945730109 -0.1628927550039001 -1.5302293274351388
P 2.0274339292866554 3.507056554373567 1.3882860584765901 0.028235340696609438 0.24858016717039122 -0.7972324987428786
P 4.802715489294536 1.2356763306457865 8.037996631957432 -0.5807738946973804 0.7827124507498326 1.312155813494037
P 8.925552071854044 1.3209042002017288 12.621996488901273 -0.4575154662556508 1.241396483392288 -0.08368272303163651
P 6.4925601661572045 8.189177072534813 1.195656287549953 0.39211302959044086 -0.35494799050436937 0.6155539784910431
P 1.7563074468462163 3.395908021984162 6.075545074234751 1.2382137147889323 0.613516379235724 -0.7800310472629276
P 6.975067828605742 4.077219866770195 6.063428989758899 0.7966046353508925 0.15398336832941226 -0.4430419552298241
P 2.9533309580906946 8.736951868758736 10.276897534995367 0.05377436550797836 -0.07570176170868897 -0.5859793501577198
