# total energy = -340858.04539628833 ev
CRYSTAL
PRIMVEC
9.42646931119866 0.00000000000000 0.00000000000000
0.00000000000000 9.42646931119866 0.00000000000000
0.00000000000000 0.00000000000000 13.79659067906181
PRIMCOORD
 96 1
Ni 7.05332722186877 8.45923795523037 1.334578756416387 -0.3805160687814608 -0.5076483783562998 0.7104749934406602
Ni 1.292670560108237 5.391798926023904 9.907731820087413 -1.0172772774777386 0.7979740048945935 0.6403679522109295
Ni 6.723429082906982 0.2552254213688604 9.776857551095675 1.2038470643836041 -0.8633304188132163 -0.8299060777164998
Ni 4.720342105828255 8.943466246236117 11.172271911118592 -0.3655118820631447 0.5762040159385109 -0.8748772431105513
Ni 1.0336688952194153 9.168909681142257 7.836104986209785 -1.2748743034347592 -0.7005014271677161 1.1997250717954306
Ni 4.199586247074503 3.948974139681352 10.249818383590666 1.3982139787363854 1.5230600633802092 1.4456037808742586
Ni 1.5198013329826063 8.681080478941738 5.534267752004039 1.3623499178499248 -0.09655135146418856 -0.518687409779281
Ni 0.6230302205074366 2.905793937143811 1.173968690660501 -0.1724688287281094 0.30879925986244877 -0.007614322012148176
Ni 1.339256170381951 1.4599809600977443 13.12873839998795 -1.0038862008828129 1.0690433543064362 -1.4827055708225627
Ni 2.034203751565479 1.6835391011846312 6.995629689824385 -0.6881737588402987 1.0813373411824407 -0.05353062492828846
Ni 9.353922990094537 4.620525224567964 5.312915404685677 1.144966230886996 0.8441001098286947 0.0927548605362338
Ni 8.758905407800455 3.520965310365696 3.3505432329275133 -1.092922732027195 -0.6385105872872165 -0.7712167914054072
Ni 1.1990940013896707 4.854461908129833 3.0870564540426915 0.4635459887204469 1.0660675595075642 0.4899257642655562
Ni 4.728835354483984 4.721718370316308 7.149558274284843 -0.627546632076545 -0.6000052321231667 -1.5525740136789261
Ni 4.941326820851863 3.018006625265682 5.117872332614975 0.5636778584470421 1.1790433750763631 -0.11785731203081638
Ni 5.908265741338858 6.636601876061336 8.733476564766386 -0.8149312015742223 1.2351983250013758 0.6132088752976342
Ni 8.846910923283133 5.213572674820928 1.1988979308324683 1.4242751945998116 -0.7918414096342943 -1.3167364908861838
Ni 8.725884486556259 7.402050019615788 9.122015825329095 -1.2381463518861064 -1.7304473012520585 -1.6914002146519256
Ni 4.084639882914717 9.102000603497006 1.6317915564338057 2.6057330926549382 -2.71271232432067 1.6252747837777624
Ni 8.337957003837898 6.214701398720057 3.475526901380997 0.2750427322372941 -1.4302342403967239 0.5423819251827433
Ni 4.364935941491988 2.2713077287436905 7.286517329078214 1.9527474516799983 1.1098724725076563 -1.3755396770673216
Ni 6.291414004225415 0.9230681333130043 5.317868071548852 -0.05482466114936364 -0.9520586746885602 -0.5510095189507542
Ni 4.60450965357342 1.7830449089647447 3.078501933337836 0.32002495337493914 -0.6126188071221191 1.0546397772865967
Ni 7.0460028553809755 4.627387694070041 5.910638383610387 -0.4474699090941906 -0.22008257395133066 -0.9827599604271591
P 2.927474816065207 0.8256201237366041 11.463752475278577 -1.0393393994841005 1.2957408624711233 -1.6279705854423703
P 0.8499611522369649 6.713352187443079 4.676974692104004 0.3883772166970924 -0.3393179972765963 -1.7467174991669918
P 7.082624687819944 4.899115092238813 2.0819742690045926 -1.3805967798752545 -0.7713643727268651 1.983527156065016
P 3.1410503263791556 1.353980315110308 4.95977724881397 0.1814723177783004 -0.15353651059998075 -0.5551240553397601
P 0.11684956827032127 0.2613563968690675 2.5222233684417406 -0.6727682229185058 -0.5386283716775819 0.17032170047811956
P 6.882170822487989 6.68442235378666 6.721119597978397 0.42547694976286726 -0.5460735151017176 1.0545675292877643
P 3.9993774699390507 1.7221970509483906 1.0787057366206136 -1.6355363136047703 1.3572290516835914 0.0988144364667524
P 8.88338193221656 9.333316728650116 9.849192504352734 0.5420854769882472 1.2648233469566603 0.6311934848005128
Ni 2.190711417970673 3.3725267015069 11.1007363224409 -0.9283114516702914 -1.0900312694120131 0.8578927927374129
Ni 5.84586251592162 1.1353804967680536 0.36597229354626337 1.6642331673188304 -0.5916807714178713 -0.9925535494788131
Ni 5.844420266149894 8.398795435385155 13.082865430777913 -0.25156341816843125 0.2206677570308393 -0.016839954375474225
Ni 2.17789141999976 2.4782281518756792 3.0231365097478666 -0.08183769940309778 -0.7786431657764654 0.7201521115191081
Ni 3.107982272789478 4.195834512374192 1.8677822676117488 -0.06719758089241976 -1.1992882413683281 -1.8228185531966286
Ni 9.378412956806619 2.580571326853767 8.723129129639423 -0.016583872500610147 0.9664000310118969 -1.5900912938980938
Ni 2.484213959751804 5.54195315225822 12.083150677243223 0.703092327823344 -0.6618117239070022 -1.782856153871078
Ni 7.849995831070032 9.043170009867252 7.200082263346974 -1.663045831878949 0.3683907462728365 0.9193637555587005
Ni 2.0977664326815555 0.5618543213665327 1.4101498165141886 -3.377688819108899 0.9107567306159798 2.1285890535350824
Ni 7.255675807489073 2.8188064803235298 9.626212205821448 1.889734084072255 1.666599353558162 0.20241755257139976
Ni 0.8317859771724673 2.328450984405215 4.945828902492236 -1.2022321544880004 -0.15704040998818117 -0.0333880885421425
Ni 2.6200682323670934 3.530947941138635 5.369577910423292 0.5806520244075354 1.5976613929358678 0.4126967672790634
Ni 8.544095030034898 9.14112987671558 12.210906670257918 -0.4265066765789623 -2.3632047881055818 -0.4620730037193461
Ni 8.125672919790137 4.8016642547216835 12.569286885594053 -0.44555238035650363 0.45963482659149874 -0.1117260023220979
Ni 6.147943144580348 6.067705039632989 0.5228315672487478 0.5084171382015245 0.4541115827804244 0.12457509037062418
Ni 8.729721059478436 1.7001391132631438 11.31183832726399 -0.294941270933434 1.9016465192391252 -0.742349987772386
Ni 1.5260228025861373 1.4448514771982481 9.779506388911727 1.222603519055501 -1.4305571709537814 0.6652387473106801
Ni 1.157381875638723 8.041485124291444 10.13849366885766 2.5993336168864976 -0.13204131684068227 1.410701826790751
Ni 4.1869264990782264 2.9314339330856365 13.075152693763354 -1.1623857119150238 0.0694758354036352 -0.19328088037745425
Ni 7.183223966015223 1.0931404887477154 2.6025199174974976 0.5256486715884625 1.012263883423547 0.44553669662721973
Ni 4.071555943809108 6.855333664970938 6.340774767001068 0.8388434894154456 -0.45481709348788124 -0.8717363834887245
Ni 5.378488751659986 2.0005606833609293 10.000237531916644 -3.7242771247946633 -0.7696954696648745 0.29445610376689935
Ni 8.732765808996529 5.210188572415372 7.58343413796601 0.958196412155182 0.20817168144635761 0.3900535759582508
Ni 3.601834988742505 7.360667820283209 12.962324457209498 0.6562992787292052 0.20357480610429454 0.03618056368561511
P 8.792096005488384 4.551306661994132 9.67058165321063 -0.6210715658751627 -0.5120660478080213 0.5523392935057713
P 7.696514061244737 7.35471971828347 13.208151688889386 1.2495921318292027 -0.9427050013878022 0.024095864606939146
P 9.106647852761464 1.3497101246097025 6.853925350487957 0.6798161309042228 1.6623647466515241 1.4406199545064222
P 3.5740457578467324 7.385959036868473 10.14928226273833 -0.7060200429931003 -0.8794180684036983 -0.14964668862727132
P 2.8927288509763955 7.9896866766075 7.573500524832372 -0.741778174429316 1.2827501066384102 2.1981926727658334
P 3.9938912649250273 5.172765490103222 4.922802866430803 -0.4970140385709053 -0.6893001591352581 0.13332506864911234
P 6.906198892214354 2.759589401460828 4.2418026889221006 -0.03591548294968653 -0.6656776346203116 0.16347202454613782
P 6.120615810670293 5.140734348114133 10.617621297435422 1.440261799836055 0.02090024048777691 -2.417747913458785
Ni 1.6184870379513452 6.453681243248424 7.1983016033346905 -1.092034158774655 -0.5276685302319686 -0.2488606745252875
Ni 4.033972611522323 9.298052307761008 6.450333904072342 1.2341256607624873 0.36524628710658386 -3.65558084786953
Ni 6.608831498103756 4.583780848030745 8.213648270571706 0.8935190265814548 -1.0920614124681645 1.8947955577555624
Ni 5.103000192321807 5.243680817114381 12.32057609701762 -1.9833006418765071 0.6442307776004453 1.789780648905053
Ni 6.434253290441033 3.28644418571986 12.153002698540325 0.04270062419232001 0.3433245473328281 -0.12665948370347863
Ni 6.049398836648053 7.888474677920963 5.17294836360369 0.16701063382701561 0.785662534517092 0.8155852902184535
Ni 3.8784830037795244 8.364426529060193 4.296327271468684 -0.000760275204792239 0.4244335961000174 -1.697179026117232
Ni 3.999245499371703 6.207574988083284 2.4972790459192193 0.0701396942398792 1.9627472432051873 3.3202138648208823
Ni 3.1484689575579115 0.17093864794465743 13.380195119012125 2.617639100063905 -0.6410179270901025 -1.4486381968252084
Ni 3.615032045477268 0.5003466105134404 8.441291843364912 -1.2648320887074087 -0.7813191699467318 4.946146851007934
Ni 7.075488850714075 7.636825658927223 10.910164224662555 -0.2585200519919225 -1.419497056484878 0.6374080982516571
Ni 3.2308280180519295 5.413988834276499 8.740456865132167 0.34736220773731147 0.917455225682078 -0.3262763336012897
Ni 9.044621686108076 7.311310828095196 6.269529513571539 -1.2970482684286373 -0.22682066400611262 -0.329122287690517
Ni 1.7910385547583727 7.9647159599715085 2.962390457597752 -0.13276431104963587 -0.10154649068593478 0.47053373289218964
Ni 0.2010684711170312 6.462730653580833 12.192612721682806 -0.9547655320967623 0.356718709251547 -1.2170224254232973
Ni 5.868655718196376 5.754736839168082 4.1617964751145085 0.7157568106648898 -1.3468777903562545 -0.8326556154371789
Ni 8.94910327475568 0.48664900826966595 5.06453548517452 -0.6276422771141448 -0.9381333228567198 -1.762875854094409
Ni 5.712044360631123 3.2983875220648207 1.3773607864097601 0.23979445055796123 1.0491589566776836 -0.027847361229571398
Ni 7.917574188021115 8.412878580214967 3.7932762069715267 -0.48134393613381615 0.29153070258998826 -1.4753694421724657
Ni 8.646862396122316 0.8345385061485749 0.3748228053807413 0.009834983812550805 -0.09681668931043326 1.6630018660148909
Ni 7.011473699081378 2.4795007252036743 6.897108948064831 0.5344904382498085 -0.3580734235072284 1.0266772306353995
Ni 9.359795680341508 7.409826856620202 1.612572871240352 -0.07503713154149659 1.55262157908741 -0.49220813254182977
Ni 1.1953893990348408 8.218561346264677 13.13907263805818 0.5024861174290701 1.661430407762713 0.3560710483652191
Ni 1.5828078524220037 6.149809585461408 0.24615150221680113 0.27141927655209386 -0.24137567900215204 2.663284151596529
P 1.9160429614438679 4.031502876619102 13.590068854911973 0.48546207206724784 -1.1069475855513773 -0.404441983469439
P 5.749787942892546 7.526601955784663 3.0076846416052785 -0.10668895411882272 1.9532765847105906 -0.8791936110977181
P 8.355810736306212 2.832022389996485 13.469238488742302 0.20194601225161998 0.29614249033038675 -0.41961277767260635
P 6.322898411006921 1.2757783274877403 11.88746000674561 0.009655006591260791 -2.577792914601244 -0.4156957020063873
P 3.16455051383613 2.8241795677083976 8.851658093120008 -1.496067079731133 -0.2619468182852843 0.7870696992772638
P 3.9460330813233186 5.736638018503263 0.5855732029065404 0.00659667938091122 -0.22240736542976536 -3.0918824205971975
P 1.2925291630717932 4.356037354665119 7.0862463372467275 0.04732860988263461 -1.4428773830820312 0.03470166514724347
P 5.6937193047079955 0.5318102790629349 7.708499816700632 1.755689620758615 0.5887792815003602 0.21650745500556262
