# total energy = -381175.11678136315 ev
CRYSTAL
PRIMVEC
9.15423795792648 0.00000000000000 0.00000000000000
0.00000000000000 9.15423795792648 0.00000000000000
0.00000000000000 0.00000000000000 13.39815257597407
PRIMCOORD
 96 1
Ni 2.477969869544029 3.8519569309146395 11.724080833527907 0.3127862695346548 0.14197066013925227 0.5579160162626005
Ni 5.665347421797548 2.270937620338818 1.3973605775492304 0.10159791274916051 -0.6874106554220291 -1.135069026377942
Ni 2.6094979627780437 8.888334960317792 9.875765093389262 1.153005813362021 0.37501236535441224 -0.5753660934182478
Ni 8.365655426674799 1.3577840599073447 1.4537799778986094 -0.21145883683806163 0.4461079957496575 1.1703178222779071
Ni 0.4446460616806664 4.241469762701062 1.4432892210190034 -2.2481849455235605 -1.0678349358206318 -0.8140907079507979
Ni 9.066879220509623 4.993783359454804 12.42450912407055 0.5185267158317005 -0.3657995885068926 0.3118601581759597
Ni 5.290765152376428 6.806697829955741 11.550105453579192 3.044391831215402 3.8991319372564464 -0.3932234890458002
Ni 6.7398444290030675 1.3965980295142641 3.2894473072339796 -0.38201836435860015 -0.22852222007825157 0.31378231489933706
Ni 7.665438599032608 2.6196042416568264 10.320289403703 -0.5775145072198182 1.3691517712631065 2.294610326865635
Ni 5.749264322596282 2.7669050871627094 6.606682304265554 1.259026280658909 -2.4153092221103045 -1.7242607128253724
Ni 8.398079738077561 2.2414152024184606 6.990606473682867 0.11222299656317448 -0.27340416819260654 -0.16628455429426847
Ni 4.904822473454794 8.133375788748861 2.6405216757492345 -0.03616796528012481 1.0242863618057199 1.1986210400979744
Ni 7.144553296060124 8.104448396305969 13.043597431843788 0.2623689934243675 -0.3040092946729732 -0.3546757106795892
Ni 0.49088411839872087 7.8875295699367305 12.509640792267122 -2.6281878221140285 -1.2254577006748444 -1.4558550262886218
Ni 1.0455421520482828 2.5204821513493436 13.292173444461763 0.0006790283448956047 1.4146952642208603 -1.3283270239372607
Ni 5.988336405203431 6.696242792862088 1.389575813456371 -0.16913719325171517 0.841741379788531 0.8679270370449633
Ni 4.605634509147493 9.05851224687266 8.017454756076836 -0.9751158136183402 1.0618278103946037 -0.16020235265593055
Ni 3.622258788137086 1.0158366493656286 6.029584486725087 1.16674064644961 0.9187880855608885 0.9036340035282695
Ni 0.45825292121456385 7.766171835248303 4.13433496777166 -0.41857045245102104 0.31890009574187655 -0.6480013003864711
Ni 0.002826828729862449 7.88384041197645 1.4817956082252643 -0.8710421856351774 -0.09074914296011467 0.34518885423507645
Ni 1.8174366641296673 2.9930239228373607 6.000121571352476 -0.04085328657093609 -0.18047370131045692 -0.6848639777407753
Ni 3.868150778139791 5.535384703281171 10.801188994589868 -2.106606892837036 -1.4548993472435718 -1.5831613995474798
Ni 2.911596974805863 7.502566394493384 3.7972512039403585 0.18706395293346492 0.862186020796128 -0.19542209509017314
Ni 3.249324281576638 7.6555337133923524 6.13770702394708 -0.7587294575716739 -0.5339517921375192 1.191018030939736
P 1.6384530005083249 8.471588270139723 8.000479136916677 0.04259109519764923 -0.2599920085517587 -0.8593246400879329
Ni 2.7860740617751834 5.273134089767248 7.121024157833552 -0.4106733090911315 -1.0467909706661391 0.08358527822182378
P 3.7642410212982473 5.713251549852504 2.517875024334238 -0.32266984719695396 0.0148990285990195 1.0351287038368624
Ni 1.3901442916433022 0.2803009402287636 5.778489227777907 0.8430243602660127 -0.26112509371493736 0.6667775525527098
P 1.565026856589197 6.286041382936127 -0.011453782729287229 0.275200597971397 -1.2121630404484673 -0.009198892890448673
P 7.51383526161275 3.478207697161971 2.2509026548006803 0.6211643826992851 -0.6713484597528437 -0.4862825110860141
P 2.4540956165405277 4.597020371081429 9.311247029866207 0.31760528818985306 -0.06853455453628843 0.5218300691733206
Ni 2.6727812108659292 4.427081094717548 0.894696785544334 -0.1701887744446811 -0.5630816196239399 -0.4147176543638342
Ni 7.6282357753339 2.8227917108538048 4.843405774518524 0.3866746321836889 0.7125177349023019 0.09632175195188572
Ni 4.773413385316272 8.758033534991167 13.358560894694392 -0.06168822103841634 0.16972828986849478 -0.04630068283875252
Ni 4.010883658826368 2.613434285167424 8.066290785571884 1.2977987734414165 0.2132938331642714 -1.0621132028455065
Ni 1.2516223604895502 6.050859851527785 2.4663458179858058 0.7783055799313886 0.15522289716346815 0.5931064481208044
Ni 2.663260803226496 1.5004162439746593 3.9905328720732687 -1.2221309502944564 -0.4005932991473101 0.17169261268371722
Ni 4.807027747673963 3.929621487080938 12.55724466131191 0.4153529739549879 -0.8125035659693363 -0.7216441226836023
Ni 2.085353751036676 1.5049842087939642 7.781043810489671 -1.222393974147856 -1.9066935947447292 -0.21341493212316795
Ni 7.918251193050132 5.706248557694651 2.408184366123173 -0.3702316561363172 0.11741842472118487 0.6874397088877515
Ni 0.6157726427280422 2.641244860560307 10.962502232378133 0.24619572609861476 -0.06575313513640935 0.04124795090619347
Ni 3.6556168318275613 0.7455779083488439 1.839285084238355 -0.9680661058604103 -0.11419837512199042 0.8403290728220366
Ni 6.228067592954848 1.4225319860936048 9.198113462700151 -1.7691138645843207 -1.0801181240633593 -0.8212895396920823
Ni 6.848212299806538 5.76503707486815 13.066722868169496 0.6808805676129951 -1.9318037595487954 -1.3012918741963395
Ni 8.799667009937457 4.888454695705461 9.622325434060873 -0.942676462142712 -0.3058442909991829 1.181620905995552
Ni 3.9936919996467 3.7944500070772174 5.362664369378002 -0.06325787951838138 -1.8736929714489927 -0.48458455455830096
Ni 0.12909672759071308 1.1370753789585635 3.9334433814938836 -0.8106171475799007 0.361719504900248 -0.19190251197268887
Ni 7.847195996802747 6.730763424793147 10.942767525850163 -0.29889614181612395 -0.23589151595912924 0.3510244870802471
Ni 7.1396649329068 8.163612237242177 3.5939474759193213 1.964190660519933 1.8019000578764062 -1.4600808914445114
Ni 6.634717158492251 4.995797291840069 5.751626116029911 0.8619569355044574 -0.8452627626782282 -0.1642469550389494
Ni 5.953486220700237 1.7558561043311418 12.25788917444711 -1.4402923959636742 -0.8008335858305756 -1.2100357096928194
Ni 2.267001297949437 5.422595335468233 4.709115847645262 0.18106505503755269 0.07827235064934263 0.3462854297333649
Ni 8.109364222173637 1.0731055630120647 12.672455325106226 1.8082306280801246 -0.36204269256762167 -1.2903654570918228
Ni 0.8202233967848683 3.4424329346091778 8.288593219376457 0.49992889822485514 0.2206955249449812 0.40478034064546414
Ni 1.3604754059131074 6.080382269448143 10.972403456323145 0.7236454693843473 -0.5587583096582377 -0.19220461659413993
Ni 6.984628756193877 3.6003801590426194 8.40325462888388 1.1411021199458993 0.01556494431779255 -0.1139410076955457
P 8.638781275069151 5.868360960470344 4.512967072134784 -0.4964129146517967 0.1820140492143833 0.9743763643491543
Ni 6.07451440281653 5.75936144723695 9.404591880499414 -0.19376604754398888 -1.1245305887404635 1.19291781906561
P 3.550086774839691 2.0559594924499263 0.25866764471577486 0.18567350034384153 1.807875301623235 -1.0294419378647301
Ni 3.1656087740164303 1.0961833972995751 11.685252217140002 0.6619904155767116 0.8509222749568506 1.7965776172222285
P 8.459715223304777 0.3647002693761497 5.813712905196187 -1.341829943519702 -0.5042318964755832 -0.3590471002744074
P 1.4580046587886077 -0.04060453858218224 2.5646742358487313 0.856277368621177 -0.1771821750433787 0.27505224531899086
P 4.771170596978137 1.5298928907044427 4.209807083909455 0.33261564555575623 0.2051768604840918 0.4300136612909562
Ni 7.651524157098052 0.04510018492037995 10.587769833451933 0.14519456639318867 0.4209518081990041 1.246445358670105
Ni 3.81000305763433 3.269985397001831 2.895514809285713 -0.8221326044186681 -0.1345244882738522 0.06140745657320392
Ni 2.6699617055265583 2.374929765323395 9.751390121818183 -1.1638340143257762 0.5195165905487955 1.4365786945575132
Ni 9.006333089618074 1.2020613153358093 9.078709242425429 0.9049892320045833 -0.3473184989835696 -0.6983537846970941
Ni 8.399992973843561 8.043545250127941 7.963767895804737 -0.864683333296685 1.3743901368439104 0.44743931296657136
Ni 5.450158746432014 6.891365378279892 7.228665182130704 0.7334771107627883 1.2134038548341037 -0.016518566480313485
Ni 0.4389383942160639 8.021950402415035 9.947391514095013 -0.13619133445331383 0.6887795107450976 0.9150178198851789
Ni 2.8451463603302427 7.715118649281843 12.009166694019298 0.581930634009643 0.04085868588757479 0.136301634778933
Ni 5.176428718322082 8.572110958878776 5.242590058873274 0.5539297779213428 0.47359977341202303 -1.016031063775463
Ni 7.690246584323824 5.859041946069438 7.650385369876567 0.7416231369086905 -0.06665533523570456 0.9292833286652576
Ni 2.912338468093165 7.396587779837886 1.388772071349888 -0.41538202742071045 1.4649238213591094 -0.6629453232908131
Ni 1.3989781314241223 2.1411579865847377 2.090473716414306 0.9528179214520881 0.47310200783999806 0.5942410759458798
Ni 5.1923662468800185 4.618349745889005 7.607364112432067 -2.0883476895165325 1.0416176539953157 0.6987237664420031
Ni 0.6704216134260113 7.164060977482848 6.414888199826305 0.5532150112425054 -1.0707076293827367 -0.7562023202744461
Ni 6.624409486374941 0.4757814563568586 6.950144741215277 0.2169635687063747 -0.307547903953851 0.07666412562195829
Ni 4.772388110647411 3.33821193367173 10.219789600559235 1.2653805050117108 0.2657587358322068 -0.17967537377887766
Ni 1.421479248710398 0.3466471963898747 0.28826238111723956 1.7284179295268554 0.27046334039672776 1.113167084098528
Ni 5.912878020422808 4.154943904039598 3.5420960403892474 0.4307988761964129 -0.5388587425208332 0.09057945015146981
Ni 7.608252073529206 3.2596136452177173 13.189864763866506 -0.5638814898174159 0.8434269950210701 0.6551782777508844
Ni 9.178222218700416 4.542818127203464 6.351247021028129 -0.13979499264417214 0.6675735660914439 -0.6862469741312311
Ni 4.126053128549165 6.132955058941667 13.261384079986312 -0.7109719876817369 -0.23715547027321737 0.3697004662231956
Ni 1.2528856453493984 6.299241794297727 8.576318246716356 -0.509034202960233 0.09380129952287718 -0.4089596688341344
Ni 6.25305866300836 7.9985338613172745 9.371243906470864 -0.8695509458016315 0.2622833756890967 -0.3252288661733818
Ni 3.7402386089611377 7.013931472399478 8.720549676182333 -0.8521633464528033 -0.8531915306070015 0.9147116014986699
Ni 5.016531641170181 4.509734710656434 1.279234288915341 1.5968139573339077 0.681218410568388 0.9149802817790241
P 4.923048561541439 0.17012236112617796 10.679935618215948 0.43076030964899364 -0.27398986549274745 -0.12045978265066996
Ni 0.49635560651996047 4.06731038256624 3.9382392868422484 -0.2009185994283701 -1.239279437049285 -0.6353548152670542
P 6.8905872680401306 4.555130577467923 11.171553906511479 -0.08454327125971892 -0.17907399274945288 0.0037029027728839453
Ni 5.945842431874347 6.4739870456718975 4.075020997330369 -2.2822677461398824 -1.7444700978937118 -0.24034518085510867
P 4.471103825811811 5.725060517020646 5.760897528392619 -0.125260546473423 1.706952817674544 -0.916651241723544
P 6.582995713143407 9.081901325256075 1.477052797457966 -0.0743943557511751 -0.02156692753749834 0.16421301647722042
P 1.0194342649447605 0.563156828315379 11.475048939851812 -0.3853389440914009 0.18721796201282595 -0.9559184147542827
Ni 7.241972698078246 7.387680706152148 5.852554337517451 1.7409906239855435 0.7542703933590559 -0.3441956370838718
