# total energy = -340867.07547647273 ev
CRYSTAL
PRIMVEC
9.19701089069556 0.00000000000000 0.00000000000000

0.00000000000000 9.19701089069556 0.00000000000000

0.00000000000000 0.00000000000000 13.46075508664342

PRIMCOORD
 96 1
Ni 5.503362611927353 6.795974914050988 1.903620325046464 -1.2506879359965428 1.5092758651119234 0.18632218967143396
Ni 3.1240774775311104 7.110880569986109 2.863586856756789 2.2058841278728205 0.9822475395671146 -3.1997630810312763
Ni 0.34277903711042834 7.892387380950795 6.26472980824932 0.24897843105007444 2.0648328942240437 0.029772603276742273
Ni 7.20903107115841 7.8544405136497355 5.805152410504732 0.47330975297543 0.17225902671014848 -1.2343827710786162
Ni 8.988763059806685 5.65067113678462 5.370504430720941 -1.1143770452462292 -0.2696156476844518 -0.728295823672165
Ni 4.506921654373772 4.957823511661481 0.6217685257687424 2.333726576140807 0.9248980551133684 2.209985037415071
Ni 8.389209914058714 4.8692470989187475 13.170757075381069 0.029758205099039068 0.5318175194033357 0.4707471344545764
Ni 4.127535754461984 2.0392348504434064 7.767151682444121 -0.16611640414752035 1.3643250392984245 1.5459685925472666
Ni 4.285733540318876 6.551683908415806 12.44472387554091 0.29989424406333515 0.5134523866325866 -0.8080288180274342
Ni 1.5854819197520802 8.541300884625276 8.59310396866792 1.20537018589635 -0.33940052968807355 -1.2893154185607536
Ni 5.258013950029539 6.860317202862966 9.14346046328481 0.03481119414191424 0.9924861865759876 -0.5865419075294092
Ni 6.40890950997139 5.963654617425042 4.185231363439139 0.3392398357404932 0.03872698425655266 0.01583413881877918
Ni 9.161602487142803 8.411006830079925 11.941802804452543 -0.23493300870060185 1.8939938877898739 0.05596803072518748
Ni 3.1730975460513844 1.9851656228954344 5.613539124656335 0.3355420751739318 -0.13006439561996955 1.1714843317821824
Ni 3.695414193594239 1.296668183965557 10.389495423004306 -2.0746241692828526 -0.8070667112244809 1.1705854741169968
Ni 4.482586363322244 -0.06998925355333707 1.739519897542984 -0.23633374570287038 0.4686154328235543 0.883246441010853
Ni 8.883760785454719 7.432233330617797 8.606120498307085 -2.4510853512686497 -0.9396327902203817 -1.4558755951139122
Ni 1.0364755463469684 5.954365636335835 7.147849795020057 2.0306529059082257 -0.8475564438084112 2.0490216382234
Ni 5.1479625166498755 5.182773203206956 10.598015574136157 -1.0719281320533989 0.023635122920436714 3.2150876272034883
Ni 7.274320652101267 5.841904586079566 9.788324523025056 1.8463333484891171 0.5852404151091664 -0.9195311343745003
Ni 6.707159379022793 8.758718224178612 2.9985713869016415 -0.47847664188835015 -0.5549595047374378 -0.09300065799845274
Ni 2.4306044556613706 3.3897699277153883 10.919082307726384 -0.17149129530618853 1.2057887614910072 0.07928227997109573
Ni 4.974488495556177 1.342303752445407 3.923945201215098 -0.35873856789505315 -0.2277136081340272 -0.4960002525944103
Ni 5.291868147444759 7.267744789250986 6.827281539424913 -1.396035740138144 -1.13936405420887 -0.41710826608319773
P 5.205857700765284 2.914210883991873 5.555414934967541 -0.0639217383546254 -1.6087983833892938 -0.24202642521227347
P 8.240061987005566 6.774288362161531 0.6921615281040757 0.16633983301223612 1.6431915161571833 0.2808652524563421
P 2.2194870686289327 0.719883158598224 4.245011015104229 -0.4341407960854523 -1.4422914286715742 0.3786779871314575
P 0.486749966683266 3.5937780252607396 6.392068863166986 0.7741298512871442 0.8129946466731419 -0.33333632577186467
P 3.4628769679907467 7.504935702410061 0.7269804919710374 -0.348405047179529 -0.3000783350496832 1.086573906991032
P 7.315642822431771 1.3302004859964986 1.8058137920847925 -0.4628736452437705 0.6125234191948354 -1.0602216422497481
P 7.457497519778246 8.08755715094493 10.100667891701313 -0.1335991482461054 1.395653674208377 -0.46268106961699024
P 2.162254069304042 5.342102221414317 4.002649542372527 -0.29334641564248837 -1.9813072655955621 0.7104235713774345
Ni 6.314244675960286 8.598736218191714 0.4364607106478327 0.8838246821118262 -0.6325733958671751 -0.08423962397637105
Ni 1.8021451044051047 1.5722382239417247 12.259275346152016 -0.28590718575562374 -0.8755354455198405 -0.8446714089511324
Ni 4.054033242714511 6.2152388527669 4.684207836518437 2.4533965159003293 -1.221286342905974 1.3971600835505744
Ni 4.29963022390877 3.3874614779595555 12.67218343138267 -0.3108823676437227 -2.4526984613920404 -1.5635400257721266
Ni 7.113906386598336 6.902568271302393 11.746433459320153 0.37880885628236693 -0.3659001186404989 3.3575192861395595
Ni 5.739339519637147 1.7488300317574441 9.825556782573017 0.5913879227678008 0.7457320168707414 -0.11513399956238236
Ni 7.651462481334078 2.9341775948281796 5.926339584778268 -0.04762737206997604 0.4205291188392886 0.5489132985433578
Ni 0.2423283634921757 4.4553816048451385 11.187435453187009 0.26460302496120885 0.22988593319499764 -0.3986924825801714
Ni 2.275993504086449 5.533538004950809 9.314748354868703 -0.8444855181925714 -1.9911651322262482 2.4159759091600264
Ni 2.765688353685323 4.1524596542161945 2.259939201720785 0.49099894272507705 -1.0784350799339815 0.1298425094171506
Ni 0.509692830272511 6.711500368205075 10.628922129532475 1.3814141335702272 -0.126766184484672 0.6560180000433605
Ni 5.230763206497536 0.6150510289493788 6.246248414686188 1.646540378024758 0.08831507959732532 -0.09790760838176686
Ni 3.092642094003475 7.615088302910497 10.205527612383095 0.8636482071639513 -0.08632144620606425 1.351493177641079
Ni 1.3404275622056063 7.199760484091161 -0.0548804039163565 -0.27817664988058544 -0.9805308139863244 0.14027193228059068
Ni 6.1508229878670875 4.193542702261235 8.957607265412822 0.6602950301521596 -3.600003110604226 -2.64145162910247
Ni 3.985092448412827 9.052884620355155 12.794151431888357 -1.2056033849530787 0.3862380588669026 -0.09624179064356972
Ni 7.387747388510374 2.8971688226470196 11.622568115449411 -0.6378251311844176 1.5462863808980016 -1.1531562228969559
Ni 1.8759327234929395 0.1753005474742098 0.6787559649004825 1.43531705423627 0.40889487703447003 -0.7108992254622725
Ni 0.008926618856618785 4.050483196476457 2.3215499782718765 1.464841288947632 -1.4152328818918853 -2.154378503794361
Ni 4.306831483505651 8.911600137689405 8.28960444574947 -0.28394723381577547 0.27662447490211717 1.2523882065171013
Ni 2.336473048287073 4.979004227947069 0.1442321246846529 -1.8414518520270997 -1.2546937147218262 -0.25914483006011496
Ni 5.373684757117622 8.36766131733395 11.11481493479246 0.5943148666066087 0.8466871538295805 -1.247253199283381
Ni 8.665386956759525 0.9414704229296263 7.492242907557373 1.7731237570746625 -0.7954083010499462 -0.6676211314999276
Ni 3.232022795396487 8.6682564241851 6.1956492193807495 -1.5018024395530136 -0.024335748531887122 0.013485950301576774
P 5.305479723694291 1.3257767237154008 12.058238802854115 1.360087347067993 0.8544912232550316 -0.38289433920565025
P 0.16812228040477753 2.359474772746586 11.018045824669267 -0.05056357188016453 -0.22108041908822568 0.4859253848569115
P 8.075435490474062 4.4741067191992245 3.8592120394364957 -1.320905534662209 1.0210650266549448 1.4439467048868102
P 6.310924554996719 4.985865198137712 12.499966641689857 -1.3114618727508058 -1.1288114755040044 0.2728616654255752
P 8.76675641177462 8.673066460927334 4.367180430150367 0.01907681412579295 -0.19127104903627704 -0.4394984608529399
P 0.014235133593936284 5.201590287670836 9.115287259551573 0.7760139556837345 -0.7170817001239006 -1.0051113315391658
P 1.6997731751932526 9.269023575382352 10.620656775765278 -0.004755255296798262 -1.3594448283879879 1.2113305172448428
P 5.041635872716875 8.204745464844617 4.627605752146735 0.7662987852784996 0.29923192788898784 -0.10920220745897967
Ni 9.17794557565322 2.6196030312883183 13.706144514927866 0.5070097163310365 -0.9283212218623044 -0.06693224304617505
Ni 7.506903862759656 0.7951597737636259 12.471807233473088 -0.44029678838451913 0.07097581698792936 0.09313101292872994
Ni 8.497890992802445 6.903083303917239 2.9665759054053593 -1.579922066674576 0.7664350537460478 0.6198312657101583
Ni 6.677609382745937 3.1128571241362257 0.3492730465629923 0.11087265318286713 -0.6958204767522791 0.712863805387811
Ni 1.4763777785032974 1.7370578577037952 9.227926731820844 1.7047758646278834 -0.7515545370897896 3.2390456806809835
Ni 7.2106497450907865 0.9725471230290648 4.816082857251151 0.7108346907729242 0.229284809275889 0.11411121472482283
Ni 1.2386994237623132 8.500208639569257 2.7164880237498523 -0.24728484539773546 0.004437981166695582 1.322135293304252
Ni 0.5788598710442885 1.4975676917998664 5.638400484735886 0.4244904174798818 -0.35973949835574176 -1.4455086500572911
Ni 4.212801243252128 4.814635247722991 7.675497949827677 -0.6266572874930563 0.8256704423685973 1.078532267633478
Ni 0.01715058607441038 1.3912042598229488 3.0435309750745048 -0.5050867882767107 0.33257862167023367 -0.060166385077251215
Ni 6.408219734147933 3.3462496717608037 3.203107392877211 0.6562838521102374 -1.1721877856071103 1.5472276617653482
Ni 5.994666938447625 4.6868427801640395 6.36178218631068 0.3854746983383168 0.36717332892596766 -0.8886627269304179
Ni 8.890272269228143 9.074120518706621 0.9808667391610422 -1.9716658858510563 -0.7394585251572039 -0.40794819685048456
Ni 1.1951791678077286 6.0339473723407 2.297387591026761 0.1996785563736819 -0.27238601134073737 -1.7305943683528842
Ni 2.7984113187500768 4.367209860585501 5.87024885421702 -0.16561015393506318 0.6205552883603764 -1.6653425983329255
Ni 9.061603386763638 2.942730815039034 8.60353613822187 -2.7648643237338772 3.395960877945209 -0.4226474507338721
Ni 4.865365960285436 2.6416298725840144 1.7583112303761217 -1.933981998147037 -0.5259980845080812 -0.7578452551945076
Ni 2.7541736959390977 1.4617269400130917 2.4033638288414454 0.4233614460817612 0.6551014017663621 0.007153580325645745
Ni 2.1091965129638055 3.71688001722019 7.864284994202099 -0.6323114004550401 -1.50673844340205 0.981303944706923
Ni 1.7591030930214493 2.9933235724367884 4.074503030051392 -0.9637672213747402 1.0282306911654486 -0.0026369234022148133
Ni 6.901013976446871 8.952986687096764 7.999174795133864 -2.1008897878476014 -1.1887199789341785 0.7972872632402139
Ni 6.992349492483426 5.155467277609078 1.7524830845184673 1.3721928720822754 -0.48784188515333404 -0.21355814256925157
Ni 8.028199642083795 1.0282074334764755 9.830147010752842 0.9379716004678749 -0.6766171643509509 1.514978314813339
Ni 2.0875375521072863 7.268471353118359 4.765308918737102 -3.1833658706201753 1.1439778988317975 1.3908595952538432
P 7.223102497956913 6.154005153665965 7.248132163337386 0.41706635710166884 1.3233923056398047 0.46428955175469067
P 2.427082000456255 2.5196959010189497 0.5712291110346691 0.24740388747410294 1.4348987357519287 0.1593456610825901
P 2.3728472267106535 5.741436438140453 11.696103736436411 -0.8136713610251921 0.5517543675365788 -2.1202987885018323
P 4.839807466773645 4.865393551318374 2.8086540298778497 0.354083585621545 0.25510125611836065 0.40998476766453906
P 3.215072704161428 6.763950921820671 8.061175524950482 1.2591592066923478 2.7351130606133736 -2.007013926333047
P 1.9462070843866384 1.0875465483156517 7.427657817655539 1.3314923090391197 0.04810559725797522 -3.3968085706574853
P 4.058723718314012 3.633812614054127 9.61975526788668 0.12064695896081157 -1.4155375576164975 -1.1981348444901754
P 6.999477175992472 2.0275086614446542 8.165307762063794 -0.6948735394579775 1.1786582238228025 -0.9878137208009825
