# total energy = -381164.4414029492 ev
CRYSTAL
PRIMVEC
9.26508104671129 0.00000000000000 0.00000000000000
0.00000000000000 9.26508104671129 0.00000000000000
0.00000000000000 0.00000000000000 13.56038264061390
PRIMCOORD
 96 1
Ni 7.501787974303947 4.080851322518471 1.666435101169665 -0.15506477431904908 1.2356966047940332 0.5649438696436593
Ni 5.010907964646206 7.606613102553085 8.126724184131959 -0.26794905861530627 -0.5077303965471449 -4.719448314401982
Ni 0.7298539888887531 7.7400673315879605 4.262720233157188 0.4620709468368171 2.6468010663398416 -0.39763061697456037
Ni 9.458628705874338 0.38855804719811865 11.167002196916702 0.18962091502736375 1.397357287163045 -1.3691430295123581
Ni 4.893871459427617 0.7212356103933184 2.9456815341367233 -1.6442333271581357 -0.5475408436758635 -0.4350684501060443
Ni 2.0162021065652835 2.5912578989498716 11.03811102035334 0.44705930391933335 0.1618792261377212 -0.9507543540548399
Ni 3.7600849476631226 0.8058860244156135 11.409990994954562 -1.285195482855109 -1.1282738578329794 -0.8207092417085801
Ni 9.101107754055553 5.824975055726481 8.28448535359123 0.20722731525521731 -0.4527046751305688 1.0700455703187055
Ni 6.849943189261691 0.9883710629514998 6.358883696169471 -0.11748655895495895 0.16950460389346292 -0.3202828350220161
Ni 1.1014977039203855 1.120509650461594 3.159691011320983 2.3650364419976815 -0.9692596119478791 0.2601601586985068
Ni 8.058786123506852 3.3952631118899177 10.13787774797292 1.1831725667533879 -0.12850322178043674 -0.970139186339355
Ni 8.459723245643426 6.40710937011764 5.85003061470864 -0.87918949733266 -0.6190915593306564 -2.2252874721000966
Ni 0.9495133125646443 7.36317309506271 1.6244114725502896 0.9968496057510057 1.1595883516755447 -0.47744434396909385
Ni 6.45588075734616 2.011467650092302 1.5789301156418405 -0.48837281795613957 -0.13102418843007754 -1.2094039896460915
Ni 3.6626440890988503 1.623520171742656 6.4858227201323295 1.1820232836402935 -1.091956254348868 0.6562643117262117
Ni 1.8746501965961895 2.6890693607605622 8.074720210086564 0.8972936631325386 -1.0119733487663216 0.10794622356469152
Ni 6.88844886656445 6.261527149843758 9.59208571443356 0.3135331750030084 -1.2261084468849657 0.06024146128956077
Ni 5.625275496394511 3.1752452295731173 3.845060566034149 0.5785678881849972 -2.329801015834155 0.1281394106831148
Ni 3.981047868258287 3.0938514915787145 9.302123881420421 -0.36280836708905256 -0.2726143253014595 -0.23820807990744783
Ni 4.782514448960374 9.192266887593052 0.6001335875615321 1.1216033877913394 2.1800507117494843 -1.1232203545694721
Ni 2.956542988781099 1.8860833067481637 1.9664856810584004 0.13094397001144545 -1.121106907770895 -1.6769590995259311
Ni 5.36200821522081 7.606835464500936 3.6283114043507503 -0.5525897189536805 -1.0124070938696308 0.6993241190301633
Ni 4.01042744061802 4.6909661820141375 4.434530045180024 -0.09323359994486524 -0.33160083113799665 -0.3529929236605276
Ni 4.991766306968751 8.827092978735749 5.654706953208742 -0.09194830547453842 -0.21229830202022149 0.6606285022321784
P 6.43256981314651 8.302689385055247 2.0434136499334747 0.4889788269712546 0.7015617501114305 -0.24073933096973377
Ni 0.1775069104283857 8.677007929017897 6.418739826498332 0.4332851329533764 1.2433374091687426 1.2134848445836843
P 0.14020106113590264 6.238123554832504 11.923915781842616 1.6300130697936959 0.535808899950916 -0.29444453380267355
Ni 0.20498065559341735 3.419352322907043 12.24908029072482 1.9441201150223035 0.6907507755388554 -0.49244287426045513
P 5.964386731947515 8.6980118680086 11.993846761425331 -1.824350673570439 0.8862163222724543 -0.209550049851123
P 4.199963205916996 7.676555200233193 9.960833165094442 -2.762902829132132 0.32246750137816077 3.1422349049078204
P 5.945689798165762 6.69366906532867 5.901343413699466 0.9497737353091256 1.2051881517925307 -0.9648236876637125
Ni 5.577412087119715 1.6350644628685553 12.388643914276885 0.7534304139562638 -1.4624645611853395 3.885604849304289
Ni 7.217303657272855 8.230681174276363 0.027493201835468568 0.9508011481323754 0.38120615286994997 1.8079082117436993
Ni 1.7180703249848737 5.456011728674563 10.428246318049004 -0.19540358314741188 0.10848281279445188 0.6657557961564148
Ni 6.841317398701328 5.060698510802372 7.524819113052552 0.9632630280448119 0.14493668474611165 -0.717442683007745
Ni 5.476376377065193 6.106318510244186 12.054949971678386 0.11381862318506848 2.0947625919039408 -0.282862485392029
Ni 1.3342365426704597 5.676566985698667 4.526428532194125 -0.603950847034476 -3.1170301235074187 -0.840247568851824
Ni 6.231823299643411 8.389475400285024 9.679536962490655 1.2784321959893468 1.849334854319602 2.5433714996985812
Ni 4.0228055890483585 7.33703630110913 1.3285042369564999 -1.718779120885511 -1.1741191983018682 0.7636027265035753
Ni 7.5036965810229965 3.365123802875029 13.000460769181721 -0.8761429971968525 -2.1411074977170674 1.0110014717713556
Ni 7.5508558441296 8.224325328600306 4.826356813011543 -1.4838090882993864 0.16781410356491744 0.28465814383987104
Ni 5.410455324608713 3.145300487262598 6.315463819819219 -0.5657054304000322 0.5696474457669157 -1.6983648188952167
Ni 1.4504762509092508 1.4876940819307096 5.860824434260544 0.9695563172526915 -1.1836636474571938 1.1883458834242113
Ni 3.9864401454936593 5.669710825639947 9.18836628842451 0.7224249667136848 -0.9745002915215282 0.7839944027860497
Ni 7.621613268951826 5.1431947934548665 11.599184878758718 -0.45742959141006384 0.23267172347025092 -0.48944213976091844
Ni 4.503292698028408 3.7287875035031806 2.02379206105191 -0.1409566170524411 0.2558376200637529 -0.7161059664741924
Ni 0.9574071617133331 3.249097191502928 4.659022035189197 -0.12144682915428763 -0.1557054932268415 -1.0751147573114967
Ni 6.514065467033677 2.788511476855488 8.177318012824735 0.41433558843406704 -0.37446703437390344 0.667531914220231
Ni 5.390933798603681 4.052926367900926 12.994996224313299 -0.24785357341701186 -1.3640085364992702 1.13567683516527
Ni 8.751425060898494 2.5040178947432357 7.434696742096905 0.6574308212304871 0.04956855495674689 -0.36831335606768184
Ni 8.315558582787089 5.964581298651884 0.22228597418487392 0.2185954478828429 0.2280393669045621 0.04263274706886206
Ni 3.5272349279391233 0.6881703887479655 8.791656822821443 0.42418394198305653 -0.2703162732959022 0.9667149911491545
Ni 1.454460235808237 6.826808281604091 6.342503032677826 1.37570114234585 0.4923796251226875 2.219852160017138
Ni 2.1283559140123236 5.126072923470386 7.910639328767762 -0.21687615119889103 -0.6895536699069608 0.005620688620887095
Ni 1.7948315223990603 7.866155821100292 10.744596028715174 0.519065619054306 0.29106687557969224 0.8034669096883646
Ni 8.355250190478385 6.961911695085523 2.900213148341899 -2.3403921610864407 -1.555822602523211 -0.3561841769043156
P 0.726320286934164 3.9712546774717095 9.243421253696035 -0.9328561336181805 0.20628552016723825 0.4138054269622099
Ni 1.9351697067361373 5.806435628324454 13.336120762002466 -0.019316955161057057 0.7659370310637067 -0.12110615798541723
P 0.7452479212368124 0.9363013068298669 8.574338785154792 -0.7983344735578057 -1.0747478608903813 0.4098035048916684
Ni 0.6631055646846464 8.454812752628396 12.989313950037605 -0.6792137214335334 -2.399763818176538 0.6916740586840734
P 4.13755361922032 5.258999042879117 0.5988197990529828 -2.2472709183497237 0.9941358063642686 -0.7375970464684328
P 5.754764270692721 4.362676561256518 9.41504113155508 0.26058567627169965 2.5854270341077346 -1.3149498312994063
P 2.505083379076685 8.862958107907785 1.8532024602179036 0.008280237730921224 0.6609331779567907 0.6196343192080038
Ni 3.4323234365316493 6.868825424666653 4.933592715378625 0.29646002157080553 0.33481059632454596 1.1707525958224805
Ni 0.14959863295692974 8.052606314372843 8.967128194918882 0.4112379233453498 1.257322410593925 1.2587925673815483
Ni 2.449066698380708 3.493519297596308 13.44578411563358 0.5205997963106453 0.9017185316731117 0.22064615976428453
Ni 7.751926635473315 7.720397564284362 11.38699228399002 1.6615720755468997 -0.5358821763910127 -0.8122932497307429
Ni 7.228023356175477 1.2413633691182804 10.876878224983255 1.318188392841362 -2.151945725983152 -0.24513463182395198
Ni 3.4888960220972525 2.176608456695858 4.209793457028215 -0.6796109568719522 0.8167613128044254 0.6566337792504885
Ni 4.64459445080617 5.3398368760038935 6.796613382102239 -1.4855399549475643 0.29361740991568785 0.1381901100508975
Ni 2.898858593476244 3.7669874331276456 6.260313424211741 -0.34666980965597716 -0.06560503959431928 -1.1740536351712556
Ni 5.983991643682991 6.191177388592592 1.1621969566348456 1.7975775192416525 -0.6048173087998293 0.6151657419136889
Ni 6.410555980309321 5.268328979607673 3.6851563833024703 0.7721752986639348 1.0289228321364667 0.3851563957669496
Ni 6.893692902501256 0.9276569861071832 3.613028652976616 0.07622652386390744 -0.13358449295808608 1.7386393501445478
Ni 5.898660246195404 2.955004985308467 10.836644610044075 -1.0654846904209005 2.0914715798574948 -0.2544857340215488
Ni 2.4362716212981503 7.313030475822448 8.552737248429244 0.06049857160568935 1.3998114051304924 -0.6332840487809546
Ni 7.766074414405296 0.6431319027189852 8.516394967577444 2.2228858046371394 -0.6896236039129477 0.39587532484635046
Ni 8.535141006289349 9.214660588757818 2.2354157798373575 -0.22900070237656692 -0.4012281045178316 -0.7192684233625742
Ni 3.796367005487378 4.558003002280764 11.388375560607273 -0.869092003887342 -0.4221026339739956 -0.24315411105881352
Ni 1.7928395299495672 1.1378631474750847 13.246202222832348 -0.226449653819939 -0.15898262131621652 -0.7595486110388597
Ni 3.0381405585610315 8.979003249442208 4.114735577338406 -0.6252215834877942 0.5513103380206247 -0.45729280872188344
Ni 8.538226278315772 2.3010940871674346 2.863424290578168 -1.472841019323657 1.5789157368972486 1.6017975265914284
Ni 7.771800234562443 7.568820836499679 7.537118508293026 -3.6354164571065133 0.8585211703500313 0.643542236173853
Ni 8.847874555778601 0.8609382101627898 4.818492612122568 -0.7140112887286929 0.9938635265394884 -0.2038224033387264
Ni 3.4891461792885843 7.748137217278698 12.558500647191101 0.3633027902269679 0.12233180286240222 -0.9697082694495235
Ni 0.050413159610147466 4.5246023846974035 6.422169759543924 1.1863085412792085 -1.7597681617033627 0.11437680968138365
Ni 7.5768814571092555 3.1502017151964674 4.994708896745304 0.5773003343264832 -0.433776213657182 1.3254026512016142
Ni 2.816547612446958 6.060539744230487 2.8431782352263903 0.48249759012228516 0.6488556779669664 -1.0146555235841752
P 8.832781738568256 0.9296026531508741 0.246066657999357 -0.4187013216019305 -0.02750231918532683 -0.3796429221478881
Ni 0.508228614990618 2.658577978661577 1.1564183255150835 0.9354832868283826 0.7332269424251953 -1.4346886766236517
P 8.68990492199322 4.581489983022462 3.860017186551436 -0.5872924125421886 1.0208901916399773 -0.6569963047962298
Ni 2.144736577503969 3.923483919008518 2.7393870900347568 0.3058049531208153 -1.3020832597493832 0.26629558217228333
P 2.779515083048708 8.976733304557902 7.007490335346157 -0.3388066048578165 -1.2314200889058664 -1.5637418573702875
P 5.746944542193316 0.9050427760107984 8.650398615925134 -2.561611676855691 0.29874753205340165 -0.7152868130070069
P 3.74396370644397 1.8328832107249582 13.434175895447677 1.4931105682059704 0.39827339276488183 0.08100980418516371
Ni 0.4524843276807575 5.188232352975731 1.9305779325130268 -0.20549516305545898 -0.9944597653625905 0.357134713743043
