# total energy = -340889.69195000443 ev
CRYSTAL
PRIMVEC
9.10605167488947 0.00000000000000 0.00000000000000

0.00000000000000 9.10605167488947 0.00000000000000

0.00000000000000 0.00000000000000 13.32762708001415

PRIMCOORD
 96 1
Ni 6.4762058048884645 2.243084625817804 11.214105483398274 -0.036613023237343396 0.15337555954208426 0.3468731839160349
Ni 4.859471843841159 0.43581017395785565 5.780125548708917 -0.6528275181305208 0.34825540897554214 0.2312195644047566
Ni 3.029064378071246 1.8493298413426198 4.470112550554109 -0.0997487753555637 -0.3148858323761609 1.5810590084924965
Ni 3.7248304754648167 4.630682293184628 4.369516175469022 -0.16567134619030177 -0.6192558528226626 1.5231886185382735
Ni 3.824851348078203 3.0004895876250686 2.615054092044603 0.4093329930131531 0.047319353911254 -0.8585232272325602
Ni 5.390454828451424 4.92794024708042 2.3461423666956263 -1.389295336090517 -0.6208057138082856 0.5501569411424718
Ni 5.392285144856676 2.997247833195866 0.4278860877098432 0.26953054416981326 1.5778204469505406 0.3618783990756155
Ni 5.944858578207502 8.19249622990902 12.224659594945106 -0.5339353370772869 0.1915818954084765 -0.08509708688065991
Ni 2.049717616536554 6.8078299981545145 0.22603496999688402 0.6787205838471988 0.45403702078874714 0.4114808925940913
Ni 0.6503323627051854 0.33320682506322813 0.16304476750090474 -0.028959877567459803 -0.05231912111869054 -0.5211240442452315
Ni 8.012751874071835 8.671620249703805 7.19834484941085 -0.2879162457658525 -1.1404932827173069 0.17606940159517417
Ni 8.871452555739925 2.93374222816985 1.5619046021452931 -0.08914066082241423 -0.9062956095208328 -1.405775336023411
Ni 7.083151473342581 0.938387740684818 4.866570011193865 0.10731578906954421 -0.0909553454336498 -1.0595675536055171
Ni 1.025223050338974 7.888390525084126 2.791177881699059 1.4341903968309944 -0.6569965619065459 -1.5409580267065524
Ni 8.028978858321386 3.985026798667192 3.6284866265551163 -0.7518499568430212 0.8586425264192439 -0.08073958124291257
Ni 7.626500476253009 4.313919176403014 12.373569038287437 1.048086292438795 -1.985566297982232 1.4171802354262433
Ni 8.969670430103362 7.559443511037697 9.45277925815157 -0.953427530011629 -0.8973296585767966 -0.7653014543622368
Ni 6.950813223006608 1.1771575240784447 13.321056456503443 2.0152170309691293 -0.6701081595878394 0.6755753533499979
Ni 2.2138086693855357 6.512147391214488 8.902615286098404 -0.8425263375836716 0.2657528222949359 1.4988143034589672
Ni 0.25359534627616975 5.287747670566647 1.303979328253713 -0.39644225309341397 -0.36748417529816707 0.8725766200018328
Ni 6.8000261117898315 2.102414338114637 7.019661348604571 -1.060357139386348 0.03545242727033895 -0.6683150722431587
Ni 3.533821933591329 4.525197789510788 0.177852118279913 0.19289161535883556 0.6995724875955436 1.5458598348835442
Ni 6.141485554021491 5.650168530910125 4.6102929326721895 -0.1235222236260776 0.18872899934071366 0.5395357139831998
Ni 5.547415842766512 3.0676285073062863 9.151108511569285 -0.4882524903281914 -0.37907753656272136 -0.436103576238778
P 0.3438181071878074 5.943601943063598 12.605283452771664 0.9094626943949048 -1.6195263113297593 -3.0443481224616606
P 4.215009242105254 6.550238005757622 12.516081480263155 -0.17204382537554885 -0.42696381872103883 -0.35576534419934214
P 2.4491910015216805 8.807728405471492 1.1346359047452812 1.217271051098994 0.013872644217034174 0.9515516531451548
P 6.628140278627935 8.065785519565313 5.653619724529978 -0.4971096836085052 -1.155113860843959 -0.13928257178412787
P 4.966049073727089 1.3362948847659475 12.491758305387187 -0.9419475543964874 -0.8166808372754774 -0.6755401292366882
P 4.256696747096521 6.053539306051709 8.200968500473431 0.5278428510263039 -0.06465758807938542 -1.2376910095162426
P 5.041183106860106 1.171174848067247 3.582079454932793 0.6964727656242973 1.7837524404331022 0.6211119321947948
P 0.3160191523522152 5.85776829910386 3.643786614734742 -0.29270415407279915 0.5560841052601841 -1.563397072436359
Ni 0.8857775265985254 0.46958725177876176 4.679569953308397 -0.13160294375168305 -0.7244314556207524 0.5766009942666134
Ni 2.1062661980122575 6.711642773335214 4.6776503975958255 0.1532364628610587 0.39846082618533957 0.16061244361015564
Ni 6.41959348105039 5.974262019364515 8.926364779713023 0.3791873226677082 0.23039604006219677 1.631636207219416
Ni 8.742438014299061 2.6249560127365 10.200352415865549 1.002240951969906 -0.03902703199547472 0.5265472721433319
Ni 2.747113697196494 5.336182759917575 6.912387505758431 -0.4002510853165429 -0.9779080316514964 -1.1618668632970766
Ni 0.9801389880384573 0.49620788351564926 8.96653430587466 -0.555024039426786 -0.06502679849334608 0.936920276385225
Ni 1.768167601939569 1.4625593985730498 11.397786385414516 -0.1044757485175878 -0.26821413935123484 0.12375773667565136
Ni 4.308346272721351 7.107273404474488 1.3360016698990367 -0.3415718263077795 1.1191459273897824 0.801467876980465
Ni 5.454652493411763 7.815642277514174 7.623549204875187 0.8288840642098885 0.8562004926366544 0.6571896517539585
Ni 5.440583643431093 3.0697957476269337 5.031832102300138 0.08463146009815103 -0.6073770991072055 -0.4891983991812284
Ni 1.1298697972502114 7.448804982063495 6.861288896265531 -0.557911131166594 0.24773324578906364 0.07033278408729178
Ni 5.635717226755222 4.596598341419161 7.147073224934369 -0.8666728529228881 0.04930835931682476 -0.8030203090692493
Ni 1.1674413668426031 7.840128450716777 11.39454827340602 0.26496863583074365 -0.1646465044702132 0.06798948066609581
Ni 5.109824525082948 -0.02396439643632993 9.807840607456617 -0.9934081841696245 1.3674000786793226 0.8841075034595678
Ni 8.441319094453881 7.722824291848821 4.297666695208516 -1.1598097236577316 -0.2165190249697884 1.5516602436154052
Ni 7.431321362670041 6.364802367565799 6.823705488805842 1.167956778244898 -1.120529180890554 -0.7934799736789818
Ni 2.4013295934321 5.5844501553046255 2.5404718856486928 0.04309374586568062 -0.11178385214322685 -1.3386086083689268
Ni 2.6795832172892773 5.405589086488882 11.46585139056048 -0.7596828226238788 0.5574316204270142 -0.5505397784031874
Ni 1.3721545166260636 3.6994519091890057 3.729016527462301 0.13208476848410802 -0.789601207449866 -0.473859711941629
Ni 1.5231510670334896 1.237913101470698 2.492053187190946 0.4448191017349049 0.6379773404915657 -0.6168480147121183
Ni 1.0830464790621168 3.2585368826103323 8.05861632500882 0.0713951639135351 0.8718225154446276 0.055206212858498464
Ni 3.901415031338704 2.997275151351168 7.2236141430654515 -0.6292687569739743 -0.7617505037861848 -0.6009994777156359
Ni 4.324236333055506 7.132397001300811 5.649448242215321 0.28877139467729623 -0.5420337978147052 0.18733211899318705
Ni 8.396262350308668 7.399167893879267 0.20386082333802966 -0.441460212565001 1.6120107196790043 0.6375831903769407
P 0.3341465696056263 5.663235715196379 8.034133794226925 0.0004990511236055922 0.3674823755259542 -0.1765435130181153
P 8.771759500990166 1.3898839994172383 7.507812197516404 0.70889505054805 2.3669897090693106 0.46985547587824245
P 1.82741157473843 3.3326146137383272 10.214999500133448 -0.20659122433311516 0.4371484725635245 0.7606104766444708
P 4.12209108987046 6.533400916039655 3.5712578230123864 0.7548856583455515 0.1559435773795766 -0.7571855101233218
P 7.148068516392548 4.1830834246086654 10.212681099353464 -0.2914294011254336 0.7814945191823315 0.4864514325637106
P 6.833764033588139 7.936033387931287 9.972983409284737 0.99059591153181 -0.4917754158797853 0.05391294796837167
P 2.661999431326381 8.620152845114324 5.608025723330487 -0.1888752951105908 1.0880371218001197 0.6920520108487823
P 7.129810882598862 4.327906071917778 1.3234171063564566 0.38288276924142445 -0.5953443363123876 0.15932894891204172
Ni 2.9698659355312214 2.028336606986642 0.5173093372763011 -0.02950880809239434 -1.43729680367046 -1.2975923138575653
Ni 1.7333278478774046 1.3228088220983927 6.83126169056245 1.095921666754519 -0.23922495120773637 -0.9959569187334075
Ni 7.194099608076877 1.1407333170087484 9.199461646454308 0.2186198733628751 -1.2220589594059406 -0.30526270746410006
Ni 3.0916866960758207 1.7679672688006858 9.335256554041196 1.0352585445465072 0.5057149087790129 -0.8234909182187753
Ni 6.8070559837542834 2.0749049557252492 2.3214731618524973 -1.2912054364946148 0.11087368162413162 0.7577526954807015
Ni 4.384645880480598 6.851074637998011 10.138433085057418 -0.5808368867248319 0.8170942706638122 1.116272205386413
Ni 7.5532240776805475 6.3387590595109655 11.436183873902213 -0.2272415535936151 1.506016220524045 -1.453184164324678
Ni 7.793059269130962 3.99903190628549 8.159332899977237 1.0171602922838998 0.31032855202278165 -0.3943095230211274
Ni 3.4403574182504886 8.696233907631152 12.140468682724208 0.6166826927788476 0.010288526410201634 1.9741889093832259
Ni 0.39096833263435254 5.142360448047954 10.42504333262156 -0.027135165653895205 -0.4372204634520406 -0.35314924673273373
Ni 8.807200254468981 2.5402970494547583 5.506389437133559 0.9336305498903599 0.40257227725055184 0.8349714080545491
Ni 3.8868726666661275 3.107813513755929 11.596541445526551 -0.5657902768043546 -1.3033099330676328 -0.21463569190414647
Ni 1.347131086369182 3.6722430265079424 12.670548346999146 -0.3618999963421703 1.0371940710063232 -0.031049413106636847
Ni 3.119860820244231 8.657533187619599 8.119950136688304 0.7712959813827749 -0.1582755679468629 -1.6176028690548012
Ni 5.8994011677845215 8.10835631157802 3.5148950049927383 -0.33579507172500234 0.3530165778096114 -0.01976638399364983
Ni 3.5146992248797386 8.739269108283999 3.4289721217256783 -1.1993980274733151 -0.688626015886369 -0.4035860632270468
Ni 3.5131511960792765 4.375212010849546 9.46965186147143 0.5649878355077173 0.062464951303440805 -1.019235943866006
Ni 5.261185317561071 4.933476726555014 11.243226636950498 0.8584185833338958 -0.2084449897124023 0.24202231144721545
Ni 8.272319879702259 -0.044833645876912416 2.045323946558772 -1.0386721982137466 0.4112371520144015 0.3679369465648696
Ni 4.8948488549576 0.7331874171318004 1.4492590993615502 -0.2864005804522745 -1.2608365943947704 -0.4128569470060115
Ni 6.119576393469069 6.021221928329121 0.20706615356016295 0.4970932285482729 -0.5832303266576729 -0.5136953558813282
Ni 8.119119664767116 0.00025314823913438923 11.351659680186629 0.5347722311562856 0.6794962856709588 0.01599663253857245
Ni 0.6291389378216826 4.999031193228699 5.55684789118721 -1.5194422641219638 0.285341800170457 2.2435646731427297
Ni 7.243764014416407 6.41807277040523 2.573498624803963 1.6765014431632224 -0.8725143993053296 -0.8658768393841539
P 8.670618584009388 1.6842371227992217 3.400770679401966 -0.23585063541886478 0.28471753632289676 0.4654048963060565
P 1.8149909201276637 3.450884014093631 1.6172675756808779 1.8528564943196153 1.0252240431286408 -0.5004300062309898
P 4.967396769388668 1.0170276037482922 7.946530844408774 0.12035359609010884 1.697181082999761 -0.20039640837631292
P 9.062488415768716 2.100028552551572 12.490185690246953 -2.424789650796914 -1.125293435048417 -0.17017926136298434
P 6.533992809404538 7.985470142976633 1.1522670421773678 -0.7700831920215964 1.0629680946466338 0.5238512133684076
P 2.0651705863858725 3.3998536999889866 5.819015674597233 1.3108075269962587 -0.7764741831496047 0.6135215214420466
P 7.311777115067297 4.13605066722992 5.812764370058896 -0.4378141311719815 0.391497507493629 -0.2531451608332544
P 2.8405964246408697 8.862792700509106 10.175257047799706 -1.5455343332233256 -0.6991670246270087 0.09430986372817951
