# total energy = -340890.8950816138 ev
CRYSTAL
PRIMVEC
9.12316237142891 0.00000000000000 0.00000000000000

0.00000000000000 9.12316237142891 0.00000000000000

0.00000000000000 0.00000000000000 13.35267031397368

PRIMCOORD
 96 1
Ni 6.820549033516828 1.8825918860061663 11.744474757589607 -0.8775846147393854 0.37482750303711576 -0.5704671134547338
Ni 4.502946528287553 0.20695984644390186 6.034044870961221 0.36622639163166604 0.339801364670918 0.2983829496251313
Ni 2.587301425691367 1.6465118181894562 4.715442309544269 0.5611144685952401 -0.27553047050699003 -0.047163030839047805
Ni 3.3830145081547762 4.200285622857273 4.6840631932148815 -0.2078657201701646 -0.05383092977752665 0.8859880083117323
Ni 5.061566871931908 4.416760015142117 3.0026415949311076 0.04451787990671688 0.44208833306730316 -1.0582246664243775
Ni 7.222862239475064 6.246902841756612 2.7814550893786008 -0.1911826030875288 -0.9074186673816824 -1.3141191078679948
Ni 5.093808127087616 4.778821829547727 11.320233119007641 0.0785446304741228 0.04613561801579796 0.3429748773028932
Ni 5.6684031277148925 8.042824687021628 12.69221986394005 -0.3267872117994372 -0.14207041894191014 -0.3315416957652871
Ni 1.9762776384662581 6.909144061478649 0.42005228250740384 0.26194167607896174 -0.7867231145711225 -0.48476735999306825
Ni 2.616157987677079 1.5178934777295892 0.4474035227328742 1.0264882545530452 -0.06940075919132564 -1.0174986494599252
Ni 0.39839298316808125 9.173430806908842 4.719968310303393 1.6000286076164638 -1.5273558625420858 0.77109440689493
Ni 8.704536763337035 2.5870551003124187 1.30686196400329 -0.272265426602473 -0.07964711950968219 0.5214678007378954
Ni 6.814436514854031 0.6077056931390508 4.748222743585009 0.28936711927976616 0.31188278388377905 0.44985023640090915
Ni 0.8973843387825248 7.514538857636676 2.539570865780888 0.15092324134684976 -0.16993243545950087 0.4525882041573625
Ni 7.30072842870935 3.9429029713426074 3.750698015097722 1.4829660235728008 0.01946556492377938 0.6713515450766373
Ni 7.481148084045875 4.1183778727757945 12.816333186913814 0.8952313812868712 0.11077700814526727 0.08036008641630676
Ni 8.050223571552268 8.615950858537397 7.003689215816406 -0.49862072093639287 0.9156739654119392 0.04888052775078679
Ni 7.157002131673973 0.5181326621911811 0.4528345411805802 1.3517808840848267 1.22101432019151 -0.09844856848690142
Ni 1.9810216828015632 6.415453263092691 9.146578603654797 -1.0962456257528412 0.5567147968656476 0.44475636681776953
Ni 0.1946919302560466 5.161766562190862 1.396422222524103 0.026366662918986847 -1.0465024928914428 0.2915589847247624
Ni 6.672908899904824 1.5736816144803403 6.868786841244697 -1.409652045369998 0.9290863821631032 1.060203387417303
Ni 3.4665826737536114 4.216579590516609 0.2169232518642608 -1.169288352572128 0.5539318348038719 -0.06533378821080361
Ni 5.961192771662865 5.711747271247652 4.9487261281518045 -0.8676257037544607 -0.20626418001099964 0.492166737780933
Ni 5.297756417694818 2.928544183994734 9.585722015346931 0.9567216273818685 -0.6446627229315414 -0.09602144710264754
P 0.3639056054828501 5.663622590730855 12.593277345429952 -0.5858361397116363 0.4952471764784696 -0.7025107442882611
P 3.770621176673567 6.299078206282784 12.64523192943129 0.38715851379864286 0.5324057878066379 -0.26320665883431443
P 2.6264854072685506 8.658829720798808 1.6005046236153988 0.1796550620639035 0.16695946887410598 -0.8159686416998012
P 6.1710893640135644 7.761584966397687 5.992624802332916 0.566347177749089 -0.03696603570138795 -0.17374332456515884
P 4.8727356610624 1.2851524872719593 12.703543532841936 -0.8653651898550581 -2.730954815470626 -1.040042596198712
P 3.993956186920236 6.160004721960881 8.41115411384715 0.8194085206192857 -0.014141067387072421 0.030966366474527312
P 4.8051330292843035 0.9138854022234214 3.8037346061339963 -0.4636025529899951 0.9541057870255762 -0.09505368387273952
P 0.06967723885857484 5.588940385098533 3.5738290944829294 0.01982037716003683 0.29154947164306566 0.7740840856508734
Ni 1.3841661664470861 1.108610175863328 2.463073150874094 -0.3760230660071137 0.4367029003856737 1.2778650106319671
Ni 1.7566557552281834 6.540321983895231 4.663780579049016 0.6535476841259971 -0.2897275879429784 0.0692889162038097
Ni 6.279016372641755 5.851121819921604 9.485549694574528 0.224450106891407 -0.6888265619329491 0.16398136008238856
Ni 8.646221510661515 2.4673044734946994 10.062238460922867 1.5694471352851809 -0.40831637882318067 1.541168600055462
Ni 2.295807270773421 5.13179697441879 7.1177342170047035 0.3726739470292227 0.03579978330742867 -1.5740638081215859
Ni 0.6787477570602442 0.3101783910693019 9.25054251063057 -0.8548681469784761 -0.5662471618361151 -0.3030685280262587
Ni 1.6065158751779611 1.0547652726576153 11.554893622788631 -0.6924934692615751 1.0861761573319813 -0.4299061891788144
Ni 4.262578574244702 6.772533830946231 1.6848665043241795 0.09176421448819035 2.033040946524428 0.5204041353600716
Ni 5.857206969097851 7.891891091861461 8.193665225927527 -1.1796241872804973 0.7887730551216158 -0.05174447956214315
Ni 5.495053923070409 2.797398727610099 5.016544978873645 -1.5639812270746032 -0.3762146131926295 -0.4678698129067813
Ni 0.7214578408212647 7.218455752140541 6.700516500987645 0.5597911217981262 -0.41441889217649275 0.6984183193864424
Ni 5.224789366552952 4.600491378351172 7.500862325207723 -0.2180172067818697 -0.3499482232969328 -0.255805738384553
Ni 8.413918431988684 7.296495281456308 9.197359036683146 -0.3064446435873432 -0.2396985484100452 -0.05575077250805882
Ni 4.732384934034837 0.49897675855495033 10.402918320119525 -0.13782192807820134 -0.7067679769027182 1.3344313370627858
Ni 8.041912370803301 7.068954493443147 4.884540120611345 0.8028467596058625 0.22732305756382787 0.49224798464082964
Ni 7.152851092880581 6.070798442132778 7.1420364964285215 1.224527732661407 -0.24760983283732196 0.030957624723778943
Ni 2.5941620436531934 5.230737668296451 2.43612789136578 -1.0081676018669863 0.26432123205473185 0.4508462817655913
Ni 2.532115417644713 5.23323741473467 11.14377747763975 -0.10390624916736299 0.47264229459476026 2.3555976651822848
Ni 0.6587735057761732 3.3400444142715324 3.5935506341745236 0.8569468838843757 0.8135386921020699 0.05143106208678239
Ni 3.6571472854379428 2.603586270188521 2.3027344878191847 0.9093238548241953 -0.603535099653296 1.6213001154007303
Ni 1.1061104294251094 3.5838244309709295 8.210249310144292 -0.777690572055209 -1.5572477650055114 1.2709070912568952
Ni 3.652832029725252 2.8066404909017604 7.1636538292218015 0.07617690157289461 -0.27175043463926746 -0.44544542246499413
Ni 3.816729638347859 6.759487709024142 6.354963048552679 0.84175937751066 0.7842420000204816 -1.4810196984797075
Ni 0.7222789254177597 7.51004113868032 11.260720907453676 0.829286956075262 -0.7330433656594796 0.5437127281790248
P 0.1441788058796676 5.494196345825181 8.067402485943381 -0.6509328722109693 1.0795725359725343 0.15972284191635072
P 8.53357782718457 1.5879046243240722 7.969301122986583 0.9852125357327097 -0.006938378991046115 -0.5239867105050072
P 1.8389101854726264 3.2530641860161507 10.536525205661208 -1.070442291536492 -0.7267737306006838 -0.4193163294781101
P 3.949772712466616 6.171928694934426 3.872034247502896 0.5049865152534206 0.7669945257939437 0.5060368108948059
P 6.985358958357763 3.7988026246577156 10.672148310045397 0.21779274947588945 1.4193487038324715 -0.585493925880869
P 6.442649409561046 7.999389311867037 10.385426481265524 0.1492111437517495 -0.49065312934988403 0.18743830555374816
P 2.381948168107941 8.65908516933994 6.003868187407589 -1.1161670472671164 0.04379745680092457 -0.7792391474892516
P 6.804775086101938 4.275150291733261 1.6171014802592198 0.6491004469879208 -0.6124969368322741 -0.10380186237901479
Ni 5.364364624794938 2.878704348987481 0.4747210072582665 0.9865983603366429 1.2548464382496065 0.4730991796265207
Ni 1.6108858698637518 1.4794211028027018 7.062027276397384 -0.5342112164464928 -1.047206718047319 -0.25310093785888027
Ni 6.90675379298663 0.8896013691239696 9.279597957551879 -0.06410377245844444 -0.6381550037200107 0.3032916997806583
Ni 2.7548665455116526 1.58264055974432 9.349886448276733 0.14799526906677737 0.32701398309826263 -0.4441956092182931
Ni 6.284928181736519 2.0825989705501913 2.6109012216270733 1.5070114945577788 0.5415152063070738 0.5172074827996447
Ni 4.263782831652895 7.024807511638262 10.43654082202978 -0.04167295425875404 0.7040508350818713 0.22900455903130884
Ni 8.539781577469201 7.321994519758573 0.5577864866208032 -1.2154764210924163 -1.1774312933942368 -0.5729243167459747
Ni 7.566677729514116 3.6852466249624425 8.384662275499345 -0.3114870911072571 0.8167795676368708 -0.9186651868297793
Ni 3.2315791390745288 8.579129775965683 12.297915882062513 0.40431111431852956 -0.24226810890943437 0.5440865665786758
Ni 9.409994402321265 4.995305344994754 10.414949034090613 -1.2625466351073418 -0.5584286942329608 -0.17490237787026652
Ni 8.739487597661178 2.035331867278623 5.622569273222317 0.06208597069746727 1.472314457396226 0.5731955681294902
Ni 3.7088026297196683 2.7945614241710994 11.567484498917775 -0.09531670772613908 -0.567538884064345 0.2735633194782902
Ni 1.052393250489963 3.4686445084070328 12.81016410464548 0.04503055787707728 0.07951367925561145 -0.7300238621068653
Ni 3.035394659485297 8.347419702834763 8.123684185768248 0.7514444938744864 0.9199078009876286 -0.0741560144881239
Ni 5.728041238906988 7.922836857987143 3.7503641073618144 -1.3761181752786107 -0.5740016089705534 -0.6316899648209573
Ni 3.2324823321306733 8.438633078343187 3.722404352218719 -0.24342973331770332 -0.3547800974679374 0.3829020525151341
Ni 3.4715183044947655 4.178846191726568 9.32048432119246 -0.6913141042414932 0.5248729697647025 -1.1312370542263614
Ni 7.484496284567139 6.418418290802257 11.684520984985971 -0.028464168877963887 -0.16385794713064683 -0.054523070748544816
Ni 0.667526267574811 9.097015200461698 0.4067707830009863 0.8013956289816326 0.8449220915093577 -0.46398024804438803
Ni 5.102456884837364 0.5004857295800647 1.5034971278043752 -2.3505701300607065 -1.6542354326761703 -0.11152468494456924
Ni 5.500272371839244 5.500974855327357 0.25968898691459935 1.8699023940583086 -0.11251533099261267 0.040533955558304385
Ni 8.092764876812897 8.998567157341933 11.495500924659268 -0.058239086147551314 -0.7933187655107692 -0.7000815660214782
Ni -0.2073238606150147 4.617250627281856 5.8646396093285675 0.3532065823332304 0.5404214590222628 -0.12229735008004099
Ni 7.982319875422123 8.669503820553244 2.9688858948529755 -0.18139544179377792 -0.3181200230427424 -1.5528828031685964
P 8.491839360196069 1.539697835347626 3.458488604264607 -0.7063617426032351 0.986986854024313 -0.5253493951804888
P 1.8723374517121607 3.432571525134348 1.6205199291292944 -1.5091712212132589 -1.340020401114789 -1.2300746306215655
P 4.76191661002211 1.200608143319513 8.348129484852622 0.2960172776064321 -0.30515729223448734 -1.6545393370698345
P 8.832817546796122 1.5423253060564104 12.591768374404838 0.00891170066733304 1.3429347465481065 0.8442821439325138
P 6.627402566934629 7.835792767596479 1.3970635808255876 -1.5490037798291645 -0.7043485688279483 0.21565796252107372
P 1.6668655930203518 3.396179231185248 5.731713311685757 0.1021895235865724 -0.8407090818692746 1.051015807380764
P 6.844862260735266 3.888912097541962 6.178600463439058 0.5447761364465328 0.3059090827988474 0.2472323948932452
P 2.3849040726553232 8.494220505525906 10.225715491768824 0.6430534694628925 0.19777876824780777 0.4092676869928565
