# total energy = -340885.25878604106 ev
CRYSTAL
PRIMVEC
9.14612938535197 0.00000000000000 0.00000000000000
0.00000000000000 9.14612938535197 0.00000000000000
0.00000000000000 0.00000000000000 13.38628486038660
PRIMCOORD
 96 1
Ni 8.837914113361029 7.734241516547625 12.094388045721365 0.009324619835035554 0.11937040624123313 -1.1926763924787653
Ni 4.69866856310746 5.563855832361553 11.724578931882954 0.8064095372564564 0.37382811523832393 0.74870806877993
Ni 2.535682097713161 2.8676957458715697 8.250623758434637 -2.213743476016239 0.46354393183791787 0.38106525641671146
Ni 2.0141057688646558 2.6514812437238384 12.629973501174765 0.8129437388305483 0.8406376052013909 0.05832830342724793
Ni 2.903237605234771 6.7345055357412775 8.184455169718987 0.31849360433207724 0.5731721710907225 -0.3050251375319973
Ni 8.543738003078474 4.903221750101284 6.496364102652389 -0.8733489793914829 1.5754267499073835 0.16781821732997548
Ni 4.8940207437916134 5.588541235969706 7.420553053520485 0.4601220506405624 0.24156619774640328 -0.3809642120624729
Ni 3.1128028712123923 7.153983620618754 12.790996599271724 -0.5261387238510035 -0.47992957228479277 -1.049223748477348
Ni 1.6165326642174593 6.428787009988738 10.58656993557873 2.129196348101778 1.2937014634435913 0.33830806795484314
Ni 5.316800581430313 1.270004108491011 1.800121093096942 -0.026041418369084187 -1.759676887541137 -0.5019397580072968
Ni 2.475180450855832 1.5851614399210667 6.211450277747371 1.5545594195400712 -0.5897547580397521 -1.585219053407457
Ni 2.8300777151044962 4.382962463905455 0.8979587659819082 1.3460763775008817 -0.15139966676263603 -0.3642898367305855
Ni 0.5861196503462346 1.2872171242711308 7.409563064274263 -1.2149568011435206 -0.6641899943311915 1.0301207090993096
Ni 7.881192379745917 4.999722562798438 1.7763731677658685 1.2352687732279952 0.2718867031068156 -0.9834181628364482
Ni 5.493458073350086 8.445746371267525 3.461091142260889 0.2605813053963254 1.359257652077846 0.22064718820554904
Ni 1.2859641045251815 8.8392860327909 0.49772871070552743 -0.4600829698725109 0.3008951745240237 -0.8344769849166337
Ni 6.2881286839087895 1.9171567958204108 4.021842173122895 0.023056881819463516 -0.115081291947576 0.031579060357861746
Ni 4.6682393901529124 3.0804255726674277 7.312980851024269 0.006449869390401795 0.6275060086465967 -1.0504403944932683
Ni 3.5343113968460784 0.6663549862828331 3.971001582890721 0.6151387453304954 -0.5437978316936635 -0.47668946808094037
Ni 7.113457120660354 6.168808278028108 12.83360567292467 0.11284597485915403 -0.772949714936114 0.31344704304710536
Ni 5.981385791648612 4.325826592716078 0.6042116091744252 -1.504104605323629 -0.5139900043036116 -0.5394171861274646
Ni 0.6569555089623075 5.008951007496706 13.662042879104321 -0.2621167682042454 0.876516064265555 -0.6912986776225256
Ni 4.088411362312068 7.939681878106099 1.4319043204101336 0.8132831244478381 2.7934030546035182 1.6447411200324902
Ni 6.088029661997282 1.9388879995895736 12.886053238115698 1.0717916064755348 0.8639325711735896 -0.25056505881090396
P 5.1737825539309865 6.435436246158848 9.604123798040574 -0.19354904643717635 -0.6225905736228503 -1.5690581273768784
P 2.371344442273633 4.977076746076027 12.020442503064253 0.17430459638526755 -0.7546743136656938 -0.20477371150840215
P 0.3847474872038054 1.9869417641532021 0.53983566184714 0.5359644516921738 -1.2329864049517216 1.8698861961083924
P 6.703856855677951 4.197643587318428 7.600236999702553 0.6547239638222854 -0.2736224548509998 -0.05175450686447216
P 4.23499638032906 2.6208051252719144 0.4510953400582924 -0.022608995648767515 0.8539633757760197 -0.24009681228972843
P 2.3960024074931883 8.781171525741549 11.5184965120313 -1.191356131005445 -1.9086520040226804 0.5278258817454394
P 2.4479615693671843 4.819717587469778 3.0462501450563777 -0.2573262887941375 0.28331911331347337 0.1139021840378103
P 7.144444207516382 0.36276476487249953 11.783986701648198 1.0836024830675337 -0.9184111618374441 -0.9862060099942306
Ni 8.846813297396128 3.2855641119513304 12.4575845079078 -0.7674861207183814 -0.16880320695106413 0.3511625553200081
Ni 1.942180606221265 6.740112113144686 1.5163313275114658 -1.0387776134433593 -1.3167976831414225 0.4382962130147226
Ni 4.3856331337289385 3.1702222724172766 2.6679268992361838 -0.20302561846904388 0.0522396740310068 0.512431144456924
Ni 1.09276126428116 3.49575131473716 5.999103673778924 -0.2508738483005744 -0.1884423213382303 0.15935697393649975
Ni 0.846364534676258 3.5116381417350704 2.191950428397744 -0.9622880657260524 -0.03797750768503782 -0.7102937306677897
Ni 7.657231105884178 2.386097149209517 1.7785417150780185 0.2201766763270337 -0.08621577386613538 -0.6363207787247493
Ni 1.5112058365214662 8.596483732092262 4.718304388600732 -0.5792070644308928 1.1481950222369386 0.1047544561002712
Ni 2.7717985777235596 1.514425274116898 1.563263776594413 -0.7574392780053407 0.44660730398357923 0.20040360746516453
Ni 1.6105968261508823 8.541323424881899 9.268623645304386 -0.06521885989949414 0.7977179230197294 0.22466016601968405
Ni 2.847116954423499 1.316411569738794 10.353729599166863 -0.5737301004767216 0.7761995893319793 0.13060458439415573
Ni 6.973896330124303 7.516490464638439 6.237299069032055 -0.6962465085461041 -1.392874054580711 -0.7357738772167651
Ni 6.400744976842166 1.9508602831475845 8.469435761369592 -0.19513850241148328 -0.2267864683340675 0.9599211081557726
Ni 1.1366809782961094 3.635330397532275 10.214860256023469 1.511244301692204 -0.024400540331551528 0.9298700544066631
Ni 3.503123095140335 4.863948269888833 5.143814345904876 0.8529269640917052 -0.2585848437915869 -0.9484187639431281
Ni 5.899335863612771 4.029272488755079 9.882090222952723 1.0401179295213376 0.42307014009358757 -0.723207096295348
Ni 7.919176255694289 0.19544181275357178 5.078957312164183 1.202578996304458 0.4835514853080962 -1.1833039501249298
Ni 0.4196006430132115 0.8674683139594931 11.977954158321134 -0.4606545261052647 0.3465199143416742 -1.3495766773446565
Ni 6.839292741794855 7.3766095595687515 1.7005801069431936 -0.0779134246480271 0.14979529838999364 -1.025880188655401
Ni 6.9925087037228915 6.070459947165395 3.6293030981703738 -0.6265672988824112 -0.2547078773346839 1.9265815919179081
Ni 7.8064959398541856 0.18270491276664577 0.4278989263380269 0.8526009482108542 0.14936618127237503 0.22635400878233924
Ni 5.650332487091113 0.8818881017803946 6.247887543191803 -1.1817471471607712 -0.6601353646458438 -0.5017325270924972
Ni 4.283269652001468 8.052819500422826 5.980443740306768 -0.9489869777417721 -0.20962538317374865 0.396844116517523
Ni 2.256212963718826 2.7057635224990837 3.7990808714558177 0.4773530698068682 0.1644986660384393 1.4585991646926622
Ni 7.855647239961711 2.3710974967762564 10.513253646633448 -0.7135628883373647 -0.9235469404021128 0.6849174566865301
P 6.537653389813799 3.829749673004116 2.966655038187053 -0.6201703942171319 1.1079955671999175 0.6889690010480843
P 4.232554363743889 2.6871877334186247 9.470702804259675 1.3268170150506375 -0.7823334701438591 -0.14555734904924608
P 8.705130604808543 6.898276131149792 4.95244347540621 0.02144685701986629 1.0145966453217816 1.2963484141481352
P 5.006966297388158 6.497520173425294 0.5078050016114561 2.1275976361560907 -4.101367712834343 -1.4778502996127902
P 8.939134328896941 7.03084927872303 0.7204150141104385 -0.36618859641519513 -0.5408215226741588 0.8984573444233365
P 2.28902927648135 8.673082566926748 6.9575082952280125 -0.8509790963367151 -1.017568326355596 0.37863556392929626
P 2.3948317029130313 8.68879561746354 2.3136451695050555 -1.7289843435532868 0.428667688786023 2.870337660278044
P 5.071400779944452 6.739179207932374 4.508568090000854 0.2698794428687997 -2.2959228750294716 1.3282810011906736
Ni 7.331436825807852 6.256885505425853 8.36487537932842 -0.5164207252322912 -0.48511445891984195 0.6278559357868477
Ni 5.6837524444027805 8.292996861945646 8.22332896407087 0.31486012134454805 -0.6068353676711226 0.36555096283119626
Ni 9.020123305907013 7.896118863142917 2.96362949853771 -0.7114417282293037 -0.1554830928033903 -0.8438000620897728
Ni 0.26231282421731633 5.520859877429385 3.536375678281558 1.888168282247032 -0.3394938607328282 -0.28508777517812195
Ni 3.041710006356457 6.92575110426535 3.656717706831017 -0.5431455428216453 1.0479207133952084 1.1796576116215942
Ni 1.63334325029815 6.56178087952047 5.88355330249153 -0.3971768172665934 -0.5319681860485871 0.6739568439099682
Ni 4.5542328855306 5.45978202441151 2.63887879184104 1.3742682665540655 0.9911232447901899 -0.6504867858124861
Ni 8.002698710584859 0.14161958429381064 9.349476344984426 0.32906752319318167 0.09887871404578455 1.002944405794834
Ni 6.075664094869374 4.075003136417458 5.457079343134663 -0.25279137703826143 0.09849999055012713 -0.8863173666266928
Ni 4.198292962515234 3.117577150828345 11.658222847511887 0.16879935029632218 0.6603521086423402 -0.039969341304086005
Ni 4.251935012223205 8.24783327431428 10.210951200261288 -1.2568274732353772 -0.4040946274323492 0.6415146642208629
Ni 3.8305088017553115 0.5737421932499349 8.15021297536235 -0.07264009206422974 0.5002669982905642 -0.1444227212241706
Ni 8.446807322293292 3.525851227028538 4.454808055221914 -1.3449080682243932 -0.01365667155148616 -1.2255003809873217
Ni 9.105200602818107 7.947949979203458 7.569449298470333 0.3020395725411121 -0.32077802949087975 -1.0397214654138673
Ni 7.5941045198510295 2.3597197116378563 6.524140898042519 1.0097339179128415 0.6187061509667796 -1.2964404596413093
Ni 3.786268973206725 0.7886241043247842 12.69154981825216 0.3117845677430179 -0.5971394805395974 0.22409066666945923
Ni 0.5902189456026903 1.0245951608756168 2.7564102147851686 -0.21484832213558486 0.1121008691630134 -0.3796449790304171
Ni 5.553008522736037 1.0036505242462468 10.569971539703193 -0.653835647680061 0.5193178442744282 -0.3402677627843753
Ni 5.5238232233979065 8.201114844662392 12.74520284331557 0.5730086489296647 0.9496672916382483 -0.5826240605322417
Ni 8.706109240668518 3.3281667833136033 8.560221157721902 -0.2910673898003245 0.49779333993909103 -1.3804635967315
Ni 6.752294757681944 7.287462235015708 10.683700916600671 0.8080668703542212 1.0028788426642212 0.06582898267966728
Ni 3.682643325603773 4.890462899403481 9.695552167299017 -2.0490594334398713 -0.5183282266676492 -0.46511976096547
Ni 0.7584967536448086 5.6809079981181805 8.500571930137 -0.28538473759325045 -0.915929533066171 -0.5154473055754284
Ni 8.999233546054839 5.203004437787248 11.218081826794643 -2.109263356623277 1.016450924921701 0.15899907637644872
P 7.359643489286008 0.2977531615427073 7.25896746845728 1.7544557483515137 -0.5075182805363389 0.807710772566383
P 2.4727933110478566 4.696025331672574 6.987814910046826 1.055178423398886 1.5756540354268413 2.0882476736035587
P 7.182354914428495 0.3756836728371218 2.5039313090411706 0.7914344040038628 -0.9898793450807598 1.6001119113588893
P 0.4521224504047894 1.7687791364150538 4.813239383921926 0.31466137507018066 -1.0522396524855362 0.6787203267368828
P 8.864483619652871 7.224573448350403 9.780823362156196 -0.3271294256302043 -0.7179376203662925 -0.34350452455411806
P 0.7203418450741788 1.5523359810290105 9.806109666474633 -0.5105035884169079 0.4852011050963773 -1.4000656872331434
P 4.368118295674247 2.2314269526858164 5.208911008239321 -0.41589213428790955 1.7693830590853077 -0.5982671663861373
P 6.974051814326356 4.046851349716498 11.726640469479573 -0.5595095860019654 0.7998719932482546 1.385246362832124
