# total energy = -340888.94115867134 ev
CRYSTAL
PRIMVEC
9.07911558905344 0.00000000000000 0.00000000000000
0.00000000000000 9.07911558905344 0.00000000000000
0.00000000000000 0.00000000000000 13.28820339565069
PRIMCOORD
 96 1
Ni 6.327026834430161 2.051653145261439 11.294295409037016 1.0472655963097126 0.4057858990918431 1.3594749102949748
Ni 4.606906674022652 1.0436443369744546 6.30025615420395 -0.1138312215905588 -0.7003888128492519 -0.6811255937442656
Ni 2.493606333910786 1.8364417893358844 4.579739236445195 1.4931344794653703 -0.1402336228434875 1.182336186895022
Ni 3.660472427661381 4.27822453146372 4.838978855508843 -0.705127870196134 0.5386787652995433 0.08976106801523251
Ni 4.171454132135145 3.1117760770302265 2.596369211618303 0.17320442134255332 -1.5940171113150612 -0.3337944963552058
Ni 5.462368182180494 4.829444876228662 3.281123372645558 0.7424170935648956 -0.4955500524308691 -1.5312541691552273
Ni 5.699995874495696 3.2746100151218918 0.277206280903046 -1.0256829850429303 -0.3349800320228747 -0.7264834530537747
Ni 5.739344761459135 8.261559388591378 12.705555859951415 -1.2233686793562994 -0.6762824067193514 -0.3365594606948526
Ni 2.379436455377043 5.30909455280422 11.462430642721195 0.26966347020325165 0.8478107259110624 0.7364624186433575
Ni 0.9884160768455672 0.6308714258286817 -0.06607326370014435 -1.9105854735999677 -0.20191181657957485 0.5041159397230093
Ni 8.000798109754985 0.39264541979615425 6.93210994033938 0.11449482331648671 -0.11764416757874577 -0.051987705921200784
Ni 8.766975595208985 2.623392291257892 1.302843100017952 0.24902059714191954 -0.2587625070200318 -0.3814784326947301
Ni 0.5058937680975972 0.16705754266374387 4.632081245728287 1.339332631019145 1.469300096049934 -0.5445935881220815
Ni 1.929784176708084 6.639339331581829 0.6492284896384132 1.9140978576286 -0.5509346998487609 -1.647008318800112
Ni 7.77365679594527 4.264678491004687 3.6481302779294706 1.3038452367458127 -0.25135695858458 1.1802795614763093
Ni 7.867743670795781 4.263725183867824 12.445837771496219 0.4091579008878696 -1.1972555272090155 0.336364313964911
Ni 7.9822313183751445 7.420442883064415 9.383743522881458 0.7166525830062819 0.6577300976384609 -1.3754939114310505
Ni 6.86197740405932 1.0234614630197418 0.5469813056963609 0.17345716078330775 0.3759135370124429 -1.1755376759159495
Ni 1.950157712090169 6.623432721069612 9.29376948739284 0.7328600460040798 0.7167888514738301 -0.3996826144075826
Ni 0.39398822099179176 5.058202272613249 1.6761073317659168 -0.709316711466501 -0.04378382995416975 0.14915509370283345
Ni 6.447733676188102 2.5578138393573573 7.031692403856012 -0.12677261224257522 -0.9271559979096098 1.183823827184142
Ni 3.4971300590967234 4.425197254621114 0.4227499512667058 0.8484504163775906 0.8315909216180905 -0.8435478368696503
Ni 6.193709101118871 6.270591051927914 4.928607884605075 0.8445027445837521 -0.02609309754262603 0.46068537934320014
Ni 5.664669035738257 3.4269303373613034 9.387531329905258 0.1943733421106846 -1.4056742916691727 -0.6178044650881167
P 0.4421102573490401 5.760608050168957 12.635965346872029 -0.47345707718657165 -0.34260052468260993 -0.05270530081351568
P 4.174413923817213 6.3287427872765125 12.728889187015568 0.2912764204873371 0.03843156450332091 0.14242188874405795
P 2.335820384086697 8.677573544002483 1.0904535332175098 0.6190889882274951 0.5982954485209115 3.5014882076557634
P 6.3198997286926675 8.385752610735558 6.055274378261526 -0.47269551643019886 0.37336865910340217 -0.7777412227874864
P 4.759562923538863 1.2217221101403262 12.653014110125362 1.0505105856095716 1.1278781650564575 0.05102174246350568
P 4.007022269699788 6.51350278951601 8.219351488128911 -0.9416012268006623 0.0397220011799703 -0.051974593295078225
P 4.637911853759648 1.1907078512877405 3.6736698300817903 1.2065413233863156 0.3825693517660637 -0.0114033567409352
P 0.37044425844597045 6.156938682982754 3.7774640953202363 -3.2091954300887697 -4.407678659057299 2.184251637204709
Ni 1.200767511360535 7.477804735356756 2.715258414435294 0.7649983212995212 3.6399320855886796 -2.1622463365782116
Ni 2.0027257913514314 6.756323735948213 5.000869473490794 1.2728032798383433 0.704757888451225 -0.8808059498901605
Ni 5.986414733987067 5.9955120078074104 8.924131454411185 -0.44972810900074806 -0.5394043306116582 1.3915658772922486
Ni 8.729460689594557 2.9000420223753225 10.417181118110575 -0.019140063263560585 -1.2794377544357256 -0.3074653715423737
Ni 2.281554510210261 5.60996736431354 6.952334578225803 1.7464611601818116 -0.01793395877060137 0.6788884768836307
Ni 0.7428250922471096 0.10792435491995683 9.072959040883447 -1.101747786517993 0.5208322240364256 0.028286762759835157
Ni 1.7594145726774129 1.5311020529566945 11.294427964124619 -0.6831071429506688 1.1052704549592707 0.06865436794360434
Ni 4.53901304764688 7.1017659258847425 1.6144365312149582 -0.6076267532241665 -1.034555862052528 -0.8563077076384801
Ni 5.566650903837637 8.24383695496133 8.2427392898866 -0.33002885866518644 0.7585006293903195 0.03584169228895762
Ni 7.100458533239903 0.8309188428972135 4.508740552537929 -0.580802948163103 -0.18270104797907888 0.6873769739706161
Ni 0.8798026170523928 8.080367478778422 6.852779352055937 0.014141067387072421 -1.2533605977326994 0.3357873584155185
Ni 4.9575239598450045 5.189749578384653 6.680445027411771 0.2574666710267437 -0.13983484474317207 0.616877325288157
Ni 0.6898375578456281 7.514847526960547 11.36368618157344 0.9962140290495359 0.18456946864638538 -0.1564104897136661
Ni 4.571643389074337 0.5569183977087014 10.495674611936696 -0.1730756090741729 1.3232390678913921 -0.9255619139496124
Ni 8.191069135157106 7.581687975927975 5.068107587721028 0.2946404518635635 -0.519797355014008 -1.4396012834339207
Ni 7.296867040780298 6.681402874106428 6.965622771802103 0.7838866735635919 -0.9283286780614721 2.007436615692762
Ni 2.681798241842987 5.484030951976241 2.6029597416244776 1.2544003518511235 0.7032411946963825 1.4441073988343904
Ni 3.6946008231610503 4.442220596350798 9.381684379465836 -1.3941791465453794 1.8910620588550593 -0.00934004645400327
Ni 1.332396529172241 3.864616341683744 3.9485364228975084 -1.5906803336323443 0.4315725211376438 -0.8411950203667578
Ni 1.6053964558228273 1.3511993775574007 2.5354156611988885 -0.9482660404153475 0.641266809876115 -1.6215361426709363
Ni 1.1122733717129487 3.8250132394838086 8.034818463779144 -0.8510441452466956 -0.7317781257938107 0.5573742848265175
Ni 5.560349997618757 2.784083558070514 4.889832797746871 -0.46951300493715914 0.005616831966145165 -1.1297033911906544
Ni 4.1923724144525805 7.687241773767601 6.099285391080001 0.48435135550157227 -1.6126928333476935 -0.39385957996790233
Ni 8.725229821730007 7.503752847710588 0.6636207036703566 0.15958374523532518 -0.4566577462410458 -1.1554486184755584
P 0.3016799448851977 6.089426379461727 7.83049932282591 -0.5992981787538131 0.4691355669930824 0.7238010211256051
P 8.519197451665098 2.0905026808674734 8.193705710324199 0.56868019675764 0.06797713937092163 -0.3202257565318356
P 1.7254768386051162 3.672447781123489 10.267515529269433 0.9249962712541296 -0.4148516088385371 0.360741714368011
P 4.253247884477928 6.356679225944371 4.081724324855874 -2.3223964958399677 0.7384097721777154 -0.40742317758495
P 7.2781277462042615 4.551587622737872 10.276073503623781 -2.7159454865459867 0.021161721679279683 1.3836643630569847
P 6.190077454883204 8.022233901661004 10.530741787988283 0.44965328989875464 0.17682222060079872 -1.491958199769082
P 2.568690619833176 9.009397060555266 5.680747241535109 -1.0941504337867092 -0.22654504174722276 0.6534381551313262
P 7.139880053128055 4.19389770587156 1.5138980368267867 0.3470325923120346 1.5297441602686042 0.0307143983647213
Ni 2.9815089265568955 2.026676498275647 0.20447530174136735 0.12771080778612845 -0.41145646711405914 1.2008147053151834
Ni 1.5416973808492496 1.3619490504149714 7.046388768260193 -0.6352028630702221 1.4600893760849436 -0.4719673800149226
Ni 7.001922891750701 0.9075801711974414 9.27474056902951 -0.20060878149743516 0.08580156914685223 -0.2222137613617205
Ni 2.663476586584053 2.059733558135795 9.173218806423032 0.758419382530423 -0.7797957913236699 -0.2792382583758804
Ni 6.737838656608675 2.3098450343860977 2.5137692338112028 -1.424362354996979 -0.5276867850644138 0.9272141048410548
Ni 4.037382832229954 7.431010973610203 10.620383527846341 0.32557313688667805 -2.98666747992074 -0.6636842583393666
Ni 7.5340044608536845 6.5516713914528575 11.496369284705048 -0.3823523506592512 -1.1493718161538593 0.6351355001673965
Ni 7.612057617573731 4.28441648829553 8.205598443834445 1.446240128906677 0.26980230977396114 -1.5476333818441992
Ni 3.1624738584801215 8.639559287030652 12.495083802363405 0.4819409462878668 -0.04405456711705316 -0.566050986664909
Ni 0.04871853425145649 5.28572490927771 10.047689258889909 2.4635852835078733 0.8028303045456302 -0.28024407393257544
Ni 8.595207807377584 2.7267580222405297 5.760701565059526 0.1628207641153841 -0.5439659818404116 -0.19723086616413776
Ni 3.8669315161589806 2.9774414827729494 11.351036249823059 -0.006429300565111507 0.1789598357690918 0.17724722395335926
Ni 1.2537623090544876 3.6225943574233868 13.05067664919609 -0.3524751034838446 0.24421237711999877 -0.8756228630273242
Ni 3.055912278810098 8.804109177968668 8.072251657353268 0.5199657622710722 -0.35640760576903135 0.7349948329588954
Ni 5.609704069961455 8.024031566547658 3.4951962074762313 0.35006263738761 1.8521445558542553 0.2747902499068558
Ni 3.0246801211833723 8.807277789309286 3.4753701427641728 0.8229669273945053 -1.1265571322521888 0.16684299790089974
Ni 3.6656293653160263 3.2445672216373462 7.317614635724656 0.3342696362194114 -0.40149627057755366 -0.8478269238609786
Ni 5.482896062527596 4.913916967670247 11.435097057328456 -0.8653723889439097 -0.029215702332007747 0.005376948041197191
Ni 8.286835646391612 -0.007085341805783944 2.397922442628141 0.561432256945975 0.9098661004809104 0.998649377963906
Ni 4.5247134405939455 0.47401063788312836 1.5945441889590988 0.25504906272418654 0.32152210674575593 -0.49019161633243324
Ni 6.42526286510492 5.915761056472189 0.17266571236317077 -0.8161589033337363 0.2126891097007369 1.4481699989395382
Ni 7.890695675005188 8.909935349275969 11.562358112630214 0.21469379883559153 1.6774774339232466 0.2414037040266101
Ni 9.234096092271496 5.035431850715625 5.899896209891683 -0.8536414736602267 0.770810299995608 -0.6086899043813582
Ni 7.386260012871212 6.376825783436728 2.523881552754414 0.2943020946875383 0.1327915647431455 0.3303332772794827
P 8.740500894150982 2.0917737570499564 3.5410275829703335 0.15742864656553532 -0.8364989004426691 0.3693484822004155
P 2.239254910680344 3.5168408190407994 1.920450845882423 -2.049811224004231 -0.954779158943517 -1.2628819069595736
P 4.811731521714202 1.530530068674577 8.374026025040594 -0.012655998201113688 0.06461079400185002 0.874806537773616
P 8.452311607119723 1.8345170168309815 12.363902384950245 -0.40942272451348194 0.8044858378711822 0.1551269950155522
P 6.740317255164516 8.083599643928165 1.336527526765311 -1.5037811605459392 -0.7264716259792326 0.4987320497032765
P 1.945954081572386 3.435382993974816 5.96595131536065 -0.47803929724061545 0.3538321317323713 1.0212722575697444
P 6.823500112192441 4.314713497016572 5.767425558064861 1.0028837277602276 0.9083095546270679 0.40679222886917044
P 2.3014468524661202 8.759449008385568 10.39544117583232 0.5006765750241571 -0.48260223402094954 -0.5805088139614518
