# total energy = -340891.0897201527 ev
CRYSTAL
PRIMVEC
9.05966365239523 0.00000000000000 0.00000000000000

0.00000000000000 9.05966365239523 0.00000000000000

0.00000000000000 0.00000000000000 13.25973352011535

PRIMCOORD
 96 1
Ni 6.700663067008115 2.0982905587685696 11.495750926651814 -0.2737173285576512 0.4377652802119171 0.04926259368055387
Ni 4.648884820977956 0.34662272796486077 5.979092572945039 0.13183588569809554 -0.7168328173378881 -0.03216115811357687
Ni 2.7778559227164052 1.5993114686451864 4.755510719363655 -1.0720996246342567 -0.2598565114151589 0.39861663503691347
Ni 3.260654453714194 4.18563704395163 4.6296230702741905 -0.11889140972228557 -0.14233627100878712 0.17217058076140027
Ni 5.0705849808990315 4.4500523847352795 2.9030459777114297 0.6896084344042963 -0.013251722803583629 -0.14191718119349753
Ni 7.199361307561008 5.715506191377511 2.609223874964865 -0.10556769603018593 0.8417156687569182 -0.5699418370788829
Ni 4.891593207861872 4.74047801961164 11.55141531152274 -0.36566820513535087 -0.7255995077869245 0.2537897363957887
Ni 5.6150526417780755 8.021525776008763 12.436450221240358 -0.22581613400099818 -0.7668415451558471 0.8818351624856232
Ni 1.9950647521185008 6.615003948008957 0.35103931395238996 0.3674610353697155 1.3195945291602693 0.2253011420377926
Ni 2.811893078726964 1.5060422322521325 0.3347282956714716 0.5867349973768219 -0.5097528262938125 -0.044170009648994896
Ni 0.8362495273909587 -0.08794487211639553 4.533834341443943 -0.06340237551604565 -0.8384601379340979 0.8875039307356264
Ni 8.53161201366181 2.354651858643678 1.557010993497755 0.7986589467767601 0.6951507043787641 -0.438399057141174
Ni 6.992502009400484 0.8586169307645197 4.940762719923651 -1.050461477539191 -1.7442978339819057 0.8263638688911962
Ni 0.6201964826455221 7.329131928454073 2.3911405596146995 0.4006647758151939 -0.04966959931098543 0.9654286682375631
Ni 7.282012618256864 3.708201833783826 4.098106198460117 0.7688976563539274 -0.05523115255916295 -0.11993193517165796
Ni 7.878953850499537 4.271712907474739 12.832517875039349 -0.3652799685579967 -0.9404588856661029 -0.7137940305115642
Ni 8.266553436765104 -0.2925483140494435 7.0016432099367245 -0.4233483334556386 0.48781051769476635 0.08406658873361651
Ni 6.829890108087329 0.709115268595065 0.4851051213412244 0.10235715951268823 0.41316573649568206 -0.8223904860657449
Ni 1.6301596230811601 6.500716292147046 9.18955196068199 0.8452766466352991 -0.06231634154071848 -0.16686973737377714
Ni 9.521615809299242 4.975222962222657 1.3406254590995135 -1.6878250957061576 -1.4254465892000936 -0.7592506201824667
Ni 6.300986949211517 1.9393931195167218 7.109643459285106 1.565848362190329 1.0235214586152372 -1.0848700369260478
Ni 3.3509974187760236 4.543385038773283 0.3037170672913431 -0.2561644072755524 -1.324976619407789 0.6484476438952703
Ni 5.915380488930065 5.919883141721455 4.894764090109329 0.5273381434757435 -0.33334043953692266 0.5140637949643405
Ni 5.39722209104135 3.0177739332225593 9.086696694271696 0.6972150431069605 0.5636050962275777 1.001686622128333
P 0.5534892738562365 5.609118562143549 12.377006144730464 -0.8584106129140957 -0.5197634164522791 -0.07343302027917031
P 4.072780814932857 6.386854440472651 12.823448245845267 -0.0341992715895282 0.5822592209936553 -0.9266219797830105
P 2.595339940552786 8.573259287066266 1.5927595199555837 -0.1526736483790532 -0.8554399603215461 -1.3987803927628166
P 6.546730323389428 7.890523040870973 5.969611635025143 -0.7131795368560169 -0.01031500877276288 -0.7962390244813577
P 4.758579227412836 0.9712955903774355 12.667514222545257 0.5636089528823197 0.4792860251635229 0.1292300726441323
P 4.050430624920067 6.253559610453126 8.231523341627915 -2.67062336557042 -0.586323620871016 -0.6018119463146022
P 4.521433473957317 0.9891159486081433 3.788584604723215 1.7486124021968596 -0.02104422226480892 -0.6419442955591138
P 0.09615383327188325 5.440590700522996 3.5569897071334573 0.07355103391427333 0.46581832969439135 0.22631389957302311
Ni 1.5351509312837868 1.0855379479215257 2.5615283701649743 -0.048804423097212724 1.2867864814913128 0.24092213640450122
Ni 1.8157468311930305 6.2563952851487095 4.796774768999346 -0.8552314438551659 0.16966761183388843 -0.631313555318145
Ni 5.81364046710452 5.777809497708256 9.084588510560316 2.342465755786017 -1.3302345253726189 1.268921428285434
Ni -0.17463860469458017 2.442738967478031 10.085379647603595 -0.4813930442041968 -0.26422635834808045 0.9771367007031108
Ni 2.4112928752468226 4.97551287145671 7.009254233296978 -1.6788079798092121 0.8910991042860524 -0.3916666860816416
Ni 0.6020037722423272 9.248648146111023 9.214069222219328 -0.7454188565056968 -1.1489426990362406 0.11220268484820031
Ni 1.4873068480014442 1.1458753072588488 11.503614714625506 -0.8506865047969608 -0.5668125474212818 0.10099396061657445
Ni 4.377357644296439 6.598841508210492 1.8064398388135665 0.30084812333617217 1.2677929711079456 -0.03844647690165637
Ni 5.330497668891293 8.00967573606684 7.909404285705044 1.9090638947491185 0.31247105228708116 0.18389892494192198
Ni 5.0888220836536915 2.6678263087296505 5.128507033930149 0.8307964507412531 0.7171171813475262 -0.8379286909106601
Ni 1.00575855057551 7.236578405482588 6.805412709069675 -0.15005472269896739 -0.30260881478102075 0.5389934683264846
Ni 4.772096245450568 4.687533345742673 6.845098565312489 1.5901931095832806 0.27054484436694054 -0.050803198694796374
Ni 8.25953219750288 7.106481636701214 8.973140153259413 0.13628492260838462 1.020945984578577 1.7200492458471859
Ni 4.608270349219816 0.1330719622958458 10.65517722184168 -0.24180659589198353 0.06064049650019235 -1.966932999151761
Ni 8.35688734216337 7.141660310320857 4.832351161849457 -0.49763804530814937 0.011755340763715238 -0.19325362668394458
Ni 7.205929563645027 6.146873012321548 7.221144362634681 -0.10592276537675953 -0.664396711025359 -2.1566431314588215
Ni 2.271511326115358 5.55344692954177 2.4834150449484085 1.7205197577257014 -1.0166699829110426 1.4998329745314685
Ni 2.4012547680177305 5.276882579918578 11.157018259684982 -1.0587630554263507 -1.2536591028097248 0.9845160238863173
Ni 0.932592707631333 3.384527233626989 3.546872780831357 0.23980319230870956 0.030839353978359792 0.4065178921618612
Ni 3.7686932074017396 2.6028956999652975 2.442748027141595 -0.4691162837193727 -0.07660807557304225 -0.021503678399730705
Ni 1.2702554283312368 3.234318011733173 8.130191910629112 -1.4838103738509671 0.987602633231441 1.2199753374040343
Ni 3.520485604734377 2.800867468169378 7.0322068909367825 -0.19174850289332784 -0.9628560224143803 -0.09045089499340551
Ni 3.7008091483154693 6.8153131094125925 6.158178566483266 0.5499484246760916 1.4947558171188773 -0.6666906492658583
Ni 0.6516298913477406 7.4820228107628814 11.291100374468233 -0.041599677818657387 0.1696449861260691 0.20620530174860616
P 0.20407888741268293 5.3528387992405175 8.031208744426142 0.4474256861198165 0.27866155993680397 -0.11207335835918764
P 8.428757653217872 1.6408953244046927 8.120698289180226 -0.5267578454922413 0.1366345926383195 -0.4740152636828868
P 1.9033990761763038 3.083356837763532 10.537788443141757 0.7240794715979724 1.6204981883247251 -0.5309145479730921
P 3.9506112517701246 6.162455633651908 3.962140579621878 0.05134672990309221 -0.5216796596383855 -0.2530446306996481
P 6.7096502532637645 4.208775424694501 10.710668567138532 1.2853556625820575 -0.9299207051389403 -1.101137920848136
P 6.31859893518025 7.7511854152541515 10.066444950754496 -0.20695966341612743 0.28162578477145045 -0.05894485396532429
P 2.4646633533033047 8.7273822836198 6.011101270283582 0.06279353828745314 -0.862476041232721 -1.0055862142930554
P 6.84915095282474 3.7258862970610713 1.4461460785303843 -0.32379676171254557 1.0059585100308095 1.5547345116653546
Ni 5.2882796366822955 3.007174126852489 0.2118040625338444 -0.3461152227040878 -0.33699706245290345 -0.10583997585496611
Ni 1.4918819781013464 1.203784676760976 7.088242722013842 -0.37756392813167233 -0.7646789902868895 -0.5825093893312484
Ni 6.509241435560923 0.8380197856513961 9.166029450203999 1.2308220503105514 -1.0097588576135061 1.008022848759006
Ni 2.6698103750502025 1.484453053978733 9.33681497998474 1.125261810479533 -0.2503444581596656 -0.846836277812935
Ni 6.396593578804126 1.800725909003649 2.9066399462473327 -0.4556372753963314 0.7845160796174746 -1.4716799091360202
Ni 4.131079749968243 6.639392562323683 10.477470109097919 -0.33850578578794605 2.3162443601956433 -0.24280932612488507
Ni 8.365566499857838 7.099541934411065 0.3145343055869533 -0.5162698014767237 0.1620026390894629 0.272689401513769
Ni 7.685593451049614 3.8322739262950325 8.290595065965324 -0.11095184316023472 -0.23796716754123534 -0.21087596775139814
Ni 2.896510336416243 8.38241747408718 12.165341601015507 1.170241974734649 -0.43773674096682674 2.427717623076987
Ni -0.2527736731037004 4.92023080438819 10.362296418139433 0.7462511225990051 -0.24965308851959583 -0.36916824786880936
Ni 8.605520749018249 2.1931180572946594 5.874287666935737 0.6480619784210775 1.404273297556588 1.0989614820221074
Ni 4.076495276994163 2.430300049404436 11.17282374873902 -0.6106305730474967 0.8204734715486903 0.4251668747216162
Ni 1.2151092562161792 3.2868459410781883 12.638673689555102 -0.8660575879363922 0.6085451512733777 -0.24346418610006457
Ni 3.0285730521910406 8.280423781681838 8.153953596225197 -0.3675929329618895 0.5716449358129186 -0.0504553284370744
Ni 5.821069391227133 8.070158050021188 3.699916771454399 -0.3482564374168067 0.24976210329363435 -0.07844847121589069
Ni 3.1375789241950454 8.196196089525818 3.6471424192604394 0.03914247452741646 0.2617298171784718 0.6814225561593942
Ni 3.4811847841930397 4.246046880597467 9.067164965593719 -1.0083180114019215 0.608070011409172 1.2147205167629984
Ni 7.258702103906273 6.31529215797933 11.522893678690046 0.054778124182144367 0.3182709467983099 -1.4235614563622385
Ni 0.6753381249287976 0.003064884183756204 0.535286597823121 0.5932195766599009 -0.1971655601438411 -1.3809346228306474
Ni 4.810844426514491 0.3506615259817644 1.6217585970581119 -1.2090466063066725 -0.9416457068853524 0.2487647723773716
Ni 6.138583420160339 5.829603594304574 0.19023843938571175 -0.4803327212604825 -0.3038902525966057 1.832522924968586
Ni 7.651347922777081 8.794070467115601 11.41302351478202 1.0499935367638369 0.7242463361931398 -0.0772937887861572
Ni -0.103540176975745 4.710988814710291 5.752456935190303 0.4942765850350842 0.3154627879255535 0.4787286099981562
Ni 8.192599403090846 9.164846258142518 2.3345221921704655 -0.5077800188381577 -1.2634946008429078 1.064486073953057
P 8.657360143932387 1.5531071844679571 3.8315853918641563 0.030289137901844614 0.9478029847360001 -1.4589362363171066
P 1.8902806833353962 3.1613967797052287 1.4369441782482644 -0.28062176898696833 0.39118460423890045 1.3049528679876945
P 4.540522185087007 1.2760717323394293 8.101432008644677 -0.11168306489930444 -1.8634736077138294 0.9694863832467046
P 8.578541070924173 1.4993471408782164 12.626501125590293 0.27813268401652746 0.6147551367388316 -0.6625740559943234
P 6.535641295186894 7.804882041198944 1.6064695088272314 0.008490296859198282 -0.8008592968621885 -0.6611139265090291
P 1.6715260469151263 3.1458594566926896 5.869262271556695 -0.4320450898986882 0.5558521917550362 -0.2324498372674319
P 6.76925377985239 4.127474003869707 6.181117634627727 -0.3172044532070085 -0.5552304990106374 -0.1688525721317608
P 2.378279461219014 8.440272485607924 10.224169163574782 -0.44729661674112 0.03597153299860257 -1.124943507908166
