# total energy = -340872.10011510324 ev
CRYSTAL
PRIMVEC
9.25539708992359 0.00000000000000 0.00000000000000

0.00000000000000 9.25539708992359 0.00000000000000

0.00000000000000 0.00000000000000 13.54620919097813

PRIMCOORD
 96 1
Ni 3.9290549497955127 6.126952637834428 13.36577372866425 -0.5220941214679847 0.2770829025957744 0.588512915212851
Ni 1.6565587601833864 3.7692420060405945 5.32389051300159 -0.6926217673093232 -0.4784157067434277 -0.1900970833328339
Ni 4.511746992418921 6.6279658000132216 3.64211542309907 0.6431159472697118 0.44362148188237793 -0.3813827876571303
Ni 7.840533900274955 2.374416623771457 3.7393230089952394 0.15874350872221693 0.875344669665273 -0.7282767975087715
Ni 2.8471267812590746 5.702037351578084 8.310179595743852 0.08134944691276957 -0.05386409700830724 0.9378985811380945
Ni 7.4437179999710015 2.326020151721045 7.988998801501472 -0.8664285981225659 -0.555873789021591 3.760367699869634
Ni 2.496125097181845 6.023653149489687 11.175825501295463 0.06618019537149893 -0.58704327264586 -0.27420866637177294
Ni 0.24820013610279096 9.253610925857043 12.782270913244586 2.1012394578775364 -0.017541865538505275 -0.03230128323586695
Ni 5.896548779501485 0.7375450190094573 1.1906152236014977 3.2914799872212988 0.4164744891539408 1.2683506433836285
Ni 5.58609499063421 3.7874473723674567 1.516227502031626 -1.0351271611749655 0.24629985577664676 -0.31276467226810006
Ni 0.5795637183638863 1.1984073425189279 10.797425990374931 -0.03949188744703522 -0.31036891834241387 -1.603304450154258
Ni 5.087636318087452 2.2680258327560643 7.992805546377038 -0.029989604383554802 -1.3515338010710274 0.05798994625122271
Ni 1.1447723156433993 6.988074794952491 9.024254778489121 -2.1588080003206236 0.7692177586975074 0.08994464478094832
Ni 4.376322020332168 2.0419442449237026 0.4544418544596766 -1.8786405452622548 1.3166683566524098 -1.2766961871348463
Ni 2.395435630852445 3.3889469897699143 11.434992357561292 0.15440374369628246 0.4283234180727269 -0.5770596790705868
Ni 4.151554698904694 7.693104677997079 11.552897788255002 0.3463124263165584 0.8697764315488762 1.4389546509888573
Ni 4.7883167720728546 0.247752174877463 5.63114563659049 0.25380207769096286 -0.861818095933748 -1.2345239246421704
Ni 7.667059990226978 4.488071686336505 11.547140931185703 1.297799544772365 0.12401947497747029 -0.9112534677467403
Ni 6.283063422702337 0.7545258962844414 3.5094568892406337 -0.5335645840014295 0.46664108270600285 1.9380697950631656
Ni 8.072326068190527 8.721860589518865 9.487805794890283 -0.5305764479073831 -0.5712165900262486 -0.11030752470801647
Ni 5.8079283511437305 7.587111869062039 9.445054189602835 0.2468539285079039 0.2156397076886286 1.1059754514460953
Ni 4.252975341614278 9.189063785662057 2.6466446965906516 -1.7355578830057465 -0.30116025525995227 0.3711443977585737
Ni 2.207217873036958 7.973219274785322 6.954597097676999 -0.07267968705291354 -0.007568813486193417 0.6221321459291931
Ni 3.988613430890254 2.479048889315521 5.951865512051436 -2.4376577650088342 0.869202047102645 -0.7970715476849822
P 9.136631960424808 3.99340772664893 4.010558903232716 0.5724615181769431 1.272686294644505 0.5114662094404934
P 5.956005451226833 0.5251169931523814 9.170444703079573 0.1282175722192179 0.8898480054877708 0.02463116828511887
P 4.345390482831216 2.4882117325608655 11.742978657530376 0.4976586141334397 -0.1985400718938645 -0.36848819108264924
P 0.6854935905978465 4.874179092059787 12.295772064982309 0.6447815078975928 0.2446543497534238 -1.3489333873337026
P 2.120818740011408 0.6707108701620236 8.156050391420212 -0.278287721537153 -0.24453247946357884 0.048551683656458317
P 4.556006301913102 5.735736252847074 9.726950450355451 -1.674399052108239 0.7363464618907835 0.1069450359936868
P 0.7378060212109915 7.771775554345998 5.269421574836763 -0.0369035578945687 -0.5305623068399958 -0.27614599260380185
P 6.505304020689429 4.95739436844251 13.514308045369898 -0.5545586697545933 -0.06939278877152565 0.3858703911148387
Ni 1.624424021044157 1.1045576147332747 5.974095125088476 0.4281411268585917 0.10172055436995385 -0.028629490811234566
Ni 1.9226977071731748 1.3588033762985496 0.7048197855277502 -0.276700322445375 -0.028001884529564675 1.1666033495407973
Ni 6.47682516345112 6.481239987923877 7.489563684548266 0.18722130444693563 -0.2858326237639464 -1.0461078285561856
Ni 3.0319755744873844 4.069070598902155 13.840568201605253 -0.7357024005488814 -0.8256025652451394 0.43734181952125323
Ni 5.545722947971388 5.6618411614623945 11.741027619796922 0.02918459198375619 0.7265042789893811 -1.0162025563563208
Ni 8.050427798373875 3.4745964356208447 0.8475194998274738 0.3192754768034243 0.690244011105766 0.5926372217938698
Ni 8.656443441985433 2.586679903558061 6.198705104763253 1.8462467023125817 0.619746676416152 -3.089303347016112
Ni 5.479667178029947 4.946658107670187 5.217931949036256 1.0148910366337487 -0.46907360340689536 -0.7661658592450611
Ni 8.040496757159476 5.6587591141889595 5.206810663739684 0.3614117438518421 -0.7649543554354632 1.256918490287287
Ni 5.215869846536192 0.4251753629181566 12.655098978856696 0.0020663956107254736 -0.3889392598481495 -2.5861896233053723
Ni 8.841893836032883 0.4796165348913311 4.680526564998173 -0.09036039216212825 -0.7045622275006511 0.39624222126746594
Ni 6.688403543843627 7.650863045096317 5.427058574705842 -0.5401044420024763 1.1489378139402342 -0.7628247106869701
Ni 3.3035011626577693 2.3973977750625592 2.4765045806204244 0.7913472436066952 -0.17765422958379082 0.6487181239478376
Ni 0.6722852132287237 4.697289940438545 10.003632220315717 -0.4785213790833565 0.029427561232497707 0.9281682412242079
Ni 3.270265031249655 7.754653069493587 9.50481999159525 -0.327836478999558 0.430065083354182 -0.5780161294465852
Ni 2.8222297627439454 8.16239959391143 4.5183923676211 -0.04492025755145812 -0.1183152255038414 0.4095366243835269
Ni 4.158746142542707 9.212609516183429 7.8355470922541555 1.0529917001602125 -1.0787065884278133 -1.7427160913170825
Ni 1.1263077981944467 9.307875319743363 2.9224592358316355 1.3435926918470795 -1.4412041091446663 0.1648344521113032
Ni 0.009968062803269066 5.364326417905213 2.199118474931906 0.29769029443348083 -0.46935591053400455 -0.10672674933529362
Ni 1.3356833940491846 6.8556578269614326 13.19735419103676 0.8512421201901147 0.43972574637239753 -0.007440001217812993
Ni 9.02995425209567 4.133145713839047 7.900203446136306 -0.6709836202142573 1.5186832744687524 -0.4169136335738885
Ni 4.891283066117765 4.628559360701241 7.416007340701746 -0.8995595763485797 -0.21281715063816894 -0.3613040146293842
Ni 9.041430944645397 0.7020237300283374 7.7562616575299925 3.6283510656192997 -0.15696019156954902 1.6419062216868563
Ni 1.0914334614788312 2.22217459494047 3.0945096657875584 -0.7182998888017178 2.1230601532970534 0.546564081584891
P 7.614424546250941 0.5393684537879186 6.394190200473936 -2.578609754075585 -0.7536846960589149 -1.4654933207093341
P 5.762447329216838 3.1802192717204028 3.5450022422545198 -0.7613879782404436 0.021595209672272485 1.56457849433897
P 3.0106511392982185 1.036715553128853 4.253062342348123 0.48368723955501214 1.0761671098354113 -0.4160993652027092
P 1.625562434901912 8.401994061681373 11.160491159185474 0.3505166942058931 -1.2338258701338816 -0.4935271084635694
P 8.162195975172647 1.4246370167067697 0.3002423091171843 -0.7911158443221795 -0.6326664698016137 -0.2862743392870553
P 1.0590858482035987 3.6464506511557566 1.19271897538904 0.32670673627048896 -1.0633655871953687 0.4489367234477043
P 8.200291190119959 6.540594850279832 9.161491031811343 -0.13011453213161464 -0.7423985816221345 -0.44893389523422683
P 3.3995721857756274 5.621256244663569 1.8914570394051575 -0.2820446174764239 -0.08862926840363446 0.6285771302235884
Ni 7.537863900467615 0.7892576998829071 11.342200521677603 -1.09324052037793 0.03557918265619034 0.8444937457226875
Ni 6.560725339227939 2.753073434734636 12.600507869448599 -1.2242027452218207 -0.7893818923502083 1.1278748226223478
Ni 8.344434746385616 5.968851942564751 13.413903645274798 1.1198807486732778 -0.3454853024295727 -0.8031023272600943
Ni 3.962809383447808 3.6229419422232554 9.370779626932237 -1.6254087382524651 0.3336787967129479 1.5118001741956737
Ni 8.643957911139 7.652630825964864 7.158210283224109 -0.3995995677754731 0.24283940803187212 -0.34445917515790353
Ni 3.491718920473257 4.372342199528634 3.811645608392663 0.9587034336985877 -0.33464630283253977 -0.637001863952174
Ni 8.242468035240197 0.3156766095171207 2.2685293263646975 -0.2784862107012042 0.09747643438161922 -1.4747534058550213
Ni 2.1611167394964905 7.521454081200953 1.9470912320796705 1.1682295722903107 -0.3914831093159258 -1.1222659610760026
Ni 3.152925105325936 5.6630258523062365 5.908205952296951 0.2819934525235143 0.7310535889229604 -0.7778402102591958
Ni 6.096224719072262 2.7687613330183325 10.242302073903627 -0.4948936497937928 -1.5233079177249573 0.3585020264042148
Ni 1.0824001937945318 2.5369228881166737 8.889767378140503 1.0685106217314178 -0.12843380199508206 -0.39797694457038557
Ni 1.789521796610279 6.0554824605207385 3.790188821023286 -0.5241062668020071 -0.24867658353893946 0.5986903699664851
Ni 8.455878984281775 7.491013079752529 3.644269154031587 0.7533111147695801 -0.20425100623571277 0.08508551691643411
Ni 6.2446905458385 2.2245902536142426 5.928593741287704 0.5765986802737683 0.1310182748928066 -1.859393781217501
Ni 0.5533903805724615 2.5845604175952492 12.669904837785564 -0.9378085925274493 1.2666048643371155 1.111613109347847
Ni 2.604644629557267 0.964653030393242 11.974049830002702 0.8557322947509842 -0.23291109317456662 0.40323356498363455
Ni 7.250511583055271 6.74579626198947 1.7002386818117503 -0.9514596076519808 -1.1392691805022186 -0.7231996400961803
Ni 7.04879945609664 4.967871478092742 3.1678077840517087 0.1400510745190362 -0.9507134735145757 0.5005140813043638
Ni 6.374553024197524 4.856399474004932 9.193284246793247 2.2956331117031947 0.09386660554317383 0.8991021770961871
Ni 7.622013971969307 8.44865051905489 13.499853891535297 -1.9272732186682937 -0.4804551057709597 0.11409167434079706
Ni 3.7387362168116485 0.8466661522040185 9.794478753994198 0.03243806592404736 1.7540811386209145 2.0322091946517515
Ni 9.114946564744157 6.977542152918954 11.173089605877964 -0.5114685234333385 -0.02866471492454418 0.22113158404113528
Ni 5.251318017879293 7.809074805132605 0.8556466641241781 -0.42822674459386245 -0.31017274317120774 -0.33320597084158743
Ni 0.809843554374115 5.875113279545708 6.635068391837947 0.7383799473810445 -0.2896360566704367 -0.2787698033798941
P 3.42378430489666 9.059247584289121 0.25841254139260256 -0.17760537862372638 -0.6879919818467958 0.9054877689075567
P -0.02034336308410901 7.481535553001788 1.367882920968937 1.2033140746982693 1.0183468563928333 -0.0541911413304228
P 4.5760812584779025 7.2634598837625814 6.1837095101914255 0.42304211506912953 0.6914470302749317 0.06127041677470738
P 6.3368372805361295 8.028603571734962 11.717308813347584 0.4378426704170717 -0.5127358201815364 -0.13014281426638877
P 6.997080296445138 4.136773829548315 6.913321728245746 -0.14451913759271884 1.4032109177303447 -0.7795127128656123
P 6.271836625877487 7.982067434525272 2.963720722167061 -1.412284855007155 0.4098572409477393 1.3307844843388177
P 2.6336510444369754 3.923140750973517 7.249118645774034 -0.10717592105757025 -1.5614366062758787 0.10990720394580426
P 8.281201872595519 2.709017743979241 10.246190266274708 0.7887848821961577 0.33885057072187447 -0.5466607550637553
