# total energy = -340862.13436617836 ev
CRYSTAL
PRIMVEC
9.42171298778451 0.00000000000000 0.00000000000000
0.00000000000000 9.42171298778451 0.00000000000000
0.00000000000000 0.00000000000000 13.78962931896942
PRIMCOORD
 96 1
Ni 2.292981100097854 2.4325543542801333 4.952876674628514 0.6170251637199309 0.6298084315275283 -0.45451627441801074
Ni 8.403253957400919 5.979735025745384 13.62922840074332 0.9542687949660018 -0.44339651035576544 -0.6215685601162392
Ni 8.302997510947995 2.075584497762097 6.539745620727331 -0.6602631484729596 -0.8699957466485339 -0.9661925429867811
Ni 3.4688862376691976 8.174513612791943 13.117440016477977 0.7405715557157245 1.6758105877437848 1.4506014911991663
Ni 2.1529556036987025 9.097992219645612 8.12160881078814 1.3511527635825247 -0.5059213683628642 0.6349696640134935
Ni 6.186419140568974 7.0152095332649616 13.383166237056843 -0.4272299278982319 -0.27937015596805437 -0.6263335856050504
Ni 2.4784286741541384 3.977489140819446 2.212132439947756 -0.39667108127476847 -0.6470386793628856 -0.28143475180656696
Ni 4.449648858660052 5.929592669949645 0.9421750538362074 -0.4760037548678254 -0.15578879696926717 -0.9433588329217172
Ni 6.560555357902463 0.7508228923358812 2.1417362280351235 -0.3450937234181089 1.5743078058115918 1.3224484536692966
Ni 9.24971948340634 8.861893517299608 3.204751344390951 0.8093177120421867 -0.9475376468897553 -0.30021537484817973
Ni 4.40728883767966 2.8691659495319892 1.0160610681890392 -0.08834798971778977 0.6746618403967929 -0.5159257878737437
Ni 3.6024767041907673 1.5937581025358416 6.89015325424429 -1.5258939332845785 1.7487862087705626 -2.2053987035959697
Ni 2.26744825827026 8.605990374539726 10.897571408107845 -0.46955054304331384 -0.6793073095886043 0.7332120300268598
Ni 8.812778128204682 6.69388201646419 4.315133179936463 -0.29439516862197684 -0.6890016540582328 0.1684874754828582
Ni 8.5858844393146 1.8631060295348285 12.44130681060116 -0.8415531750371248 1.8618643542451805 1.3325816854485566
Ni 0.7455495596528907 2.120347055519624 2.5645403031030907 -0.37816762315394226 -0.6189208380807469 -0.0807138702112997
Ni 0.014374707297549826 5.946617705072324 7.027553861443011 -1.1958241940791277 1.7662409139119 0.02584035810187163
Ni 6.760531213175776 2.194561887650974 8.6255093370542 -0.41082860372207314 -0.007723336786186698 -0.4180459474061187
Ni 4.155616043990107 1.1857414057883204 2.9442372153615413 -1.268661746866144 -0.35552031806807155 -0.4499394536806057
Ni 4.616676984091633 8.405769554732272 10.689237551363957 0.03742034962998717 -0.2107366139600564 -0.988266234957369
Ni 2.730855204871813 5.374389975035824 9.767704528214123 -1.4923664909510943 -0.06171753161445499 -0.6088004618172934
Ni 3.838273911725525 5.084436762030583 7.707561275644367 0.4473758067184876 0.2995450882540325 0.15257826045176948
Ni 7.042212162297391 8.226577998009391 3.8815044989733964 -1.481956094251048 0.7426271526931726 0.38665843423377283
Ni 9.053681904104957 0.28796523159357207 8.414900136656671 -1.0804690796448748 -1.0093040294642748 0.9587844234481682
P 8.158185784420274 4.006818932926199 12.27270054826695 -1.4910909666727803 -0.7929109885493894 3.423969447342994
P 7.859574017304496 7.8047302267958525 7.238148929271262 -0.21502932779813935 -0.21791719086889566 1.1761807088165872
P 5.902081268423234 1.5345332155512454 6.718748743193181 0.4514970279757128 -1.1552645274892104 0.3948252863152813
P 8.890874706030854 6.902789655520737 1.9308924269875922 0.9310584182878094 -0.7542577949535656 0.7914799125298175
P 0.7683510469248316 0.5514113976623727 10.428062018092369 -2.4257481580554416 0.19979039936119786 -1.6830685548577788
P 2.7982581386115197 6.516094294956184 5.977763061245564 -0.5851537689326308 0.17480801838424734 0.990341886539475
P 0.011219375663578904 5.313817783113461 9.738277692465001 1.3014978195595586 -1.4974194799939697 -1.257396715475286
P 6.227356482908788 4.486685611879341 9.053222124517804 0.22122491508588998 -1.096217600728383 -0.4332851329533764
Ni 2.2732237682482364 5.543782950393134 13.63923897064805 -0.7965100187545573 -0.27981624236653746 0.38619229323063164
Ni 0.24655303492604205 6.338655176823684 11.64560358909711 0.615791548423146 1.0677593453876901 -0.27317456868030376
Ni 3.6557282252275054 4.49566450422683 5.369088377214279 -1.0229979820115993 -0.22692967878015108 -1.2119552953130355
Ni 0.8260270043166393 0.7406267146879763 4.886065424455881 0.1489828297910273 0.5784462750054683 -0.14215552245654875
Ni 0.8163405413340012 7.4769017281275385 9.046644826776165 0.4456997045676453 -0.9625423478287036 0.15556819631802885
Ni 8.06547612996141 3.4310297954318276 10.13175103325493 -0.38332885563990754 0.028773472588266576 0.8412682968068543
Ni 9.242087895996617 4.709942519608737 2.718487322411635 0.21181519173621588 -0.0008772603986307472 0.29327442475397236
Ni 3.0002031318707996 0.9324000267527651 0.6899793550833956 -0.593937428662532 -0.06711453426031022 0.5149171441035713
Ni 6.693156544574623 3.9013711226920917 0.5411454993393667 -0.10116236787363868 -0.6599651576165666 -2.646688194911061
Ni 6.212470176603401 9.149896435744585 12.293702488384254 0.6556480182984515 -0.34110362842210934 0.2355729562774459
Ni 4.834365659525788 7.696974096913125 2.5449308921452416 0.6831829904939266 0.687594489298061 0.11025147465910046
Ni 4.838916346833067 4.670098095959698 10.764763885924236 0.5649937490449882 1.0153090980077741 -1.0281638424832549
Ni 3.4830564937978696 6.484117001538157 11.728658814397031 -0.01290873764186809 -1.1009584578474783 -0.8035471281069967
Ni 0.28567763971322524 3.632937101839701 0.4346217294976168 0.08710306156709516 -0.5473629233371025 -0.098471708415353
Ni 8.038633670047457 6.859836066630699 9.356553227600905 -1.2887155801932255 1.515677911983525 -1.8305285202463764
Ni 6.787920132435118 3.4848089323882503 2.720735343098005 -0.8570936938748852 -0.27018540414499276 -0.24555217897734488
Ni 7.7001774792826385 0.780222405117735 10.571888233455821 -0.5914231468811105 -0.22366540620658257 -0.9316127481293827
Ni 4.8013990862583515 6.543558587918337 5.19274688862898 1.3350661424333072 1.1038758886045892 -1.1842902252975993
Ni 7.096547180312053 3.651215224771632 4.8946702748031665 0.4569768201433614 0.5881503896671096 1.4801599215825734
Ni 0.4536385147171059 9.012885887457918 1.0588215119656204 0.7719618971015478 -0.35419619994000934 -3.03517056972745
Ni 7.462486507464727 5.529066234919075 11.108980511926468 -2.3167845489698293 0.47776213231982884 0.35636338279465724
Ni 6.75774238617173 5.986330224741442 6.616429883797061 -0.09411934498392824 -0.1969066500554996 0.21446805597803065
Ni 5.304509130816169 3.547463322850797 6.5822997289924645 1.2506336857198395 0.14275176127965095 0.5468774990602517
Ni 2.7954410464689183 3.527432761328485 11.190145741628376 2.1150470531845897 -0.47677045783052086 -0.19585686863474655
P 8.165873902107109 0.7085938331641252 4.443183679301345 -0.8703940105282171 0.882318786990261 0.9133314333216916
P 4.48624279137532 8.955432282489404 4.398809296113301 0.34560922960194673 -0.8753950632872343 0.11585210867532951
P 1.3761448008044996 7.7290832943110725 12.89003472858006 0.21040417032130215 0.16452900505574244 0.6232449193773976
P 3.082944614132766 7.384342821074298 9.155224414362113 1.1007612542350074 0.2569858747355832 0.24999607368131138
P 0.6054873185736183 3.878269082780188 4.734972241970061 -0.1603689601407819 0.15547820770738385 -0.49089275616451583
P 8.507816126626984 1.3139709176973808 0.9342532776706572 -0.314869891536561 0.8111971884530867 -0.3949684967613649
P 5.372486789039819 1.0686295150440428 10.865813640599258 0.8069970343288102 0.8009816813726657 -2.464954395941258
P 5.279098771255645 8.998140906845302 0.5691845167854624 -0.30444766776197246 -0.5520289613542042 0.2760750301565504
Ni 2.8063325465252644 1.4368677401324859 9.909489058402652 -1.7696638235505202 -2.463278808011048 1.0421313604069407
Ni 1.5511908038727165 1.6365232571688484 12.086058301021096 -0.17469617539673138 -0.8434833021803021 1.0831168016803667
Ni 1.139330048281779 1.3867442277624493 7.232577870462165 0.6086217701475841 2.4938638798867565 -1.6534260494009974
Ni 7.017046767271006 5.8139317229845 1.5818773226300864 -1.428104852758547 0.8380888706376083 2.43876976712609
Ni 5.499105188051272 6.512843804022412 9.127011095228266 0.04817218882985252 -0.9886454726736584 1.0432240792504872
Ni 4.49130225117658 5.2030467051182505 3.055023368097314 0.5387566697253301 -0.8577909770522258 1.1182802369553773
Ni 6.342791308765496 8.67736927110277 8.83937279707064 1.4588195082335844 0.24500247712146192 -0.31607908135331375
Ni 8.747165319906761 3.880549137290253 7.925892511894994 -0.1254909173166742 0.47344859254613947 -0.0021383864992414784
Ni 4.254478076941009 2.8230183999852896 9.373044993776189 3.1743364134280556 2.9565958573463407 -0.6904142181350432
Ni 1.6661168572354434 4.461510795140104 6.892180806849935 -0.22187977506106948 -0.49874490521908305 -1.487932880659773
Ni 4.504662240000023 7.4692230321535575 7.336440948594647 -2.2240813676071376 0.14497242308005356 0.6759270802624617
Ni 6.009809133167407 1.158701089904485 4.43937824948062 0.794263903032858 0.8492016927213181 1.0992975252052875
Ni 3.889678777043367 1.328386138360192 12.337787624987758 0.278243755673095 0.018771624180548317 0.12765321507531563
Ni 9.023956400058442 9.145345748437304 12.31098096758264 0.9413531153455982 -2.5170416035548007 -0.011554537606818809
Ni 0.15161608754908 8.31819473377748 6.16281963421851 0.5035189295689587 0.14459369958439613 0.019257562678031352
Ni 0.7844178938505127 2.669142985694418 9.547856396194405 -0.15162052452419048 -0.5555593431049658 -0.10028227926153052
Ni 1.6586360172313441 5.925117356345177 4.166950364550475 -0.015601453982682808 -1.0098537313201577 0.9136610487469684
Ni 7.5699034556848 8.422577890459367 1.3267985797447124 -0.550595057121155 -1.0933600766749298 -1.1698208280368303
Ni 6.31792740855036 1.482996446253482 0.0204017770086612 0.3644551586638562 0.5014605043780331 0.1474432532180493
Ni 6.026089852974818 8.703165920890207 6.298909681159586 0.5929444686216434 1.2532510687380287 -1.0320809181494741
Ni 4.563123968243646 0.6882514129464286 8.478291305064205 1.8867078956514218 -2.209868566441865 2.122541818899738
Ni 5.764015488297196 2.938142309317899 12.117857524066231 0.597796397397306 0.40632917318982276 -0.3822837022048448
Ni 0.7159653812991472 3.841562089510702 11.738959573057587 -0.7505960298312622 1.0932538901143687 -0.021418317774776017
Ni 2.7475222149061347 8.922333805242047 5.803820340752258 0.4415409452042654 -0.6076856314865599 -0.1407946375532801
P 6.5704293129708455 6.102302088230687 3.7697676954109056 -0.3686342297422103 -1.266228197723987 0.6034685080814187
P 7.490761067732111 7.678498118011312 11.329242257140368 -0.17042865836962906 0.7138757915920931 0.5268702027003894
P 2.459528718174008 3.0506281390520846 8.229126571335724 0.36497169328895857 -0.32999209188998 -0.2522437320649075
P 2.482319841561812 3.2677232465765935 13.303861795643108 -0.18474996008830763 -0.42677304286647144 1.9486352292838378
P 4.5604105149424115 3.018321085684254 4.018105202751023 0.3283121330843959 0.777248599421784 -0.4541933438609532
P 1.9237441734471512 0.14931153658560045 2.4527337788654986 0.6391322800316155 1.22192217671776 1.3925500955823888
P 2.310213412903267 6.107088318359255 2.1380542226527535 1.3434919046031573 -0.038441591805649926 -0.8530156671507697
P 4.758341858526948 5.0178064087447005 12.815350695148704 0.8209794646508312 0.0801104322993459 0.8209211006090701
