# total energy = -340867.95664979104 ev
CRYSTAL
PRIMVEC
9.28601492719997 0.00000000000000 0.00000000000000

0.00000000000000 9.28601492719997 0.00000000000000

0.00000000000000 0.00000000000000 13.59102149073090

PRIMCOORD
 96 1
Ni 0.7768262179292071 5.523024499110264 5.5151007426117795 -0.8888409043794951 0.9794560928649068 0.12827850736414037
Ni 5.2433761609503335 7.812788620649432 11.319975294010407 1.8055492245932196 -1.764821407856554 0.9064437050629228
Ni 4.864135313185048 3.0395076770661347 6.425182202693696 -0.88264428865048 -1.345171349188109 -0.4968199202822282
Ni 7.230639061705907 6.450168082935665 12.445379938565795 0.7283711569947907 0.8478693470631397 0.15413994851193452
Ni 3.5125929912250533 9.073170134516582 10.534917023888646 0.5043362832639314 0.7697502341622098 -1.3640715285267218
Ni 4.4967898504831165 -0.09431248154366659 5.282327278972769 0.545212709763319 0.9675326019544435 2.300445445490174
Ni 1.2724626192281354 9.156567834168394 10.962355074693992 -0.8654623775545546 -0.5540063967955492 -0.055830733816374815
Ni 2.866667082074576 0.3464918590822825 8.024261823352987 0.4467661981589467 -0.12478540660921734 0.8612794498214585
Ni 6.549324149841584 2.6275986289473168 13.440854662897584 -0.04640249852393944 -0.6054390015442283 0.03904528682791985
Ni 8.25264857356192 0.7236925693780764 10.985283174038194 0.8049769185749879 2.0043726320554573 1.4739782182518937
Ni 1.855893648225322 5.762287958550038 12.142734784551537 1.5283657918638387 1.2075941901308622 -0.4892518781269832
Ni 2.744472412247363 2.073177110440305 10.24883997762617 -0.8465778819452259 0.47737620973531975 0.29360918238557177
Ni 5.193528833065808 1.8483626901563297 8.614315638163744 -0.7718423408045482 0.8671258812999065 -0.02711871059366297
Ni 1.584324143012399 4.306686553826629 3.833890963332017 0.40743114800475 -2.248022451803767 -1.3321394557048154
Ni 6.092684368038011 5.007659959195339 11.03525679172511 -0.6346256504105134 1.0671664489986976 -1.075378809606161
Ni 4.301161374972066 4.8657882238339765 0.9592936245485394 -0.21635730258094354 0.35704729623555925 -0.15294027177687855
Ni 4.610719967065689 1.588800002185339 11.7535829731031 -0.44184870625267136 1.0658495299594868 0.20059952552605453
Ni 8.851057944563157 8.55743415400639 8.727297652626902 3.2504194697355637 -0.2801836530082852 0.20401086520044867
Ni 0.5003759832945058 0.9720600378077879 3.39540441202052 0.10914615741006363 -0.9278633083892793 -0.24493408577737172
Ni 1.5761431639016936 7.130637967445761 0.45713565499825093 -0.16876695439648998 -0.39543669464703507 0.26522728880876906
Ni 0.9979773053423843 8.800894892172655 6.357757377239754 0.8459875566593946 0.1903894177622721 0.22089709943282604
Ni 3.4257408940372787 8.240093881441972 12.834613466945191 -0.3842032878250609 -0.6954510092280023 -0.051551903935362825
Ni 0.05989851039238972 5.213122324466021 0.15914929465010083 -0.9986354940068349 -0.05233917572334857 0.1282070306962566
Ni 7.472159022761915 1.723187209552117 4.276808800945022 0.11132799555273085 1.3763277201862554 -0.7171804304852939
P 8.53148902842715 7.606889812679312 5.981096184408583 -1.23966561674411 -1.0784255668522849 0.4703923222183189
P 1.7299381423710534 5.228537109169507 1.8683851954440747 1.9484632224823475 0.3759783288121073 -2.013513418014461
P 2.2626489580848417 9.264304178824927 1.3315996764002322 1.8388018159987625 -0.5837610023501624 1.8900521295333061
P 6.10886060596179 5.790675306043144 2.7458346706304964 -1.367854906828554 0.300333902703915 0.08046267343244207
P 8.510957649523892 0.7566244925542469 5.866360970335773 4.2425757837759575 1.1062176493638882 -0.7925566905337641
P 7.862366654102391 4.1358331660197365 12.425958238440892 -0.23677494700534704 0.8078496121370925 0.10884071035450288
P 2.798312726530985 7.328717950885558 4.81195533836226 -1.7998004950349002 0.9761923345119705 -0.8245741239806251
P 0.8783725050656543 4.639599473347522 8.944944198023757 0.5703269883324436 0.34384159617856264 1.1939182353056663
Ni 7.040220040543446 2.9048418892529084 10.876459437039024 -0.14563859590914272 -1.4284558083400625 -0.7139107585950866
Ni 2.2751572201303816 5.443341205411099 7.484004263344906 0.46675266858320263 0.034707064463882165 0.5107321594879463
Ni 0.37856854028785614 2.290850585280316 7.184104983931142 -0.1306459791550524 -1.1541155014864317 2.7627678462161644
Ni 3.1781293072189305 5.158334836664475 5.185477858163444 0.6081985665672365 0.3344169604305531 2.551290754545658
Ni 7.782674074388344 1.1842547638676444 8.668923905878074 0.3887721381426659 1.682735339888076 -0.31900833918496674
Ni 6.529062065369893 8.856220968837336 4.346856925603022 1.8424098450649946 -2.013231367997668 -0.10458219218846505
Ni 8.943602368873364 2.0990479479004933 13.23878262166018 -1.5415059287902226 1.3765696609937323 1.557438283749763
Ni 0.33091921212580894 6.587136802439534 10.368957365924365 0.3418965566370499 -0.8747263193549839 -1.4067765235944159
Ni 1.460522992610666 7.553736663496929 2.812212962207279 0.5144530599829591 1.0337099691124647 1.0068403984151306
Ni 4.5791939465425955 6.534373665882179 8.836297823908824 0.1967359288055902 0.14673131475268925 -0.3612718758398681
Ni 2.544108069146688 2.2008226710030283 2.4562372961264 0.988612048332562 -0.6264243455466436 -0.07085780335282636
Ni 8.288464732960321 3.728474265192912 8.728534549809133 0.07778255549711766 0.2522712428687333 1.2346748483977381
Ni 6.748230588605845 0.3803616697614966 6.541182171993381 -3.319816629382464 -0.034691894955230576 0.5600099226771517
Ni 2.5766648373216414 1.552473111968449 13.2403733160094 1.5005492838722028 -0.3921081444944344 1.461325819595206
Ni 2.0849889213697232 7.506572993913191 8.79691119178844 -0.14584017039698755 0.04602686035207557 0.9836228226480866
Ni 5.792337502706954 1.0084612161437312 2.79106592051737 -0.6793952413167202 0.27443929432534026 -0.3843827508257187
Ni 0.028997438670829 5.692679990997427 2.9125149233495895 -1.0325007792957122 -0.6567222251992367 -1.5123282787850019
Ni 3.0006271327567995 4.857597958708389 10.028135547528798 -0.6110944000577927 -0.369821308071776 -0.6529100505419981
Ni 3.5317407539109493 5.513302041529211 3.1460906986743717 0.35608441810165775 -0.3758947679593655 -2.798603624967851
Ni 3.0674864399044504 0.10514276070009783 3.588872031868617 -1.3025470867596793 -0.62478552439164 -1.4368741143107446
Ni 5.510051936320644 4.371345075447336 4.533013665934821 0.8511071372741472 0.7880636877594169 -0.20237487225892245
Ni 6.331037798019386 7.988034293495329 2.0752813214124797 -0.6304807750042044 -1.441451192158466 0.784408607505333
Ni 0.6712210136880048 0.015472357995752164 0.09213769685839163 -1.6454103781853728 -0.21282717794049796 -1.8083936360205501
Ni 3.9715264187043853 4.217717245245846 12.227094515345087 0.497117396917989 -0.1609680271773615 -0.42977300603505986
P 4.985224947241349 6.3938484026786515 13.121397178940157 0.10035889813573683 -0.10274771008288755 -0.28740433912644053
P 6.791977004713147 5.938406516794807 8.884763392778966 1.2075060012924301 1.2081001832330032 2.005803708075029
P 1.8319078717861024 3.657751975854508 6.038980558173149 0.5445462798239138 -0.07903134030255421 0.4611111540267091
P 3.3608595080594124 6.939002478333808 10.707808691962052 -1.5400393715470253 -0.3760945426749974 0.0185322544762326
P 1.1125667289815522 1.8175145487195943 11.900121859543964 -0.09583247102029302 0.4647122411144061 -2.8903339008943125
P 7.725704373089616 3.809234736618345 5.2739011490691885 -0.4494504298593292 -0.0350230530424042 -1.152734304868189
P 4.332770969629094 4.9891900755958 6.937115560109863 1.6786128330792702 1.6912649746256423 1.2001888988057265
P 5.031924316081007 9.150262630063775 7.804602998531284 -0.9815949935847805 -1.3248542348973118 -0.2770389367317164
Ni 4.627471937912128 7.395456539839748 3.832899216942661 2.1068989701561587 -0.2459573848355635 -0.46340174983309873
Ni 7.047212409749304 2.7779392098807145 7.0793587360664905 0.545484475367467 -1.0563536746539097 -1.2982294332209319
Ni 2.696974446127886 3.0560832136298233 7.926949959002557 0.21751532744478672 0.09884940346974588 1.2475946417831996
Ni 7.888451069904855 5.964258782225232 4.571312905712566 -1.9244208368211628 0.4153789420969169 1.227690189549789
Ni 4.403307538669866 0.41945764961608534 0.8948133944135592 0.34590773467897196 0.6385681799980293 0.23017543941095842
Ni 6.9295771732289655 0.2628889385015862 0.5979998577449575 1.1556175399532551 1.260087889154204 -0.7748142789486785
Ni 2.754659170572498 1.5492508648045276 6.153620126292678 -0.5241029243678974 0.42282177152820727 -2.02455193521681
Ni 7.427456147121804 5.158149116366843 6.939112981910899 0.6631324996009547 0.7543855787806814 -0.3332622780008196
Ni 6.119836675551863 0.14835894535766056 9.851234178229507 -1.1818034543200033 0.38662269589983095 0.18200170791920914
Ni 7.421475953538042 4.083952200876136 2.6636636535445453 0.33026822836950215 -1.4438166070668488 1.1417430959640078
Ni 0.10914689031705158 6.441513517065998 7.608008777472547 -0.6155398374236561 0.5157504386381441 1.1657695407855924
Ni 4.746546506739118 3.121791054932153 2.605942713641895 0.33343994122926446 0.2505167220714718 -0.16035893283845284
Ni 0.5298098646647709 4.077359130310187 11.394250412642517 -0.36571551343351855 -1.2984780588966283 -0.7920833504417714
Ni 6.691168027158301 5.007316376644719 0.6058836843794513 0.23957384990672287 0.7525400409315104 0.4152930672513299
Ni 5.795569035885756 4.226854683889358 8.510249126588423 -1.4065813768644744 -1.1555105820617455 -0.0012040476104301842
Ni 8.331161829386001 7.454534166516603 0.9064914867286822 0.5003896399113575 -0.13511841310410924 -0.3648922462012748
Ni 6.814449160726664 7.860435163007014 8.042690848487046 -0.4711615962841757 -0.8423065082633816 -0.580555093818355
Ni 0.6730522158226598 3.2464929487774032 1.7864175420840314 -2.143694027497321 -0.05751480638701708 0.5454258542153897
Ni 2.169909527462121 3.8758618933939553 13.72570874100015 0.06185534274389992 0.4254147290663642 -0.1119031513299105
Ni 5.838665430951346 6.5612752509942265 5.87556155388048 -0.8426788040011357 0.37581892041610754 0.47114694099615634
Ni 3.4626992332661186 7.556819620437627 6.796734230137001 0.42949635533490554 0.18770595739283802 0.4000217429145563
Ni 0.3043259227078309 2.689099905508274 5.033339504748966 -0.7495472768517737 -0.22407935381554958 -2.2739443138758517
Ni 7.673971984184122 7.985378493239186 10.577266823357753 -0.472541764461154 -3.150927547585812 0.4375004565863046
Ni 3.77259212189548 7.314566064205972 1.5781210850714784 0.49878115777365706 0.6487818873062375 -1.0374046443552327
P 6.278868966414455 0.43829154499898326 12.049228329099595 1.8552224234486308 -0.7421689821098315 0.7315364420966498
P 8.464081846401484 7.622703896022708 3.140001858716494 -0.5166228139407683 1.3845411092349833 -0.4951517885511859
P 3.9867090530358307 1.9611227688638189 4.374596109257391 0.7639377412454909 0.05942410759458798 -0.8083895438009626
P 4.745441470968205 3.3626517089315646 10.208311165675347 -0.5957742247609545 -0.4093864719589078 0.8887874254337402
P 4.487717413943775 2.69837663437501 0.34418056997824775 -1.412539394220122 -0.04194266298037293 0.31658198913166125
P 1.087039474071984 1.0273954004873507 9.00346744961218 -0.8627807169573335 -0.23032250651178396 -0.3831781889946562
P 9.372746260612463 7.481686474030455 12.238456883154234 -0.30358891930610293 0.02408686574587465 1.6326649055942462
P 8.309534700726712 1.836077292467949 2.078978083936852 -1.4658856710517465 -0.04975238883277883 -0.7017617819373786
