# total energy = -340891.51598634495 ev
CRYSTAL
PRIMVEC
9.09341390014888 0.00000000000000 0.00000000000000
0.00000000000000 9.09341390014888 0.00000000000000
0.00000000000000 0.00000000000000 13.30913041923092
PRIMCOORD
 96 1
Ni 6.525770312099423 2.026167217731328 11.588313018934436 -0.005337610162829517 0.38918917107542655 -0.34860430767452866
Ni 4.661038472352648 0.5349828205964883 6.115531853511041 -0.1700663899342039 -0.6450003087766183 0.12441876729841797
Ni 2.8118109034031287 1.5952939841909632 4.813938771996848 -0.04499867619787734 -0.288618928259832 1.5486620802190296
Ni 3.5747210541815937 4.2236725412467475 4.934839347925189 -1.0915181383701849 0.7581627864349265 -0.46157240993384374
Ni 5.028194154293974 4.473468622654717 2.487423365985938 -0.14371309675165572 0.38557445714097466 0.3779984445659297
Ni 7.501148079991002 6.111419811719535 2.6053558515986053 -0.8211620129752826 -0.36246358215512414 0.07853357473052927
Ni 5.18740164585898 4.571350130491462 11.621825886732795 -0.8562742832973834 -0.10725253993177658 0.009001175057345788
Ni 5.678955230736636 8.066421971820766 12.590743693349083 0.005337610162829517 -0.8410027018502935 0.27384691215698
Ni 1.7407249536106089 6.641838647850837 0.31020635835072785 0.5040771160652738 1.4988130179073864 1.4081245529818782
Ni 2.688486023313763 1.7382697318421285 0.4264229167496458 0.6875698067077126 -0.5668472573139592 0.7765898827918626
Ni 0.6296379851611712 -0.01795676454154779 4.798114413028296 -0.13221898006912713 0.3011679685694362 0.24830197380834013
Ni 8.759485609992947 2.542373047847317 1.284935765827148 0.15411218059779264 0.6918110984825698 1.044259462493537
Ni 6.8109124935595515 0.7846706903783658 4.920771836533193 0.3398517582928792 -0.8943790605889049 -1.166548842153778
Ni 0.6003053597589983 7.50770443145424 2.475977485837842 0.5444789169210881 -0.00684453372565918 0.26945983883287783
Ni 7.645451466079938 3.8617637591588045 3.777504185430146 0.7137930020702996 -0.4021274764036494 0.11274955849060582
Ni 7.673804730798906 4.075604481779475 12.687074774106101 1.0364646490394664 -0.07968157229204342 -0.6497313957037004
Ni 8.077115826634591 8.734342320400918 6.78078874114309 1.0013793753005593 -0.031808659870164575 0.23355695428868165
Ni 6.8346826776440235 0.9247820126329707 0.5385074278463511 0.8010022501979559 -0.9901655088626109 -0.2060420366978645
Ni 1.9522013886023724 6.458760944647828 9.22068537908102 0.6525845488817794 0.04051415806396248 0.1965191848090938
Ni 0.21270677390019083 5.101623471999447 1.3925608667191767 -1.1975229219377894 -1.3713716617325609 -1.0950354074948236
Ni 6.658161325904252 1.6013411044725905 7.179251228656725 -0.5200362104976914 1.0185751703535555 0.41083168904586664
Ni 3.450495926110452 4.181560941210333 0.07012568041477395 -0.5278454221294651 0.8283824419831217 0.7671909580754659
Ni 5.8750547027265485 5.3298226952587475 4.719710088546765 0.7962945603096415 0.1094145805801019 -0.19932245858584383
Ni 5.507289762050082 2.7656163604998714 9.355480691536169 -0.6692558388898732 0.60105167110981 0.22662268906269356
P 9.250366282237762 5.630014476818264 12.488516442982128 -0.7342229877898774 0.4799231445268895 0.10610685636310759
P 4.031483237258489 6.253959075500748 12.755058046192529 -0.04390081514800827 -0.4204337309120049 -0.18181273183685462
P 2.3153832486443418 8.600705508883935 1.4842079299467732 0.21965088573055075 -0.15688125870249756 -1.1779989929722487
P 6.542547660850705 7.64285074968814 5.718733460751599 -0.16252200192804267 -0.03596716212322838 -0.9717435547119975
P 4.853946156043536 1.0046767476621088 12.879857878025774 -0.5163962997522591 1.653642536287178 -1.4483548612568347
P 4.0594363917633345 6.26817208151606 8.147716183257938 -0.33851581309027506 0.7144056959536341 0.0740444286109241
P 4.769568367933432 1.030129213328687 3.8684847014146704 0.702306598697255 -0.5396403578818643 0.08973998496930996
P 0.4354208498604279 5.499260277525755 3.5437425208531437 -0.6972728929280895 0.37581634931294633 0.966999869379425
Ni 1.592511399520019 0.9688123230143827 2.8817465314661943 -1.418715441123847 1.4888214539123135 -1.5859081090546816
Ni 2.1777726152280037 6.432662846590279 4.7815180232147645 -0.3483772792653871 0.25641560405441 -0.3993730535869638
Ni 6.082575502646871 5.503579649155489 9.206112273873 -1.3273824006358044 0.5533448519521502 -1.407420842046634
Ni 8.931833084726302 2.3259043285929772 10.366002685690052 0.07187416043248267 -0.1004414305472141 0.04140504530934804
Ni 2.3769820347913235 5.130104044513818 7.100434063181531 0.5365576051914823 0.59435728980877 -0.0735353501849895
Ni 0.7117124115158822 8.484127941950911 8.836464087165968 0.0519869345902524 0.807778392579525 0.4272258141331739
Ni 1.6190277946196054 1.0854626372590657 11.72394674415645 -1.117240482836953 -0.2679050927512483 0.9341033757617204
Ni 4.145369153660143 7.106084710614619 1.6011546894864652 0.11846074994277017 0.06665404968412393 -0.8862062949701254
Ni 5.8217309232807395 7.97219601639487 7.688205970483136 -1.2272523306814218 0.3015641755665903 1.2489100181605135
Ni 5.328813326309484 2.7764557099370135 5.1349290099595795 0.22494453002932227 0.0918673157249579 -0.11602257281492276
Ni 1.0200264304220887 7.272739708210682 6.67385019300484 -0.0020982772899254183 0.5931804958918494 0.19306902147696428
Ni 5.075916390742064 4.768740867263315 6.938502184794907 -1.1116365063866145 -1.0357709654065517 0.7725151985018566
Ni 7.772641047101171 7.331128519230725 8.919339643290321 0.39592597557862785 0.28450542031209064 0.8277106127270776
Ni 4.620400005377323 0.589974332162071 10.530849912591398 -0.43310078485671216 -0.9272141048410548 0.010424794877749789
Ni 8.379826483860288 7.119624803997088 4.6306055438616385 -0.3099796533237952 -0.18487054482657195 0.7490816500692647
Ni 7.247169028162658 5.887767295438901 7.0561682333786235 0.549339587447499 -0.12568709248788032 -1.0742608939516338
Ni 2.2864752856739767 5.482855758746725 2.3828800230840503 1.5099134986959222 -0.42850030997022326 0.8473705530498503
Ni 2.1283226301280207 5.699124422894004 11.618697752331471 1.007877067209761 -1.5923939738893413 -2.0527412531668325
Ni 1.2462796630945205 3.1917792056103376 3.8361176037749347 -0.8176704548822563 0.9608803867452482 -0.8814255857520303
Ni 3.6438037200154616 2.5744727991167067 2.8338196932040645 -0.47214427191241914 0.9616208644556987 -0.9635491918266631
Ni 1.053444726715292 3.346549111164165 8.194644564667552 -0.4862285179196271 -0.2365219504542765 0.3221851942510516
Ni 3.2880511791766343 2.844819996068252 7.375680791573288 1.3635459950405548 -0.5803959425326715 -0.17077909973051233
Ni 4.422272702074926 6.929490611563189 5.8023019350195 -0.859886426128674 0.6915002521103703 1.0956200763537
Ni 0.3162252890490873 7.364083051412104 11.11240556211177 0.7667718682601762 -0.5655218536343164 -0.2601660722357777
P 0.10801248032661105 5.935635026510308 8.067795077328324 0.7735984042637065 -1.3440305507154466 0.4072360012748083
P 8.684946895784678 1.2766516657120164 8.215686724564824 -0.2367852314179922 0.9156315422097779 0.43332652771427305
P 1.7631584058433523 3.6947450250044476 10.326847354531166 0.9336416056339534 -0.8647602092812076 0.36485059433006195
P 4.006330854252504 6.266271557998979 3.6550195367904377 -0.9503128956420472 -2.592986591622547 0.05586132994399411
P 6.990134589244651 4.136412140912169 10.508650161097357 -0.2771268684598324 -2.0518218266763566 0.41694063015708194
P 6.147438824404535 7.837604396412366 10.201155458788707 0.051102732213086186 1.5428228478294332 -0.016994477675467506
P 2.6631790522705017 8.656902807140261 5.818898324833031 -0.8167813674090837 -0.9416973860588943 -0.19931911615173414
P 7.033382866025732 4.012068798459581 1.5014563175410447 0.9055222216899179 0.3146955707422258 2.146339435539968
Ni 5.588184772614527 3.090660442404781 0.3414176830764859 -1.5657097797299357 -1.1367883230618938 -0.25069335685865207
Ni 1.4440250430107093 0.9775329069994663 7.036657404391768 -0.17372352707081692 0.7678663868759357 -0.30352952682307727
Ni 6.896454238656194 0.7755672736656786 9.478789203480412 0.4817136607684091 -0.7849428827422482 -0.3500819206613196
Ni 2.2414083261014284 1.281807631425825 9.505553848781034 0.7173670925748032 0.6289591961533556 -0.9488190847053403
Ni 6.3684633440515 1.978972399292764 2.647758440881655 0.5274013926135112 0.9218500123156639 0.24469420185242374
Ni 4.278333052544283 6.8029648497608415 10.449277442687132 -0.9320027844789498 0.4994753556272043 0.2959440011663355
Ni 8.16519463422533 7.410041165552471 0.2733134685844274 0.3466446128449966 -0.7331495522200405 -0.5249629583753476
Ni 7.743242039777109 3.6253622765099878 8.499903196484095 -0.23488364351990515 -0.112154090998452 -1.291197723185131
Ni 3.262798768617117 8.414126841307352 12.675269704106691 -0.01961520312776622 0.2955094847320782 0.44090434006153095
Ni 8.987830327875566 4.899431412658121 10.278907785489498 0.6968697439523998 0.9418470242628812 -0.014813925084380938
Ni 8.673325512747205 2.247710061973861 5.783815024444239 0.11523401547535637 0.6848020141545884 0.030017115187380566
Ni 3.681095810654489 2.7910415459245774 11.30634625762821 -0.8980948188775952 -0.6664057710355877 0.09862726015661079
Ni 1.1709952889417508 3.268209349921731 12.602721538213682 -0.6204421598212799 1.0292092530286339 -0.351204207191221
Ni 3.1385827339599324 8.503360512470673 8.006094444945019 0.936442308307542 -0.7942343353465031 0.21703761647741976
Ni 5.534851899754762 7.5966016463011385 3.7178386590904933 1.9316677481915634 2.1727981439521287 -0.6311731730855388
Ni 3.0344995178042855 8.437924305633697 3.5630405639533986 1.4936119333224211 -0.6783223199675156 0.5732531608403031
Ni 3.6011374217276497 4.402048949433815 9.2701153586703 -0.15186143689040296 0.0501064297380879 0.6360526126650271
Ni 6.823615992857947 6.18709520267247 11.328452346958487 2.018147831462679 0.7762746655442889 1.4838090882993864
Ni 0.3302164157638417 0.2932644188068185 0.806470331658283 0.3946075138775204 -0.49540632776415316 -0.4286820869637262
Ni 4.6084148857815554 0.5642126904209432 1.6618714144795852 -0.6195379028394555 -1.1338624076643504 0.46914842250888883
Ni 6.02397754310581 5.651975071525226 0.564299077853538 -0.5971924452647199 1.0731545482613325 -1.1467006970795994
Ni 7.774887120348633 8.789021018526368 11.552910539715743 -0.41397511977085477 1.0652864583671653 0.11519056383193065
Ni 0.4559219516272378 4.978462273361313 5.698104141847991 -1.6008827280866431 -0.34901748395254734 0.07632705399751372
Ni 7.635394150243126 8.813964253011337 2.706717408956822 0.7753956053734452 0.5002212326542934 0.6606554988153719
P 8.55637511584193 1.6997864039746904 3.472951202536693 -0.2131007433168588 -0.6174571090510269 0.728591500535713
P 1.8641043941837188 3.501309923304035 1.5435797390156039 0.4424092067418316 -0.8439198754970885 -0.5069564944955979
P 4.499112050014399 1.206077679989146 8.249331446865565 0.18901979110825512 -0.4305975588188843 0.4120907582639483
P 8.57306153045364 1.5878101045040771 12.559027684148692 0.01348286497778323 0.40421521217061357 -0.8297119594278226
P 6.405682687378869 7.651298531254504 1.4485926648414784 -1.2600626923432234 0.4639385961731751 0.0773845487277506
P 1.6904110941846788 3.19985415720445 5.957645634994035 0.5350738215571043 -0.2237767349734662 0.5945771191290599
P 6.906175098176584 3.864218980927285 6.182223860815526 1.2299291061826365 -0.8418393388189761 -0.1711547379023762
P 2.262023095542705 8.453119400356401 10.732509097874823 -0.07840142002803915 -1.1247177650506048 -2.0478880388395897
