# total energy = -340892.68292722193 ev
CRYSTAL
PRIMVEC
9.07584177504121 0.00000000000000 0.00000000000000

0.00000000000000 9.07584177504121 0.00000000000000

0.00000000000000 0.00000000000000 13.28341183792155

PRIMCOORD
 96 1
Ni 6.477537038448237 1.5662815105872978 11.32066748431812 0.9535293456968159 1.1331574111775258 0.22045846923351065
Ni 4.712603507581674 0.29741623582572885 5.999306441364481 -0.23594705178741301 -0.6474497987583753 0.27552250008719004
Ni 2.810416024655383 1.6388428639376598 4.751928221519358 0.26464339128084097 -0.1683478645812004 0.7950226355757535
Ni 3.1383171047298335 4.187103204850052 4.844181428323664 0.8513789028782951 0.6410001864782896 -0.3997057543360342
Ni 5.25216228890488 4.500355876630883 2.810171884517156 -0.8129247126671547 0.029058093708220923 -0.6557608897272319
Ni 7.152952092229425 6.171672101705203 2.545180907867767 1.0713267510239743 -0.7899670754297169 -1.0182854070272787
Ni 4.970293877272335 4.612968918828669 11.349904400350999 0.20900600442219489 0.10374838343326004 0.5715868288814737
Ni 5.643694094225032 7.798752674968433 12.298419695224169 0.03603375369510568 0.3679310330275986 0.7521582321120595
Ni 1.6947681996906219 6.581056087393106 0.3550015430018029 1.685636829805587 0.03488164236853348 0.8562791683933899
Ni 2.9421337133575474 1.671543121113564 0.4205608845810826 -0.3859500953128385 -0.16624675907779754 0.8563185062717574
Ni 0.7676591847439242 0.3293323402900044 4.695646205192704 -0.5015348092593943 -0.8930886239122554 0.2668694523978823
Ni 8.559226515941564 2.181587265651857 1.3542834652796762 0.6925909140713878 1.060605250841412 -0.5322867457302705
Ni 6.875113354253861 0.9809169568614307 4.77525404193784 0.5630283977885013 -0.9628999882784384 -0.5935211670607197
Ni 0.6714697854508064 7.412303340927354 2.410779492813419 1.0152275940375612 0.14170377963111078 0.03559358083389354
Ni 7.620457767330175 4.003698598408011 3.6912473234377905 0.420635819620482 -1.4208157752963013 -0.9149311737086436
Ni 7.696268271962518 3.8315571113540625 12.56578854236484 0.21519362129014555 -0.8519316900579714 -0.10169304356612809
Ni 8.299367020115728 9.079108872741495 6.766662492999975 -1.1073075399939574 -0.21599169171140867 0.05999669226860636
Ni 6.790344993992149 0.9039583582705119 0.36312714395922374 -0.30436770645365646 -1.274144110136954 0.11832988079186073
Ni 1.9041206371806534 6.414087830033931 9.285582453285596 0.8035921224123193 0.3634336593778773 -0.41440089445436373
Ni 0.2118628152682318 4.912644131621115 1.4005230629093728 -0.8474420297177341 -1.2139651266542124 0.032225435692609015
Ni 6.481376119432252 1.7587075035496964 7.0111702028105345 -0.1408450311752413 1.261381411154647 0.37653137310209994
Ni 3.4869474069496533 4.605435970325754 0.738735385245204 0.8364153395899273 0.9649355306512284 -1.1408977172445771
Ni 6.184078777131088 5.646371467488116 4.662876064036713 0.21466628803176577 0.30294382952293636 2.16470174009724
Ni 5.138795951856802 2.9837101435886932 9.151274519399415 1.8236487624074076 -1.0038347788195874 0.40698891826100875
P 0.32729481385758963 5.383108531073613 12.438879234526343 -0.8966336609510365 0.01494479423529039 0.20199280632915537
P 3.687323837127176 6.379799300583315 12.583906644890586 1.631624894365506 -0.1099095179386494 1.0773549594959253
P 2.5634986789080467 8.587733734312232 1.6383364319780662 -0.17954424751765208 -1.082383265948452 -0.24391850002866375
P 6.5602633343567485 7.7206459824189375 5.785416990673719 0.09348891048878093 0.6701860640136265 0.8009500568037818
P 4.8069196531747895 1.0800342226449584 12.582272993408026 -0.12570174777589965 -0.2531451608332544 0.5097430561017995
P 3.973103936476295 6.203192499477036 8.186447214472885 0.10843190495185841 0.14039560234264853 0.5796521223881115
P 4.930968255750494 0.8284119606278504 3.8644234564306936 -0.9340910344665461 1.0602398970821933 0.08685417878108267
P 0.11056553233964372 5.694564186223629 3.58771647589888 0.8067936600687525 -1.6083404699162689 -0.8679818015422986
Ni 1.586438954713771 1.1295429384080886 2.519198588621811 -0.3109595007385612 0.7177617569100605 0.03392724887506415
Ni 1.8415790129233245 6.4112652433057296 4.862525519304495 -0.6180132386648132 0.5652243769985555 -0.5581695270343032
Ni 6.0479593052675815 5.769911822935912 9.332752324676193 -0.193076477676132 0.3075905842663283 -0.3134987222206472
Ni 8.555931985451735 2.527621877182721 10.339196901120934 0.48927758915859615 -0.8196527754196077 0.4801540295907731
Ni 2.095747956084912 5.268698472245012 6.936053092474124 0.645283644344992 -0.5844629135131935 0.6066764734957552
Ni 0.4242865175454758 9.432975935547077 9.349874807381735 0.4824348552051497 -1.3294940476621684 0.7419285839642512
Ni 1.5910767097559266 0.7998040004157582 11.573956070847439 -0.15648530881565953 0.9830188705155005 -1.3689962195218486
Ni 4.273278320555079 6.896849994813475 1.6214399377276134 -0.09647396125903385 0.22062687649057486 0.06228574541309918
Ni 5.698085612752702 7.894865837192365 7.958091779904056 -0.36942432974367345 -0.4073000217435243 -0.4849257399478036
Ni 5.054372473574743 2.7650549684896406 4.967504871157942 0.5110363209919263 0.1875547765269544 0.05622205571752252
Ni 0.8201946936705748 7.394550994816872 6.99079403090223 -0.3804492200992674 0.6815148587628844 0.11709523705381124
Ni 5.1011221335006605 4.656315138165921 7.099106939364256 0.1015241220884316 -0.48418603356830164 -0.1950433715945157
Ni 8.661856132412597 7.133411805329696 9.522452842415188 -1.1467189519120444 0.29311553057860484 -0.9255595999567673
Ni 4.486551521603253 0.6474315114690966 10.382792706101355 -0.40289083693223515 -1.610652148768581 -0.039042201504126316
Ni 8.456469837688557 7.3041556127819 4.683770466498651 -0.8344217061986661 1.3276467100407845 0.786640067939013
Ni 7.148631991642211 5.990963020209386 7.044764430381062 0.7753999762488194 0.7040433788827036 0.2418377062402351
Ni 2.2643498649266474 5.257117698401977 2.7162450925273833 0.562495922323799 0.34897043276469575 0.16589503216533366
Ni 2.2969321361621446 5.198714657900466 11.478222278801125 0.03275379739225327 -0.356377009641412 -0.053440636317643446
Ni 1.0435039603266085 3.2989776521980145 3.7008250590463754 -0.16490978543392887 0.042422687940585 -0.0744797163761298
Ni 3.6689271062652393 2.7139670562933693 2.7759804665713372 -0.4581734115546238 -0.12793655064368933 -0.5968664293838688
Ni 1.0498842769501615 3.3665926718928487 8.30153433108259 -0.5027640536808051 0.3452726721981344 -0.3457673524463658
Ni 3.4450079430557166 2.9260967013037527 7.1758313812426735 0.34895423481477966 -0.6263762659175277 0.1723518435342709
Ni 3.9565223739283133 6.693260716720252 6.009362473823793 0.7052230010131016 1.0306884086773218 0.7617890703336041
Ni 0.9810803220096866 7.367305318424404 11.534850084691588 1.491449892674096 -0.3791446423552309 -1.0616822859556747
P 0.20050530712781364 5.6093874130912775 7.958848705090974 -1.1293619486908357 -1.0808092365931128 0.883458299911343
P 8.509572586713318 1.7732197742197688 8.213890744211575 -1.0945438125703861 0.017110434428041502 -1.5926485131023087
P 1.7548774984072508 3.3367059256035754 10.423718398491948 0.608751610857229 -0.6711450854927861 -0.44513843274753656
P 4.177727860508473 6.04436527200595 4.005812361909612 -1.309090544305152 0.175323267457769 -1.9810182736002335
P 6.779662728464523 3.9029839845082024 10.358696346733598 0.10304647227022899 0.2642433276289449 1.4812320716008296
P 6.5273361811416 7.850720943796973 10.240779382722437 -0.1739569832378617 -0.800560534674847 -0.23596582084049036
P 2.4022482017378297 8.481836814876083 5.964556859162122 -0.1737934610768039 0.11803343259736446 -1.6497385732470815
P 6.840298425992199 3.8758199906898616 1.4014796566108272 1.0547593335835965 0.9234903761325645 0.08793224233660986
Ni 5.103699672506478 2.983583081806716 0.41828103317875476 0.3132567814131702 -0.43427012257446496 -0.585813771114133
Ni 1.4504102412659627 1.1026330681537018 7.0228199530495 0.060275399851289733 0.6742905731003033 0.15123434482936535
Ni 6.683231911785649 0.6404022721733048 9.138734429102454 0.9469041270708144 0.3077775034661538 0.2560592491562558
Ni 2.5979505735069175 1.6335788758271896 9.255788280580333 0.08876579398149874 -0.12264881988218879 -0.016538621084971516
Ni 6.194171112956679 2.111158735070392 2.4595294682213162 1.114146931513294 0.05810281768000316 1.1823117614149896
Ni 4.135724865723548 6.948264637306258 10.50161271634871 0.1122736472954518 0.18519013294951978 -0.7110426930186723
Ni 8.165979376564724 6.923179011207396 0.3388982773045487 -0.07351323869780244 0.5348591344431368 0.4263259280267238
Ni 7.509187949684717 3.8999435775823272 8.362452287283086 0.6042886899898691 -0.29272472289808943 -1.4093028895606954
Ni 3.193834027612156 8.599024081225036 12.833051202159144 0.9710676116908953 -1.6196427823029653 -0.702258519068139
Ni 0.06351909239439392 4.807264535154441 10.242440261729703 0.30932067958355763 0.3735159833145439 -0.35936797394893594
Ni 8.639293590270132 2.3568962214136575 5.804093257456004 0.5081276319855635 0.7411006887463172 0.023228631510637414
Ni 3.530339005494754 2.636659037802014 11.581314763192214 0.08171197245851089 0.6280906775054732 -0.6642470728213722
Ni 1.2199746238093405 3.117651413475453 12.581197506182008 -1.3769216450165125 0.1279226666866184 0.16599967606399801
Ni 3.2206168360845657 8.506042084342676 7.885976050374769 0.13769800090582737 -0.4316753652640952 1.611458189609644
Ni 5.859835261209256 7.770163774023637 3.6422985870995155 -1.1882037014193925 1.40357781415146 0.22060116545896205
Ni 3.2170137269813646 8.332493841845412 3.9383852121352723 0.5273908510905497 -0.3333406966472388 -0.8624583006209081
Ni 3.545767936163374 4.402527380350264 9.42879106499925 -1.8994286856521996 1.2958336792952456 -0.4480522639602219
Ni 7.468455572719561 6.031532032026286 11.453754717513165 -0.910898912620799 0.17441643937278348 -0.27656431108814306
Ni 0.7147542890653839 -0.16656710516179185 0.22649125671039735 -0.29734936615429436 0.2904007027506031 1.516997145015581
Ni 4.709853527586032 0.4314673233954828 1.7826468508582956 -0.7605161171584516 -1.3884103623824022 -0.9539574343731699
Ni 5.959705821843076 5.4408490351405305 0.11099481964589414 -0.34309726181337036 0.6492099759825916 0.9197252526631773
Ni 8.172513982494964 8.465010204605717 11.68290701097182 -1.8877620479475488 1.3070781418608135 -0.6345076367754104
Ni -0.30510347363532936 4.939871656330444 5.5891147057768675 0.7707385662174081 -0.44479184804139527 1.177957341101036
Ni 7.965321595298538 8.854427338840111 2.6035349388248012 -0.4214619150662031 0.3862275173439413 -0.24015106256643157
P 8.61907261525267 1.6400045716585911 3.442781639118651 -0.8145820457649198 0.8097311454305216 1.0484696439201426
P 1.9715995192519409 3.335063198279446 1.4008289187702745 -1.2532343565674802 -0.280437163779988 1.534872482634105
P 4.566400775734146 1.2077403893732819 8.172924210533917 0.6830140690162302 -0.7822450241951109 -1.136263046686043
P 8.605113970918355 1.4304796931787338 12.365488349256504 -0.07190347100852133 0.4522709300272599 0.3182737750117874
P 6.416855961712712 7.86340897031152 1.368497140762103 -0.48654887737352337 0.0863391868178771 -0.8499424275420846
P 1.6661066920132679 3.2657419203694937 6.05472534515785 -1.353952694925165 -0.7406995966531565 -0.6178864832789617
P 6.7588155203787466 3.79552602032205 5.867841061057956 0.8401362400849403 0.03781964195093487 0.3876308254493711
P 2.5219222486769013 8.442148159691449 10.089455153477083 -1.1512278955259916 0.7434905291347325 0.608017818014998
