# total energy = -381165.8215689648 ev
CRYSTAL
PRIMVEC
9.28719234736075 0.00000000000000 0.00000000000000
0.00000000000000 9.28719234736075 0.00000000000000
0.00000000000000 0.00000000000000 13.59274476414752
PRIMCOORD
 96 1
Ni 1.99450813135043 7.010427821147149 9.751842605071092 0.33794348552657283 0.8224172255386223 -0.35185778161481984
Ni 0.936167558316001 2.7914978258450422 7.297047292499274 2.1229519098539633 -0.44069762336736357 1.350189885448623
Ni 8.679113385004868 1.8636330174460523 5.6966244494916785 0.2949569546627178 0.14528892587920786 1.4971320306605376
Ni 0.7417764075464919 0.22599268001180434 3.712627562387415 -1.3624535333073244 -0.5898907693969841 0.25771478248180774
Ni 8.913206354141524 8.828655755434069 6.804283728520843 0.8128010426050969 -0.6151734552231728 -0.23181400345564593
Ni 1.0722527871011873 5.797929143109969 4.326625205942651 -0.2239258589568208 0.5573974247549691 0.002105476378777019
Ni 2.206701901041547 4.898529579113259 6.7046758049359285 -1.6548419559119176 -0.0011413126932948085 0.8534183019058269
Ni 3.8880923439669064 6.920685681943488 11.149774936903556 0.9657708820683303 0.02284913668403162 -0.11292233662304424
Ni 6.485989359107247 0.03294724340669674 6.331011195024327 -0.6058370083135953 -0.2261588620523976 0.6304992869469658
Ni 6.033350180745655 3.145469873201802 8.61256693729195 -0.4111715888837887 0.27730787412238694 -1.349898322350133
Ni 7.62385615981434 1.1598495848833397 7.916441723500566 -0.15076768960559198 -0.11427602243746125 1.765429473754198
Ni 3.7861839828490567 3.211473948884346 12.292585310072422 0.36906926039709986 -0.39218476336864067 0.5711073181418937
Ni 4.65794486255827 2.2203354993392783 1.6515729833240682 0.004998995876488165 -0.08876707953307938 -0.21255644077761457
Ni 9.046393978928828 8.185174062481144 11.865637291772828 0.21664012392868495 -0.6303475918604499 1.4657216346700566
Ni 2.6799029231573472 1.3116301686570584 0.5832431062507838 -0.06638922605851147 -1.157748984473961 -1.3404670017339042
Ni 9.115964336454919 6.668306231166347 10.259273431850342 -2.914765294463799 -1.415046476912692 -1.4027182943646423
Ni 3.1786808728698444 6.515791959200857 13.329235645488083 1.0562415745560778 0.08285739891686376 0.9307820246979711
Ni 2.713243943517602 4.95354690630383 10.562378598255808 -0.0824485935142193 -2.011933475121851 0.9457656425909969
Ni 0.6364364288734573 4.676472811198578 8.939947895652754 0.24717017419674203 0.2808773366412001 -0.20041697720160323
Ni 4.236129875443386 4.660303809402699 5.971034049125801 1.7045061559062646 -1.904793549508539 0.19638085945901662
Ni 4.948336791423021 4.6232014761605775 10.2343308194878 -0.2762195261542146 -1.2168635312479301 1.123950290756961
Ni 8.508656257514026 2.0200107614087197 3.349347890906687 -0.764098178082755 0.9684363447156354 0.11979772358663886
Ni 1.6154978135504259 7.994740184351051 5.326602276400493 -1.1680871331751752 0.6870810399967522 0.39847702413525565
Ni 6.074371709138759 2.6532765428306475 5.911240318934873 -0.1034118260294477 -2.1734889993715663 -0.008806542548036447
P 7.427348457919455 2.504059224131979 10.13427432451475 3.8008515189162932 0.2871078909319443 -0.6567679908355076
Ni 7.63696038815092 6.672949827316801 8.091230397480551 0.5886442985843927 0.48012394768378597 1.0596166616758977
P 8.947856868616206 7.5420081340664495 3.216831730122739 0.601689561804125 0.6483419715553416 -0.6505317801178087
Ni 0.9315611109347512 6.589040044878108 0.024997406797120574 -1.4759268573378321 1.14225500260342 0.41072498826467335
P 5.993331669121048 4.0589302463420855 0.9227392069681198 1.3393496003000094 -0.19702209258744133 0.6739894969201167
P 4.068960414027065 0.9622181327200443 11.878604069663355 -1.3577443007571133 0.30084375246079803 0.47657119733552117
P 1.5734082580427167 2.523181553079546 3.4811155039911816 0.2644101922241124 -0.9758516633431001 -1.4399321844107782
Ni 0.3133275789710711 1.903001425609596 9.832067229604784 -1.6662057176641691 1.144404701956571 0.47412582111882223
Ni 6.1804593067920175 2.8563410024899736 12.697811514299428 1.4045610040003358 0.39053488647004353 0.9385634684156029
Ni 7.829873946625355 7.076218291406772 0.7667626697128515 0.6619690754204728 -0.48056540609657883 -0.5315213283191556
Ni 2.3534859753573785 8.2892091906359 7.797899072252562 1.245649602241687 0.019590006316785615 -1.7580228968774823
Ni 7.5667770759329676 8.937399490085385 2.0624541589430936 0.8274038801199363 -0.8787570377809317 1.0811902740816155
Ni 6.451413142170971 0.3965603250910274 12.860843531545694 -1.8544809172969159 -0.44568453505899375 0.628574302010111
Ni 8.192315913360542 3.3391821302141147 7.61422069780215 -1.3362642765064663 1.3184771277263745 -0.09180638058003544
Ni 4.501808585595426 1.2985723762819836 8.281243565799413 0.2532320641201058 -0.6091799566438992 -0.8185328028825517
Ni 8.455273476168413 1.2374812253266192 12.71597169012462 2.639097784158313 1.6082121718685205 1.0520781872070073
Ni 6.2981930435906115 6.573084648505151 10.499267482974995 0.9983164201045193 -0.43444135804500655 1.2008136768739188
Ni 6.110545323150792 1.0752804117912829 3.21714470850328 -1.398818959310236 -0.9500997511899767 0.807858353887841
Ni 7.2165291926888715 5.3493206062069705 2.5601659389794467 0.961131840634422 0.9464873512483699 -1.5052831990127624
Ni 1.0408899387010253 3.577751526039807 5.161668242170999 -0.28777174976818826 0.399691356158331 -0.3694101886762864
Ni 2.8881960720820836 0.5647188724873952 3.473788837984997 1.017636717699686 0.8826262909283508 -0.23468052637016357
Ni 6.320287274074468 7.00634145653475 6.224158332725474 -1.306349491224905 0.3751463198291152 0.17451748372702203
Ni 3.1344181143637226 6.443249700138474 5.149244765030076 2.1172517741453922 0.5395138596063288 -0.056184774721683886
Ni 4.16733964207057 8.907355422991952 13.623191998757923 1.196875003941145 -1.1312092863122196 0.4489783753189171
Ni 0.2673959120084767 1.4726329343855777 1.4761583525830018 1.3174211756580343 -0.6332241420772966 -1.3385415025764174
Ni 1.6952190722614093 8.65351788302357 1.6283289984333589 0.23440747521443503 -1.4506598552409273 0.4118886695554713
Ni 9.117793913338199 5.497869247059973 6.6222352563192395 0.46545580414865 -0.4716207953087813 -0.2338793706251069
Ni 5.5334763423416495 5.384361182758291 4.112810821195026 -0.45516316397339035 0.5319175353163097 0.7535885368006828
Ni 2.2364394907890506 8.587764561533149 12.114180203410463 1.7315875855040888 -0.6683047878305135 -1.6732063173517182
Ni 4.516575221353867 0.47310164915818037 5.269539909465261 -0.5317547844862004 -0.9988620081953441 0.008055523314624837
Ni 1.9120378637183781 4.508021717244732 13.051766844710043 -0.21539905243273227 -0.5096031880898255 -0.5013535464865236
Ni 1.9175544559451165 1.1145559480318175 5.771886927178997 0.3215832990009946 0.40922037869468875 0.1226807015613887
P 5.891218989772577 5.47396401407744 8.594733670635751 0.14785822926828085 -0.5167863361018261 -1.940979769621109
Ni 7.825917602705168 0.18360872050815627 4.593056178671064 -0.3672784870452642 -2.521789145542115 -1.2590630474341153
P 6.4782995638820955 7.5654582946262385 12.635652336229457 -0.13270954655230047 -1.6267606242946693 0.5953201679426716
Ni 3.331204432027636 4.45474109501443 3.492778360082661 -1.1546492625027147 1.3109018864822777 -0.32945678821180036
P 4.355878932971278 8.85837477079697 2.3411191500894906 1.086254061757768 -0.3688144640738164 -0.4045561404498
P 0.8550058560791468 -0.06088869016320475 13.361885698741153 -1.809079349233665 1.8601327162660544 1.9984331266425714
P 2.679698604926727 3.9856450118956306 8.704399623482548 0.0007443343651922664 -0.40441215867276803 -1.3297048781213938
Ni 3.285994379906822 9.062265790571077 9.89050224356209 -0.7634530882995885 1.1126824311526258 1.9996790832345304
Ni 3.8695086721727923 6.721512555858243 2.8533616711998424 0.4591967106128156 0.8567046859665826 -0.11754697987924916
Ni 5.499132305212897 6.525942860385748 1.1008211193380066 0.003984952789677008 0.7270110434224705 -0.5714963260501964
Ni 1.9522142576121007 5.783032486659316 2.1116056954764124 -0.7784757869606658 0.2151031184588683 -1.6031674103557614
Ni 7.636616762035786 5.304277723547572 12.453876907481499 1.4858346033698475 0.4050976147755668 -0.27532683913661615
Ni 1.8198531929395778 0.9317561419730702 8.654975972214812 0.9521898009497859 2.123593142982388 -1.6512102726966016
Ni 5.632097037384979 1.9526971916117477 10.674709046573733 -2.5093321507256845 -0.9987604496204735 -0.044803786578251875
Ni 5.726584931854404 7.81467081282877 4.121360610427241 0.11632724853953515 0.7826844257253746 -1.1412309322142795
Ni 4.8525022540699645 7.976500138672071 8.823512508337826 0.848285608664952 -0.6659141761111499 -1.2682439426024352
Ni 6.614022592167547 4.752423469835394 6.2232342570915336 -0.2799476257380792 1.6031671532454455 2.4645576747234714
Ni 6.3212252804968605 3.3828133596437744 3.1370556769771802 -0.8317739841631739 -1.1613050772563354 -0.6581761840369439
Ni 7.274629867723345 1.628629903463908 1.1472329341425578 -1.2240122264775695 2.2933653987149403 -0.03587717351258337
Ni 3.982617387205535 4.546888617024027 1.12584638771203 -1.0062217909945252 0.9098455316556201 -0.16913102260412805
Ni 5.421379931269707 5.14907016581482 12.619748948133385 -1.805955973113335 0.9052417143350215 -0.04993390871596562
Ni 7.888810468966908 3.865960964713846 4.742223346531308 1.3798704432321913 0.5117248624185187 -0.6712291605661601
Ni 4.116594423338416 2.6647090765530637 4.2797703920653465 0.8380323063680599 -1.4204087696658698 0.20143384850189178
Ni 8.06958566710406 6.312968966541354 4.666878212832511 -1.3475953852485694 0.25740984964687924 0.045167340565257695
Ni 7.734020834887696 0.32519010969701934 10.836557875520867 -1.1678567623319243 1.6906453387637723 -1.9737891028416459
Ni 7.7418220764204575 4.5828671999977395 9.800940275889065 -1.000593389064154 0.463424375540918 0.21737931608755467
Ni 3.6824460448479286 6.0729600559090215 8.258666401315908 0.5364794436553793 -1.2189019018341976 -0.44671657586793384
Ni 0.22808415571796856 3.758164523677221 11.317822037992313 -0.7683721228677606 1.478285587377996 0.28831013877016154
Ni 0.12993060644737553 8.869723719788679 9.359379789223224 -0.42127216765290026 -1.029605460025788 -0.6715592902120693
Ni 0.19493630895757222 4.261047412386719 2.672292997785984 -0.10600941155329485 -0.5996149386632835 0.07702870805022863
Ni 5.419708236655542 8.783761467851486 10.811220557485532 -0.1601918111329693 0.74865227584133 2.9680652914385206
Ni 9.026194335674354 3.4850839212613596 0.19357294912779913 -0.22480414779671606 0.24897380306438407 -0.2496623444909765
P 6.8672193158671675 8.314767543847996 9.381426655026347 2.722113820140228 0.8871066952972076 -1.7232734092114386
Ni 2.085587626245422 3.200737954584498 1.371072842979012 -0.7227761794055165 1.0417631784342445 1.7159357378994446
P 3.9009365309190605 2.1969132003563914 6.382282997559941 -0.32087213186658287 0.7874072851223407 0.502921919414908
Ni 3.3140602750401618 2.357590914354379 10.047131670436112 -0.7410731779424915 0.5293924549016109 -0.19528736928452176
P 0.7366749528156039 7.073385697754996 7.885504228507785 -2.2341873456928876 -1.324332558065887 -0.10418495675004638
P 1.2716952417631595 6.065641748375907 11.56830968769776 -0.293965537283726 -0.10179048837594082 1.8803791252199167
P 4.26566314696027 8.067811813374584 6.845660027659842 0.5419168126208667 -0.2030842396211212 -2.8266299349774484
Ni 1.5882213297626628 2.0794673665191246 11.929795073625952 0.6020919394488663 -1.0434467367842546 0.9964515989816388
