# total energy = -340856.1942413548 ev
CRYSTAL
PRIMVEC
9.35170491306998 0.00000000000000 0.00000000000000

0.00000000000000 9.35170491306998 0.00000000000000

0.00000000000000 0.00000000000000 13.68716542509904

PRIMCOORD
 96 1
Ni 7.19607139979129 9.016848328937316 1.648085542362826 0.2167979896627879 0.11073355650184155 0.39263033554649157
Ni 1.1560577502877858 7.1929759854946935 13.080755102516521 0.6085055562846939 -1.5062257654316897 0.4993622270881078
Ni 3.8902905031889525 7.328454133273525 3.409431452184683 -0.23907942676880758 -1.3757877885223855 -1.306149716509273
Ni 3.704883603357165 4.419194872894715 11.546410605240657 0.6504986128870281 -0.5230652271320024 0.6407086233797998
Ni 2.887245347224163 3.4801527847423306 5.3003274640977205 -0.5765444299970651 0.8315610968214195 0.5103850605611726
Ni 6.231368233603073 0.771634414594491 8.39094433611972 1.6064255122817432 0.41066482445069924 -0.7866606367643032
Ni 4.654081642947929 8.825278655626807 12.194361242179781 -1.6857515010065809 -0.19536733059283773 0.5821219240848426
Ni 4.768181793500116 1.3917487669558257 10.351835988296097 0.26101170806552465 0.5794168664488537 1.9681768988611912
Ni 7.267976658179599 4.702719859735235 11.181811948602814 0.3198038385030686 -0.3412604657149478 -0.23675334973879225
Ni 8.17236132825589 8.391125759193297 8.18166720972581 0.015329174157902631 -2.1677420695854606 -1.0007047178310378
Ni 5.41046623248665 8.358628584931447 9.860411381182175 0.311416899990954 0.5739864394619018 -0.8202736968330583
Ni 2.5933493197343207 1.9262641595557202 13.112140359074852 0.587643111013388 0.5505963426727356 0.1054892773837667
Ni 7.279357682949864 9.119735785406062 6.0850121827734815 -0.6170549885166018 0.19017910152367892 -0.3131968747095122
Ni 7.389258918036275 6.653204934783961 5.586019240945858 0.9381250953266037 -1.0108276651976527 0.836660622831514
Ni 6.561034532043009 7.338946746085552 3.586543389837979 -0.3994900387808023 0.04570444401565032 -0.9016043746927505
Ni 1.6046590306736868 4.773016624893893 12.902384425393974 -0.08915994409612386 -0.93693390323198 1.7534573889939866
Ni 4.8474842504038556 -0.03880770467678575 3.4468663265933714 0.7424353483973407 1.2311002436726026 0.29471964184093113
Ni 7.719037436934094 2.223928924089454 6.035711865284669 0.47074816289584087 0.07844512878178103 -0.8073657305221386
Ni 7.118302622478612 7.1820438425559585 11.492743041599244 1.4239895450385927 -0.5301830691237064 -0.11401171303248106
Ni 2.561684447201766 7.329333193526939 10.145844115806701 0.8075392799855253 -0.40779573043302025 -1.0475607589526283
Ni 1.8745679352911118 2.7571350780140516 10.750706772771302 0.7602739192406583 -0.11782311635877127 0.12203355489569305
Ni 2.6882410685789266 9.111889705059099 0.6870996788419718 -0.6214685442032651 -0.20655522888885716 -0.03019889218088347
Ni 6.42566860472206 4.864943883309432 7.197875343651753 0.2604355238470805 1.2438976525475867 1.430185903657292
Ni 1.0796169150600528 5.052417509907226 1.4824294431183849 0.24814333674328878 2.912502980792184 -0.6449488867133925
P 5.082876012517542 8.933178625880977 5.858887024969457 -0.46769754899497523 -0.9309442613074483 0.19370022730305994
P 6.227552738035063 1.83767545976219 1.6680822927870325 0.911924782782152 1.6747721191769414 1.5752706839454935
P 2.0623595198529063 5.97893766530087 3.3137307808728407 0.2572537836849892 0.2765648253087753 1.0473471002799253
P 3.0204790858453414 9.633004104646842 9.775825211053126 0.8747036936471645 -1.4849730267005006 0.23587994599490344
P 2.6421465155036272 9.452516201552243 2.977218099331579 0.4909984285044447 -0.9123274175372094 -1.0969274823112138
P 3.350809355327751 3.655731042804563 9.52871669796601 -0.6724316655146935 0.08599800142837448 2.3728659653444293
P 5.975468182811332 2.805530150475945 7.064096400639361 -0.5257175771531849 -2.164604552397743 1.7176120971606033
P 8.921395477803298 7.980772951535734 0.41250369976698137 -1.2930617729770633 1.796066481913765 1.1822479980565899
Ni 2.1870645036750034 8.728366938540313 11.8103400297939 0.6722930830543002 2.0246102992585713 1.153280407179646
Ni 8.571342462848012 1.1694680950047627 8.057935738375845 1.3571184942476564 1.8478449000376371 0.44408942265773194
Ni 8.137638448246033 6.293454201926649 1.3153088668985748 0.48505043845112594 1.6675270075787538 0.5081212042276604
Ni 9.212037112014542 4.2509577031189725 9.543376430447413 -0.08515159426767915 -2.293696556802114 0.9862319781361597
Ni 8.270741262999682 6.456304789724024 9.60060231777419 1.0581881567594873 1.1613647268496772 1.2459167398601445
Ni 7.435437636454987 4.303832242191349 1.211403009774545 -0.6056058661393957 -2.5047447884653185 0.3407832689682131
Ni 0.2694740503431297 2.681704226907262 12.259511764174038 -0.13799881997569782 1.097223159174762 0.8532190414108274
Ni 1.461175823565893 5.091142919581564 10.816433359782689 0.41621480773465097 1.9582930640885754 -2.073570531207358
Ni 1.5299950193624292 7.384648527558262 1.8749092725171714 -0.8129074862759741 1.3784997881369097 0.04514959995344482
Ni 1.6051827261438059 9.283914315288381 7.768233015328884 -0.3285219351023568 -0.4576831021817666 0.3235658766486621
Ni 8.640460913198902 5.546224931410189 3.8618061454668884 -4.448394905829739 -0.9875162441652218 -3.0974858828269043
Ni 1.0412655735786565 4.076744793960979 3.6082515022448955 2.128905556334237 -2.584746205990626 -0.9337693894610691
Ni 1.6203511913676112 3.693717667797841 7.429037329673745 -3.6483635041854847 1.2122933953787445 -0.6753249279020886
Ni 5.004742518716745 6.495909259651777 11.051441701998609 -2.0503344434975523 -1.0602596945765355 1.4331398440792933
Ni 6.132492658503632 7.399555145047008 7.352266379265742 -0.5116806394441445 0.23141496824501434 1.714576395658073
Ni 5.177823871591089 3.9247328320541035 5.495260010462781 0.5644903270460085 0.6930046045700388 -2.757212463615574
Ni -0.017849598996718143 7.669164795110079 4.096828515240045 0.6048772155034873 -0.351038371037318 -0.6344073637521203
Ni 2.6022801978408157 7.3165400613283165 5.269161972602744 -1.394510304632553 -1.997700619351921 1.0004260102483544
Ni 5.132655137293321 3.826913999599725 1.0474255415459317 -0.6928822200595616 -0.7843404732715589 -0.11508797681579536
Ni 3.5293801589335208 5.771049267073257 0.6775487827056758 0.042521932522610634 0.622164027608393 -0.010466960969594876
Ni 0.33441602931982034 3.072699005580069 1.605477304845748 0.4878588544341985 -1.585347351455205 0.6239620000490802
Ni 1.9469501306254222 1.5802043225600921 4.288256977807719 -0.8859250162842807 1.1888778446682815 -2.5921687237069424
Ni 5.841523714623563 5.431208313785293 13.024692567269796 -0.510927563328204 -2.251263584448884 0.009378870111738685
Ni 7.391606195946988 2.313574366528046 12.156748685379446 -2.186485411631234 -0.449729908772961 -1.581080348648735
P 4.880495768431002 7.760811502380911 1.4144042070613683 -0.25699487359664774 0.1275467714044384 0.9135780021148588
P 8.53418813958403 4.950035045498953 13.00308077742256 0.2499719053115953 -0.6765963384153445 0.49270641233448687
P 3.274116024069782 6.6854309096059295 12.2983419129424 -0.6256972375726321 -0.47801075799552517 0.565411296198381
P 6.195205191050388 6.036001768134199 9.490037111645307 0.575462509786796 -0.912110673540713 -2.4381889549219555
P 2.559673830664702 5.339776695725403 6.86037699242209 1.397388911731929 3.287472408723803 -1.7826910890481233
P 4.705787218917361 2.4940529179178212 12.593355469158658 0.33850655711889444 0.36278676982249775 -0.27053713105745664
P 9.705666851125857 7.815462865369763 6.846320444901805 -0.5810325476754058 -1.1222137676818287 -1.4795863084672904
P 0.34144383549472146 7.59147083143599 11.084687947816825 -0.45591932541312447 0.39160420827482234 -1.1660919571220176
Ni 7.819343822871539 9.074735381795119 10.225762850058313 0.5034939898682942 1.4005184584998462 1.577337079556219
Ni 0.16061833585599264 0.568170307918902 2.6082531317116198 0.5396573271627287 -0.11510803142045338 -0.056184774721683886
Ni 6.353155485520221 7.403538971301842 13.622849116705423 0.38893103231803344 2.2821661875650117 1.2380445362009194
Ni 4.482309528748883 1.7044510728458353 5.630516522837295 0.3270368659163981 -0.22282928345853234 0.22355664854286014
Ni 4.8414524007926625 0.5641677782544208 0.8421107324857612 -0.3730398150090737 -0.4595967742647117 -0.8731360920497284
Ni 4.031950127856153 2.2318685214846523 2.7540630429795137 -0.8380726726876921 -0.0345013762109793 0.02630495644311599
Ni 0.8453071451944522 5.462227918685023 5.190679660212029 3.747206222787011 2.4185259292753893 4.97146218984427
Ni 0.2488161343878982 0.06130977682322217 5.533077369598754 0.8316436292328968 2.312309029696979 0.33205025997058946
Ni 8.991813815124662 0.44212990064800145 12.563216794853307 -0.3724219789194167 -1.741515386140762 -0.265245286530898
Ni 3.955275500007832 8.404844710169451 7.910277930234816 -0.5331226113680044 0.17627611828934156 -0.695204697545151
Ni 8.400804773685675 2.9995967289743444 3.7115074158836885 -0.9472741088157234 -0.444255515921951 0.1429235109708248
Ni 8.66818871800074 5.304913540143192 7.794211116158236 -0.01823632050236859 0.5190460786702802 -3.1666485578654946
Ni 4.018764224054943 3.7938744264581077 7.676022400257192 0.8731134663419092 0.07456224878760707 -2.1920405371215086
Ni 3.9019146722846307 4.793702595963595 3.542854095243298 0.9009662268881193 -0.09709899643754245 -1.1439254483273076
Ni 2.8313128006744845 0.10309880499775703 5.773684577492535 1.2366641109136252 -0.5008478104946987 0.6073279910368251
Ni 8.178851411403437 2.0183691003629067 0.6351378661603745 -2.5137449350814 -1.9753721310580497 -0.3871297174432365
Ni 4.823992767887088 6.2215115367190466 5.769427681456853 -0.7693823092998299 0.5845714140665997 -0.6535181164396422
Ni 4.086554732320888 1.2460866126241434 8.138019062632353 1.3271108921419725 1.384786649586886 -1.7961934944099323
Ni 2.1253713069540154 2.0098309938590018 8.542666395177065 -1.6551111504129044 -0.5367080147264176 1.2232084996293513
Ni 6.108000543570744 1.9905571302176561 3.926848187685191 1.3792916879105857 -0.13555678619310846 -0.3196981661631398
Ni 1.006131218556563 0.5271378326645926 10.143284554196494 -2.816996268542426 0.08302683461519249 -0.0062079285829247915
Ni 3.8842399501681135 6.256187658204785 8.26539208784061 0.8581095367339092 -1.594544958794073 0.5786378221909841
Ni 1.2021897101823793 6.688909743800291 8.326833723701844 0.7517599682323762 -1.1311761190814391 0.5823250412345843
Ni 5.516318179384461 3.6874707289757067 9.599424938136904 0.7698965299320869 0.5246523691134641 -0.11365458680337846
P 1.5373174042392723 1.8489162089601023 6.272335246923617 -0.49390866017270424 -0.41619192491651547 1.8231407124227375
P 0.8906834873393025 1.0987411514242214 0.5513381744069865 0.08469650900813155 0.4370160607507183 -0.512255281000692
P 6.641823910013695 -0.18764195728461755 12.156625242875776 1.7109429126705438 1.2487441820066105 -0.304102882828044
P 6.429240955964659 5.083764424475779 3.2717659406476227 -0.2359686490539678 -0.03584297784053827 -0.0930407672077688
P 7.960470400363796 0.024320978734617738 4.025559172779737 -1.2659338064120198 0.4895089884431118 -0.9261213859975083
P 8.39928979750426 2.244923501418334 9.973180784137972 0.26988072842038036 -0.33780798838997306 1.191714285675812
P 2.4093545273308896 3.36333128808649 1.7839031570267527 2.088967068268086 0.1634154602765895 0.17101795521419577
P 8.682019889434779 4.240324814734591 5.946964186509138 -1.4922153100852107 -0.8554746702142233 -0.58510800329636
