# total energy = -381165.41686507314 ev
CRYSTAL
PRIMVEC
9.35987266855155 0.00000000000000 0.00000000000000

0.00000000000000 9.35987266855155 0.00000000000000

0.00000000000000 0.00000000000000 13.69911976085696

PRIMCOORD
 96 1
Ni 4.9497065870858945 2.4970736312704656 4.195889585571593 0.9723030267598931 -1.372473379437172 1.874572031619836
Ni 0.2547495265364039 6.885010020349642 3.89270084597392 -0.07063308893652996 0.0681180358241601 -0.14949447932012316
Ni 8.73148826193936 8.476169655144389 8.407424198317386 -1.0579917244779649 0.757481958317818 -0.4176988484793452
Ni 5.8008278889293905 2.8824008695040337 6.535109900186275 0.5765097201043877 -1.3051410727391006 -0.6553705962673487
Ni 4.3014605254462595 0.20398251314116853 7.105541724365295 0.31833676703923885 0.6333691522955931 2.278341414502283
Ni 5.28737335366465 1.980783054585574 2.0020711489947853 0.11410478696691963 0.18984820054682144 -0.9238428743759768
Ni 8.454585788758687 4.542729963357907 6.197358894753457 -0.0733782557818349 -0.46827990386100643 -1.2891071592046897
Ni 9.069183108136135 4.814138191279078 1.7076498021306274 -0.025703575413691216 -0.9891308969505094 1.254473371180904
Ni 9.228825096459875 3.188609104026265 13.497112361175777 -0.010659022375742934 -0.07650291745374567 0.14541748103727212
Ni 2.3853541910364036 1.4069199010843518 11.728117953541291 0.42088958750250094 1.0906624752381087 -0.6652559737018606
Ni 4.257618881842343 4.64697086532563 6.369515032842021 -1.2643721183518548 -0.001072150018256218 -2.8191297699456612
Ni 1.9969756343111877 3.0182687812364106 1.7281853627768684 0.17158514057157545 0.5119161524937184 -2.296255318668226
Ni 2.471933013268732 1.91179143310725 3.5396333448977506 0.4936878024111498 -0.9510885974658071 1.2668126094725474
Ni 7.244906484528591 7.318007090110697 5.971939465227562 2.0134262576172937 1.7496117899956514 0.9121947486140871
Ni 2.2529307124479727 8.979487448303443 13.22577433229966 1.4581903592900178 -0.9260229127464311 -0.1916693129159602
Ni 9.323387890082927 1.291559470380195 8.469823661471578 -1.1094880925850439 -0.6218035589451807 0.19060821864129754
Ni 8.906592759920159 8.956546400380045 2.3995381420862274 -0.31185475885932096 -0.07742002995137635 0.151449546163965
Ni 4.735693098400251 9.188418526127231 3.328927635215017 0.1342594075379236 2.2672051953798054 -1.177587873576759
Ni 7.723205338030669 3.6942481456084115 3.552853229062177 -1.5432393665415616 0.9458669440555517 0.19239102157333318
Ni 3.2887316620175318 0.16789458806019916 5.129402102613176 0.4106907925926282 0.6562506848794568 0.2042571768832998
Ni 6.546360467140142 9.143332019457704 1.4396401439773003 0.11075232555491894 -1.3345938307825789 1.9843128851911054
Ni 0.4250711295809104 9.333973906076956 11.562385496068732 0.18201636320722847 -0.22263413672859075 0.47968326060194166
Ni 8.477751473626256 5.679346101496591 13.372354618307158 -0.663158981963516 -0.17910690286991734 0.09332538832772314
Ni 7.4829654861131365 1.4674127581748966 0.580296193989901 0.693996793279979 2.029912428197775 -0.4840145409874438
P 5.354137325446617 4.4497864277074175 11.510123711007497 -1.1431078375220183 -0.07408813736466596 -0.1595498066735962
Ni 3.563425205247195 0.9029515967744718 9.258591363536985 -0.38506023650871746 -0.7363351490368738 0.10471563244253579
P 8.446536298259248 1.5450716217491272 12.328838325692615 -0.6393158567973313 -0.6843764965813955 -0.9492965385623909
Ni 7.911095422083833 6.801332758646181 11.386201804768646 -0.5939466846339125 0.5476609141934955 -1.137966659640711
P 1.9741281851145267 3.289836126993036 12.749099416706478 0.8635929284459837 -1.0044572428949345 -0.8127478207696582
P 3.9189880483781896 5.394188220617659 1.5984135361169154 0.2548068648063934 -0.04676656673157752 1.0964523424470085
P 1.6654115047157272 8.514432814634741 4.4651319389560555 -2.3289168134569893 -0.8299045350546029 0.3262323677372317
Ni 7.751116478343838 6.76366863100695 1.8627241725895707 0.38421151535517706 0.4660569280677586 0.13683642423648046
Ni 1.363490091878081 5.6487486777260525 6.947632248473469 0.0589044876456921 -1.8396695633156963 1.0289266887912085
Ni 0.47172541492329334 3.3749641689609313 4.297633273509956 2.3588166863402154 0.6976737279109338 0.2396026462621293
Ni 1.574059147419778 5.044409778799051 0.0711631119386373 -0.5630795627414109 -0.7435031275402227 1.3800499062328488
Ni 1.960678048082326 0.49854893803176986 7.511159294581052 -0.06089580704410803 0.664192822544669 0.05580399434349744
Ni 3.298362970998836 7.406448527005105 3.2869261425787624 -1.6786472858616317 -1.6671511122965739 0.9760300979024933
Ni 8.506383324135305 8.057146875285266 13.445028413695342 -0.6552006463483877 1.4831681122812779 -0.3242611029434738
Ni 5.137643470502427 6.887452947117495 12.012758233461366 0.3263447249453799 0.12546263518190004 0.19149884877636697
Ni 7.874535759420105 3.4531752650229137 10.828510639273155 0.009608469624041516 -0.35512128285744 0.24385345111868326
Ni 7.784091309773512 3.0874195205501884 8.15088038418942 -0.160225235474066 -0.44562257147280676 -0.4160883094591157
Ni 1.8105831298858264 5.272584754840101 2.668369597060311 0.28731435051579557 0.6052618525364156 0.38460309436664086
Ni 5.843106433796789 0.3657201769565649 5.363479414362302 1.6503846914715126 0.8544616555686769 0.47167247448232313
Ni 2.949941710717924 6.727399124396109 0.2852224640003815 3.2159425190046163 1.6162152446786553 -0.4034947890648213
Ni 0.5903674169868723 7.504773989443009 10.057016582227183 -0.5873019256238854 -1.289512107952592 -0.16213119424752723
Ni 3.1104354474549774 3.7792825888495694 8.15566140715118 -0.7953658778477851 0.9806750528736724 0.5394590951089935
Ni 2.036923570882818 9.02268326069287 2.3426179483952585 -0.7902717511543292 0.6038721712777406 -0.5860120031678682
Ni 0.6957642632298061 0.7526516973664166 0.6089767158368524 -0.7671619046097433 0.6053616113390736 -0.6415455174587983
Ni 5.000558775322461 5.82232751646103 4.0475692992340395 -0.9358157304671368 -0.24167161297601603 0.5189326930208675
Ni 8.389993307437033 6.3516376760351285 7.697918706015225 0.35760856805566793 -1.0057741619341454 1.72016520259976
Ni 0.2555947230388449 4.109087062382362 9.41513149005664 0.8316955655167546 1.8177923036266306 -0.9293938861011929
Ni 0.8609781837562389 7.211978452462285 0.9207821542179947 -0.9407525056471218 0.12201658561482856 2.8919554956581357
Ni 2.456667060937821 7.929506291633129 8.489631960011067 0.004012463593502767 -1.1148915229888026 0.0030809529181688874
Ni 5.049791705586466 7.694479888794883 6.10619092694918 -0.7893638946280792 -0.9525430705241468 -1.3551045491414209
Ni 8.163840063893517 2.1099773771015555 5.289996925975107 -0.6257036653305353 -0.6639166860651469 1.6960829648395759
Ni 4.306533576435441 3.8955696469484287 13.710626968647906 -1.5118749932976672 0.8401562946895982 -0.33486227549808784
P 1.1882919951705428 7.073845451542856 12.546585467587823 -0.6632078329235803 -0.24875834461946836 -1.8090922047494715
Ni 8.627528156151849 8.991018811437522 4.873776491994509 -0.0321038225130802 0.48235335123493694 -0.08547940992074311
P 6.275944385722389 8.418924673871642 10.307642148863525 -0.6408394925307092 -0.6879475017621055 0.34297256331004805
Ni 6.449963138473033 9.25672687690037 12.590368143993896 2.631959630451635 0.5630901042643721 -1.9012377138364807
P 7.5158373589434 4.978750271992587 9.220288892581403 0.7305169996932 0.2101383182544252 -0.5089298161718848
P 2.2696755246613387 4.704374964433833 5.047153157479732 0.09158629414942937 -0.38020547951957745 -0.36188431261288645
P 7.464826052871379 0.8547651002753934 7.17966723600518 -0.4652267188569794 0.27158485559568063 -0.23220429691552913
Ni 2.6865080943148008 7.572305470784226 10.934911799853984 0.9227010474620496 0.09387971816929638 0.9349824359325639
Ni 6.526564336435128 7.767674093103729 3.709269805262538 2.2842809199151692 0.7518882662801244 1.7533617439563869
Ni 6.126120903833429 7.69098865628757 8.121427672846885 0.4671977265404212 0.7616461169978367 1.41668169852327
Ni 3.8559586657930547 3.0104532875538164 10.162692352675794 -0.17259069901795437 0.24156902595988075 1.6607863464208108
Ni 6.218353089160712 5.251646719668888 7.1084049094162 2.010960826795937 1.1969793907294934 -0.04180768006440541
Ni 5.151664559767727 7.2494834622660616 2.1363226107164026 -0.31438112482560054 -1.7425759661947924 -2.8956386009366772
Ni 0.4935517020112466 4.839840401641237 11.717967171626594 -0.5392726901298003 0.34492917281578656 -1.4652099851409603
Ni 4.536674125737981 0.39508303352143387 11.356118238007896 -1.1757878442535428 -2.739705565080062 -1.0074106690963038
Ni 0.6204921671873859 7.745669032447706 6.622401008729078 0.5308101611847439 1.2193094216852614 -1.2384523131622995
Ni 2.8492107610028623 4.948349405548198 11.453888659996247 1.2289176341989867 0.38323578170546907 -0.27814039732601126
Ni 0.9524325636643319 2.8318388373203542 7.213257947056788 0.10670978005442912 2.063057804601492 -0.7991402572885528
Ni 5.868846083649642 1.4421036624650354 8.838288153096089 0.43031422325051055 -1.5362516223698186 -1.2264470611713072
Ni 5.477668924994972 3.7264648273515117 8.680447004274782 -0.17909507579537542 0.4084989271476319 0.7230296901772193
Ni 7.135293015646126 1.0964622843682317 3.423601811322885 -0.036195476083950566 -0.04571601397987611 -0.42634546841074955
Ni 5.796288350682614 2.134032249873133 11.046997211109591 1.554594900763697 1.3294796494844654 0.6857795475765093
Ni 4.67274795466918 1.7253146898278247 13.254747818161299 0.01785039791785958 -0.7443662468714665 0.34677419644432533
Ni 2.9655539783377645 6.7971488955610075 5.669846766719988 -0.8220122767907196 0.3230912510050887 -0.6556099659716645
Ni 4.157440164615033 6.297855847651674 7.853376831253793 -0.9264013791317722 0.2721150170675378 1.3936330442339224
Ni 5.696577627088993 5.83866049427675 9.827844779746377 -0.2648915027359051 0.886623585013202 0.4270458369118839
Ni 1.673189558907626 2.3562543468936674 9.404884301453402 0.8023407665037213 -0.5889536022946954 0.9211627564406524
Ni 1.0168472074051844 1.239967852202401 5.608008895926222 0.1808663087631853 -0.6488240533980826 -1.842126766606937
Ni 4.7461948755402155 8.687599818972073 0.1131983001165171 -3.7649494057030446 -0.11308071657777945 0.19951529132294024
Ni 6.1415178943817725 5.2823751816568585 0.5170131588553066 -0.7634507743067432 1.652436946014851 1.1092037285754057
Ni 3.2994393563563196 2.5804045776849978 6.154001156566774 -0.6635423334448637 -1.2811611648847354 -0.9227221305079721
Ni 3.755527232003553 3.9965439533530085 3.224457416366786 -0.8082345062803372 0.2756022042851899 -0.14072110400286733
P 6.392428001147398 7.371583001295329 0.2267382355856266 1.2019719588480784 -0.38123134968093053 -1.2088499169148343
Ni 6.702894977736191 3.5794305875193335 12.960846880217803 0.580359175757465 -1.8740976630865789 -0.7326978093946027
P 3.4579300803411863 0.8190777777448613 1.22367792980098 0.019635000622108118 0.7921244880923519 0.1114344392236081
Ni 7.880048724424954 0.5394581335269957 10.234311290413645 -0.6295526067629803 0.517719903659689 0.7846564618500809
P 7.036583798428596 3.5489267624755323 1.4976704185673777 0.5870610132576728 -0.8867732232171889 0.10450891574836839
P 6.935104058899634 5.779515458851227 4.747539889243436 1.2235250024285056 -2.4746345993434997 -0.5917167668621293
P 2.276891986492812 5.623795257177794 9.27837251844572 -0.16292206557993877 0.31824754975954217 0.06352913090189705
Ni 9.222685019985885 2.2465847187751598 2.110637248125056 -1.1710079063663963 0.30498631387426184 1.6408955210341547
