# total energy = -340855.78772001487 ev
CRYSTAL
PRIMVEC
9.44009157612209 0.00000000000000 0.00000000000000

0.00000000000000 9.44009157612209 0.00000000000000

0.00000000000000 0.00000000000000 13.81652824073348

PRIMCOORD
 96 1
Ni 5.584909294224554 4.369676848930949 7.216690506053047 -3.5230826459970874 -0.7012961551548696 -2.3350974883464044
Ni 1.4071495096589783 4.998632398877207 11.805546460184628 0.05068492794937722 0.9830168136329714 1.7969671393511635
Ni 6.214015885638093 6.928630827716736 3.1455811015353943 0.44875777466767874 -0.5855204082434304 0.8628912743932688
Ni 1.465253274104078 8.134847985431938 0.882405020064036 0.12345537494388417 -0.9304626936853394 -1.1414751870146018
Ni 9.090336307458779 5.743238512303061 8.00602849402368 0.9799978243009896 0.19693236108711246 0.4831385661403938
Ni 6.239211490399096 2.4042308757386412 9.504707244837297 0.6020428313784857 -0.5518610683177722 2.0778843280913635
Ni 4.205523094270374 8.277676572930615 9.713820380252741 0.012266476072178874 -0.9478806320514708 -0.5943004684289055
Ni 8.146487618504368 8.452941315528133 0.17192483815224135 0.1276367600150834 -0.11446936939518997 -0.6044182735891978
Ni 5.483947513438145 6.579186953067792 1.0242782702821538 2.628462930152286 -1.0196470632614953 -1.6323129215714662
Ni 2.390042417905825 6.914281888324933 10.774073896013991 -0.071029038823368 0.7001466149314587 -0.4358333532965268
Ni 7.854798224907433 3.091044747745665 6.5990092576302315 -0.024271213842538844 -1.0428183591716362 0.41333028709800423
Ni 5.661619479420472 7.261412940506119 12.11039439760935 0.41374063516254556 -0.7994999546208167 -0.5342628956200347
Ni 2.9444590037483445 5.921750646447145 6.677265729847452 -0.4282434567644109 1.6296202052306517 1.3099094406620215
Ni 3.9718147439263713 5.952317663388368 3.3513647166064398 0.29277485940973447 0.792556433423448 -1.5443853072205467
Ni 5.188859686827362 2.339141443431742 12.400141020333368 0.4092746289713919 0.9258105396253088 -0.1265188443605563
Ni 4.046476429222277 4.801561044440829 11.308054571333237 1.698766939429642 2.0588895321564156 0.43701786052293123
Ni 7.284324043074481 0.8555734474105336 12.057076759658752 -0.7451308929516328 1.1501796567671354 1.2086933367323118
Ni 2.4947330349157606 7.48794682115422 4.357014853926853 -0.21096749902393988 -0.15288087929385283 1.4862963734976145
Ni 0.08705463768640467 8.288825321234379 7.981753298203927 0.7483658549491627 0.3304795730493599 -1.0532441824906507
Ni 8.165924767325238 3.3327394156722105 11.889938048001014 -1.6385259923607136 -0.08904784399829181 0.4302036658145752
Ni 3.5649467914350965 6.417619783534423 12.899028154738778 -0.547855803813121 0.23800393431644176 -0.1910748738650709
Ni 7.4401233165760114 7.6647502986996745 5.154476984818923 0.12667799564623988 -1.1789575002307762 1.8988265332918266
Ni 2.111436991412205 0.07137275734583608 10.293327785838336 -1.1593422971030096 -0.3670797407708969 0.23559223955115557
Ni 2.769165940875711 3.702979812347566 13.143856933111426 1.370647896192659 2.1979507319583567 2.148676825423893
P 0.18413654078200267 1.386050904698004 6.858179423321322 -0.09906126237023584 0.30223754748453113 0.06404052332067682
P 1.6768623697663618 2.41364264716866 3.5383304528724717 0.5967846683033399 -0.338383658387785 -0.9207542081483239
P 8.869957366602428 8.95936447514175 3.2147052290370675 -0.6897912398390637 -1.43328151186348 -0.03383906003663204
P 6.7853585559079175 0.09525524535065458 10.039614937161986 -1.3516739261933173 0.21153648415353246 1.1592541082645778
P 6.2245227077059075 1.8116857594990854 4.690601262529514 -0.5380156777942476 -0.3290950339970074 2.7423280903045737
P 5.393832398020936 8.647624326763111 13.78440491567159 0.03928619919413234 -0.06626067090044718 0.4049711165000316
P 6.273016458795181 4.229708609218927 11.007628372863199 -0.43915624702217265 -0.5623401134722251 0.07662375930232611
P 9.086446989676265 6.591326911000594 12.97677391799475 -0.6098163046763174 -0.81538628683377 0.9400791337291811
Ni 7.750268089456484 5.974482998712023 10.505493846911223 -0.05044504402442926 -0.0316389670615197 0.228159180311878
Ni 8.709324766147867 2.769449143626865 9.46428099611923 0.33734724670347066 1.6262181215276381 -0.9753698386106752
Ni 4.254743732420943 3.604727337880531 9.388055087627784 0.7015589218979531 -0.8614951653766905 -1.9151820918317148
Ni 3.442537122294624 1.2143356365816165 1.2351850231215755 -0.23389993945039717 -0.2139476646981864 -0.26752302682148116
Ni 7.033604647477826 4.486233661214238 8.709400286881507 1.9646642577222422 0.08184284160942033 2.608890664447313
Ni 1.649268981712255 6.228676348056166 2.5740194211380105 0.5988850024757945 0.27354146510141925 0.20583917665843907
Ni 4.216558561473676 2.1140802170896427 5.809476803770474 0.6665312408698585 -0.8567810477304729 -0.020018352103455848
Ni 3.6033585245832866 0.9521937300217506 8.31071122984356 1.0219404872813627 -0.8345736583954982 -0.3804052542352094
Ni 2.383170031144487 0.8257814619983013 6.373965023453201 -3.470615172225991 0.07757558169263415 -0.26091272059381515
Ni 1.31955489872704 2.3900329778141196 0.18092974162976863 -1.1167889971218314 -1.6494750351730496 0.4655244526030563
Ni 6.551395323087877 2.069957228459846 2.7569221419341527 -1.0709032903333104 2.064275221948361 -1.4047535796271162
Ni 3.7854956539421423 7.653950833789001 1.5929210743243103 -1.9179730243132904 3.2152588626740304 0.9020049525652788
Ni 6.394652040415832 1.2170543829926952 0.3613723745275524 -2.425068358379598 -1.7567010927422648 -0.8331019589459782
Ni 9.390729465607848 4.716940062396008 5.665121753443077 -2.0859136261537428 0.3369993764457486 -0.16218621585517876
Ni 2.8907920824046576 3.965829725785317 2.2659797887077833 -0.17595215929101957 -0.6067651765548197 -0.3056010646401253
Ni 1.3163641477307049 3.887448644357589 7.242085296749029 0.9919915063277561 -1.2577070476268535 1.0794722629492441
Ni 0.43447550068293955 8.716046111441923 5.002868168025301 0.24950576430845417 1.8993849768984576 0.5044879783504472
Ni 3.186455754609454 2.8200857955332035 11.270335740916202 -1.5356726099378972 -2.287652921711196 -1.2563739306377266
Ni 9.045646913326676 0.903671658657362 10.762150116181235 0.8462693495658716 -2.0176788622460604 -1.1627546652186684
Ni 7.911854139173262 0.6720929930020378 1.7683632906458846 1.7468306277060883 -1.6603014363645923 1.1622790111338306
Ni 0.9959107947082261 0.4678547209431228 2.0917260799318855 0.09201309727420282 1.726673693142239 0.6362392747545366
Ni 9.271529427647122 2.017583599679763 4.632364392791372 0.689416115887832 0.5115412856528029 -0.0008957723413920057
Ni 3.770703030240197 8.660500611848914 12.117012845903819 -0.523530339693879 0.39660346126162666 0.36908160169227405
Ni 6.675353167267991 9.13681931901486 3.719450884354684 -0.8454707649239762 2.145985651744975 -0.5566762303182283
P 0.6088642027702209 6.911902985215239 5.921557124567189 0.6409245960453478 -2.305620819043526 1.0295648365958396
P 2.8972302249475588 5.841604267870557 0.915373596335046 -0.07719094465970577 -1.696941456185129 0.5550394660457538
P 5.9758801322843835 6.945235949026067 9.758655151797104 -0.5258487034144105 0.6161332480332807 -0.062452610008266636
P 2.493477502718978 0.6271232281462911 13.108749232060033 -1.1376308735678473 0.017618484412711594 0.4404073458204545
P 4.4315377698746925 8.401804338761423 3.8416717516610537 0.6500332432148354 -0.8185191760357968 -0.24194183591826718
P 5.856831135790938 4.62653230413594 2.8233936036666827 -1.0058901186867193 0.9938884662401528 -1.3797606571272043
P 0.07301910933921145 4.872626054797078 2.5733699428286974 -0.7703215332846476 -2.981692909524284 -0.295033316426608
P 0.20453846697513825 5.003229723537607 10.148157111587617 -0.4511339882093392 -1.4347084741179936 -1.6075051184991669
Ni 7.15855370128698 4.748507729057976 4.400702654329042 0.7714505046827681 -0.23347159366372694 1.4616837171552568
Ni 5.729418218046745 1.6879355973364838 7.457360924029586 0.8780512699631589 -0.9544158620668272 -1.1416168547987888
Ni 7.793428188732357 0.6759218941976401 5.873033165184459 -1.2017166483041626 -0.841945525379537 0.20461507444335084
Ni 4.10024719157472 2.0450353863582924 3.4964655341785433 0.7082659016044834 0.9694527017952919 -1.3613227621369908
Ni 2.681099325358516 0.36498887365978927 3.9885001060151963 -0.7217371966180408 -0.0017133831466809202 -0.07719325865255093
Ni 8.915477488804584 6.372279023074665 3.9489848261466753 0.7086019447876636 0.8822383114613129 1.0674063329236454
Ni 4.240498634037896 0.9383252912977382 10.550204009245078 2.0125960484065146 1.1145575366881515 0.41546970203851025
Ni 2.364894013603348 4.85479372156608 9.59122662932402 -1.342287856992727 -0.18262854286993063 -1.0700813086526473
Ni 5.073303524264817 4.569240387577482 13.750527258569374 -0.9672027294188503 -0.519611207145131 -0.03458570839466947
Ni 4.215170867993021 9.019771621962903 6.396292728354185 0.1606417541861943 -0.6246417997249242 -1.5634744626415138
Ni 1.9485198887650028 5.036458846339679 4.896370717463002 1.292189140564123 -0.5820213939512363 -2.0851947457098476
Ni 7.8075411258315315 8.13224252012132 11.625973259732886 0.8773079640392311 -0.8657557404252574 -0.9902786374017074
Ni 8.90009957941692 6.612208393852351 1.6942934990998917 -1.026834325038554 1.8781258104093654 -2.7237287300358317
Ni 7.1858638865899325 3.336845855563944 0.5338806103471709 -0.14165261467820123 0.5766675858384908 0.0059672733270284325
Ni 7.067154733397873 5.338711702554659 12.91924127909781 0.7692169873665592 0.7533674219288122 -0.3442097781512588
Ni 0.7442662701244692 8.274202619183127 12.24394526298022 1.2798337043225636 0.8947662687249944 -0.08321375381501797
Ni 9.205052301859569 4.49726912841754 0.04727503525014053 0.8048136535242462 0.5271039159777503 0.3181081959682005
Ni 8.79372862608347 2.7700061090374684 2.2613097753412537 1.8151216987730028 1.1956071929723153 -0.05899139093254356
Ni 4.449332342738869 4.235693627359982 4.586880142937695 0.5043846200033636 -0.8338802318728994 0.9234338118630161
Ni 7.873036482081751 0.8200853106634234 8.43221370617117 0.7966833111076279 -0.30095559544831396 -1.595865991598342
Ni 4.2498632050093885 6.042791502290373 8.702851695265656 0.3470066241701056 0.022809798805663944 0.3233547890791205
Ni 0.7549675580814093 2.7784455510218575 11.259268177401104 2.243059194261221 -0.03630089131356329 -0.10428394422175588
Ni 4.928586918425112 6.649525076362745 5.576669038175141 0.7089613850096113 0.5801660859100525 -0.21283154881587216
Ni 7.105283263794909 7.310661898931804 7.79815956269497 1.0456018354540444 -2.3046522844826693 1.600484978427592
P 5.03127623599356 2.7514468887451744 1.0894705995886387 -0.7387386162720438 -0.3019480412685703 0.2453308069951581
P 3.4402998205605075 3.8701355161703734 6.512185902190604 -0.8465994792117807 0.67974259735381 0.7776651181339123
P 2.7180856046592314 8.221451386734836 7.701084267663566 -0.024590287744854424 -0.10957578874831451 1.1076849779380342
P 7.452225514141993 5.223495383293498 6.684215525360771 0.0001984891640512711 1.0898055265544522 -1.2051516421276407
P 2.241955699327388 2.0570620631906333 9.334957403813918 -0.9694696710761562 2.023284895578928 1.3557712361911425
P 0.2613413867832705 8.115524117711528 10.0850019540711 0.11663063871256688 0.38101666256696315 0.6310708431797196
P 6.209040957309487 8.66976134181165 6.690985959131693 0.35726943954869433 1.9331906125939928 -1.088775028407409
P 8.766673323256557 1.5353837153815186 0.03487264276793549 -0.5883794749587802 0.7890849299350797 -0.8249975846712889
