# total energy = -340889.8692048229 ev
CRYSTAL
PRIMVEC
9.10090920096758 0.00000000000000 0.00000000000000
0.00000000000000 9.10090920096758 0.00000000000000
0.00000000000000 0.00000000000000 13.32010054961558
PRIMCOORD
 96 1
Ni 6.228689575163286 1.8094973772344884 11.481273872853018 0.0009369099919725799 0.6483833663162382 0.21768450603279926
Ni 4.7170649568078415 0.4844586896844908 6.179940554908609 0.14229230514472913 -0.3342238705831405 0.30336291933822596
Ni 3.0157136838739853 1.8627012925539779 4.990375271784086 -0.8005489647106213 -1.1156399711190528 -0.8013881727824649
Ni 3.6209514499519893 4.432961873583671 5.252502389506722 1.207865698624694 0.14648063219446386 -1.5776371272951413
Ni 5.473659944178769 4.404221202256448 3.2318293348363167 -1.510438775071773 -1.8408224459732165 0.2870587828615637
Ni 7.1023677596921395 5.8934939875594345 3.042724272357857 1.7948444365812055 1.9759976804571908 -0.8364821882721206
Ni 5.402909475876731 4.32278626652624 12.062789208949534 0.553186471997415 -0.3894948752413034 -0.5866987448222477
Ni 5.612867451658569 7.749970258204666 12.491936212738416 -0.4955292264952627 0.418688208975808 0.13981864679325595
Ni 2.0712395264969787 6.404500939539253 0.5714788534050456 0.5534577233809307 0.6873659182270226 -1.1880304090663216
Ni 2.6349498437890038 1.6115799043550942 0.04648653422176196 1.8742493581730946 -0.7850027894459062 0.7488016569350007
Ni 0.5380293716456799 0.4340551241330148 4.861277054269542 0.9955794807893306 -1.9206408009534404 0.8804202844159676
Ni 8.536079494186799 2.4286322316964912 1.2052643515347385 -0.44658802070986964 0.17770642297796493 1.1821947762211513
Ni 6.958282164868643 0.7090636687703289 4.922895670256907 -0.039055571240564996 -0.6735179566003368 -0.16350956265229258
Ni 0.7716569921355106 7.5071033946713275 2.3904257046861 1.0752625957432707 -0.17208881968087136 0.5057478188994774
Ni 7.739740836237662 3.641191872064638 3.63919786285381 0.7823743506841236 -0.3198784004947459 0.1998716462210945
Ni 7.774570015835282 4.196183518320729 12.897400830546392 0.33911308035464177 -1.7524276621778918 -0.9540258257172601
Ni 8.037886622393405 8.498292519091601 7.199607334379552 -0.38132288095347233 1.2774906580116838 -0.7058922591659843
Ni 7.0816904939367715 0.4267534646631505 0.1899769295820533 -0.9127740181563248 -0.13000397469567934 0.8326317041777789
Ni 1.7873548650941673 6.352534747874134 9.20137871068406 -0.1532896846964973 1.1007550835874202 0.08192460268994924
Ni 0.11085180461272288 4.925503080749386 1.392190656345137 -0.21601765985333765 -0.2559517770441141 0.7687055949477793
Ni 6.577527425692884 2.080331334811069 7.173912737369371 -0.5175846636334054 0.09920935791232591 -0.6617641584985183
Ni 3.7397547189531206 4.357096694298131 0.7529773759546602 0.8206123111193996 -0.07042174425667228 -1.2865121447840038
Ni 5.913989235130336 5.836658809459843 5.123243995989848 0.11952235843806511 -1.1293349521076421 -0.3692590078104028
Ni 5.3017710716780515 3.0272900404060397 9.318103332018586 0.35009066241206804 -0.1967189595247257 0.012193456742398355
P 0.39983934581704617 5.741363188982529 12.721428380077173 -0.9675084335847272 -1.2455493292183968 -0.8393217146034448
P 4.204301529347925 5.9930215308255885 12.575800181140325 -1.1123217053790972 0.14020791181187467 0.5948167459436917
P 2.192754866446658 8.60379025880825 1.1083269270335392 0.6862760275969535 -0.38469642541139554 0.9958993260225946
P 6.324431140192542 7.7776461231527625 5.865985579341048 0.2303032232380743 1.4979416710460265 0.3415317170984634
P 4.567263990992106 0.7007918523772594 12.539156280243576 0.732236553487468 1.2674651554548817 -0.059089349962988556
P 3.960378960344682 6.262253728378866 8.451590293321246 -0.3049983980591198 0.026549982574386535 -1.8915904205547036
P 4.757700516489936 0.8971539798703893 3.7123782739184725 -0.08362615876208823 0.11517256610980164 0.38373688971160363
P 0.2936827002726306 5.6755909180256445 3.4666491744344015 -0.38562099410819395 -0.02454040834352548 -0.069937348421086
Ni 1.7820490350169755 1.3428573577183227 2.7945706906566956 -0.9533347131875064 -0.357482584000765 -0.9712506742359789
Ni 2.103311130599935 6.454146399352426 4.582607213851689 -0.3695785959333506 -0.6077493948449598 -0.05141537835749854
Ni 5.828731917526337 5.511992973827365 9.45046513558061 0.00019668939183837094 1.4949319376854253 0.276376363447053
Ni 8.535287715084369 2.349126688721627 10.092027360641623 0.6998859050709043 1.113301038573231 0.3300429997325735
Ni 2.403404511329467 5.364385327134446 6.943049063010662 -0.4868216714189358 0.49461545643174176 1.077506654582441
Ni 0.38579118233993975 -0.023793417073430266 9.005467078197482 0.5885671654895541 -0.758911234565177 0.4937325396061561
Ni 1.0452303233883082 1.021258528494101 11.309963818178902 1.1375349714199312 0.5483183452718363 -0.32054997264047375
Ni 4.284334925057742 6.658880453240082 1.517106095980646 0.5654496056354842 0.33655251871631714 -0.09605872809848619
Ni 5.535782750537106 8.10107423513087 8.107186405765248 -0.1357125950446824 -0.33770180182941195 -0.2402724186356443
Ni 5.252862785511965 2.6379258411050275 5.009782960702801 1.1550912351361398 0.5264536839882611 0.1331273508160094
Ni 1.0048950937105836 7.469680455945063 6.425017119201367 -0.06540217955489382 0.1474800199932557 1.0852397615606408
Ni 5.172574564343896 4.668566211556806 7.288199225122973 0.1632748209336672 0.09484156786193344 -0.44605245992137366
Ni 8.158409963237743 6.969112246844386 9.196263999700555 0.247271989881929 0.18978186608526024 0.620644505640073
Ni 4.8014667889448495 -0.03869615592660579 10.384550605079205 -1.4177348223781325 2.3097914054814477 0.1385104695047937
Ni 8.293585767931615 7.233147825231152 4.783327766771864 -0.38927041793532313 1.3256528195392072 -0.178232470684764
Ni 7.294169421573467 6.242814186277869 7.1369230019221375 -0.27047516747126965 -0.5465612533714135 -0.7722766001284893
Ni 2.3730529790697172 5.1138919016719715 2.505017982989605 0.49755062780066567 0.8168078497716449 0.27364122390407714
Ni 2.1945113419267575 5.1004589596583605 11.56275340303842 0.4865884723622071 0.8031637766256491 0.14731341250840435
Ni 1.3122965045464365 3.6936313110093693 3.896955634058334 -0.7513735314272351 -1.4967903310504027 0.8792668875378148
Ni 3.854972229720267 2.624547504546757 2.650872794566113 0.5168686114029872 0.16799048124178165 0.34032227017139455
Ni 1.0417810787926725 3.423033977072595 8.260180880627445 -0.2105134422056568 0.3250602018060015 -0.34357960076642763
Ni 3.675939143479248 2.7873900732795014 7.293234758196232 0.5589164325026568 0.026070728945122842 -0.1356855984614889
Ni 4.094963205939038 7.134457565613541 5.936648678914542 -0.24575812434056385 -0.08446099595855777 0.5867329404942927
Ni 0.5465896868611283 7.30928603179339 11.288411955047174 0.510485590694779 0.25220413707622374 -0.29242210405600605
P 0.32444741381111886 5.578711739343474 7.785985286274085 -0.747030681077507 0.6346197368732425 0.10986735184680432
P 8.571036086513544 1.5511043625661776 7.99023517179106 0.025043830342505256 1.1535292899656586 -1.761588502741553
P 1.587844733100693 3.275107798556861 10.54416508131044 0.5225139826142228 -0.7387221612118117 -0.0490857017830574
P 4.116131920792466 5.931508485385215 3.6107866444404704 -1.206090351891826 1.5445426587340174 0.8403267588291915
P 7.057054332669262 4.017823899362235 10.32468937466286 -0.544229005693811 -0.23239250166693526 1.5803095319209817
P 6.275750376757039 7.675888857126895 10.153273749441755 2.081296953317338 -1.3844662901329898 0.7918781764095008
P 2.6401646647739625 8.784425105072572 5.65000007138061 -1.296790129671244 0.33317048961796164 1.2815450305867155
P 6.525752353121455 3.792658304268241 1.5455582684854903 1.9304181920551784 0.4225438352764722 -0.807928545004144
Ni 5.220809383227456 2.4673474995324667 0.5585846852174552 -0.6996326514095177 -0.9952755763956664 -1.2242071160971948
Ni 1.5385906123841215 1.4238554498058111 7.072373893164865 -0.16797274062996878 -1.3355011730881967 -0.5841404971767682
Ni 6.964607296778845 0.8887993452033877 9.271176313790415 -1.755408084962454 -1.1350407442431678 -0.7889062382653703
Ni 2.7375170907357447 1.7854709768849413 9.313707592863725 -0.6205177502542216 -1.471051788633718 -0.33723334683342565
Ni 6.3993316231004105 1.7710642375844363 2.6011226742968705 0.6428387823489252 -0.1963561768686683 -0.054784037719415334
Ni 3.874821312736313 6.9138970305865435 10.529632749462651 -0.236330917489393 -0.5860806516222746 0.6563381023869406
Ni 8.432629459045396 7.339018702225955 0.4047683982523926 0.24922397140197727 1.2912000371779762 0.011783108677857125
Ni 7.669836752493393 4.120382045399753 8.179154575721364 -0.12033919791240566 -0.5613008735744333 -0.6427022567710609
Ni 2.7532434618736303 8.57632371477229 12.233313855157677 0.33321676947486484 -0.9200342992631638 -0.07799852816266567
Ni 0.008043383571564287 4.804470088988543 10.054371438639242 0.21111662300729447 0.5446267553528621 0.898298193137653
Ni 8.717642633191899 2.535677125981102 5.743946937111028 0.16374841813597604 0.42212011747549233 0.41301404140916603
Ni 3.7514129836681853 2.5709977546767813 11.220359906329849 0.145111262650763 0.12371145681874823 1.4222257682699506
Ni 1.1977524610618155 3.3000078861918456 12.934403307266539 -1.6431004991052733 0.812455229229904 -1.355646280577504
Ni 2.9184340651859895 8.47312850508914 7.9758894085823515 0.45427664760337894 -0.160201324214666 0.24194954922775105
Ni 5.408078792315573 7.85740649158588 3.5313320665572565 0.7387535286703792 -0.07685284459399667 0.8242931024050966
Ni 3.0233493467123456 8.41431842968809 3.6034203685151205 0.2238145301899371 0.39692433493615514 -0.9639479699269785
Ni 3.2028010747776365 4.401882268586056 9.31689109091004 0.603970901639134 -0.8770629379079605 0.23814560210062857
Ni 7.398247419451278 6.204271835717137 11.63308340933434 -0.12109278824897857 -0.25876764922635437 -0.9409455954945343
Ni 0.5161061914176404 9.60546363065378 0.2787681302374648 -0.5131173718906712 -0.7407024248666341 0.34219274772123004
Ni 4.339468233132574 0.07920703315234023 1.5378588992825672 0.36547691506015123 0.60557038491577 -0.5411645078358744
Ni 6.658580123235713 5.89584202213905 0.6995086241767722 -1.4023686243347073 -0.877337788835902 -0.4937685350504141
Ni 7.945357678319979 8.953947741175227 11.126306559961519 -0.521838810924069 -0.6623799377056463 0.8491885800951955
Ni 8.957861132141252 5.123001911804509 5.5170121252640225 0.12121902941419768 -1.1584598944980564 1.2371528776245855
Ni 8.044803313403124 8.746556221794364 2.770074683391226 -1.3664670253420919 0.7357599932596941 -0.2650048883853178
P 8.718024871379278 1.6254951945575402 3.48836121356846 -1.1456807404555172 1.3005598811263215 -0.9609426074417515
P 2.082633864844567 3.1601360123387443 1.51983636874764 -0.9256678433998574 0.2662547016320188 0.9913173630788668
P 4.688606413666541 1.110729567068494 8.439269482414726 0.5374657188280486 -0.12023352557247681 -0.8446891495629454
P 8.277058516782079 1.831912916651509 12.266214552090878 0.2146485474199529 0.05603796473117446 1.0247992968863964
P 6.33159355575129 7.834745227619829 1.5499931415500108 0.7533216562925413 0.27460281648639806 -0.5050093980715561
P 1.936282143624466 3.3797045482604005 6.0710090421420055 -1.6510585776100855 0.008646105710772206 -0.004346707004469933
P 6.892992242100593 3.9990669254529867 5.900631830663279 0.1170561562857597 -0.3210803912226471 0.09621325139847946
P 2.111602058902373 8.426395336227426 10.111142000283348 0.48751664060343136 0.26060650220730597 0.3332782188404196
