# total energy = -340892.7373380166 ev
CRYSTAL
PRIMVEC
9.09006687946610 0.00000000000000 0.00000000000000

0.00000000000000 9.09006687946610 0.00000000000000

0.00000000000000 0.00000000000000 13.30423171614481

PRIMCOORD
 96 1
Ni 6.458801602889585 1.9947606433253047 11.563678644613637 -0.9574147967941512 0.44065417172393784 -0.290994370470544
Ni 4.6070186220151275 0.400409266390973 6.15058652213503 -0.5117024938210154 -0.9268006714527199 -1.1452421102562018
Ni 2.6194754918175467 1.475617831943123 4.5827226911740935 0.4748354455913371 -0.7429544541256043 0.587811261160136
Ni 3.2666973459826414 4.087348586752079 4.803599500036348 0.5420685077073826 0.1589286281498295 0.13033256167969168
Ni 4.887774428643449 4.80629106884884 2.691646078061332 0.496615517580906 0.1444396905050351 -0.13301859315228703
Ni 7.387724630641796 6.028650546570904 2.6948385095606477 -0.4874886155789734 0.10414227643756903 -0.49013942293825913
Ni 5.149232023218674 4.372031302286165 11.890124763565879 -0.5589984506935018 -0.08265016800206411 -0.5101842574042762
Ni 5.619533905085413 7.816466726589196 12.588118277458417 -0.1770585049813209 0.168956958920109 0.0985275013539529
Ni 1.9211856417436939 6.5579196924924865 0.3817200888209468 0.5756890239753053 0.0925154908319181 -1.3158579449359726
Ni 2.675124881449697 1.7009151403444358 0.3275087477741948 0.266226933717877 -0.3481559072832004 0.3660253313644535
Ni 0.5475156372330197 8.973286821879407 4.532990935101324 0.4287885306346034 -0.7704292625071054 0.8313446099352393
Ni 8.685531663729238 2.4459188442764423 1.3847707942229874 -0.7510498295392292 0.3112919443773155 -0.3081467138801145
Ni 6.730058289595398 0.7344564992946035 4.90555005448887 0.5110424916395134 -0.21316939177126515 -0.2658458962293744
Ni 0.5242623370667336 7.335929429380119 1.9907655589177042 -0.6580540566367827 0.746926551399475 1.7013573258646377
Ni 7.83617399165331 3.917955189856438 3.8498060492142967 -0.44927893727847146 -0.4533834463651482 0.4754964762141037
Ni 7.704477102239623 3.934262769895654 12.934600721896967 -1.019607725383128 -0.17748170856166853 -0.29932603026469096
Ni 7.940273437923708 9.029817948001972 6.850960724551689 -0.038012988908663566 -0.23846724710610548 0.5821036692523974
Ni 6.917940882589013 0.7201605510629011 0.3191377051554024 0.6313343812537514 -0.549201519207738 0.42150356693741603
Ni 1.7393661233800441 6.624268090879461 9.211491116288345 0.7124454869034698 -0.40917975526474054 -0.69523066568708
Ni 0.20865703191313673 5.026234327839285 1.3241091416958413 -0.126676195874027 -0.6407441046034255 -0.25727563806186016
Ni 6.35313866511041 1.9020692310288274 7.31244524151428 0.460417213283478 1.1541293854435026 -1.0188901304908131
Ni 3.1913770515540243 4.300537926027285 0.3176442071618444 0.5254234429515338 -1.0432225365885905 0.2287811301665931
Ni 5.9904813556095515 5.647258609165462 4.870413309849191 -0.19647367628313905 -0.7726800062144952 -0.15221984867108623
Ni 5.1963185698202 2.724629385849678 9.490308011644446 0.615241589456947 -0.17534075095926577 0.27105366568255895
P 0.16828531773913027 5.801880647329929 12.197027238658414 -0.5516564085061337 -0.9310460769926353 1.2271901099849187
P 3.8817312732141454 6.054393616064247 12.68876440730914 0.8802305370026647 0.8584944308771538 -0.27730350324701275
P 2.3752253939057746 8.452053295107582 1.5563421711506218 0.16906340259098626 0.611003125895567 -0.20428803012123525
P 6.264701404128511 7.78978738020397 5.771069865533429 0.17498516739205994 0.5601359067320547 0.3283782104356409
P 4.816144701380897 0.8771987290124431 12.786510805815096 0.5251146534618634 1.3323063202999827 -0.03002765671034183
P 4.013428162627831 6.170064717512974 8.35515045481101 -0.26551808057631043 0.3420235691332174 0.15314621714009755
P 4.721508014765361 1.2643010464516837 3.9616275073260074 -0.017022759810241653 -0.6890091102574004 -1.3618063866416288
P 0.2511930910187693 5.642240892230318 3.5752333060991717 1.4826672613854595 -0.22014376620656925 -0.4574213638799477
Ni 1.2166418256347349 1.1613105883444872 2.5154978524437617 1.2589753728163156 -0.8747052363090614 -0.6079766803644174
Ni 1.9680449366724317 6.52990410627127 4.967787015611777 -0.2458817944026217 0.2519069175507791 -0.7590626725413766
Ni 6.132086417956763 5.747067543853636 9.199144078402467 -0.5249724714570443 -0.08323843640536632 0.07616018940234626
Ni 8.53310942175735 2.571798090866775 10.299950272377377 0.15437828977498574 0.08298132608923774 -0.670067021937259
Ni 2.3479370130374777 5.146568633613607 7.142416448941526 0.5513640740766955 0.5411747922485196 -0.5746963210447329
Ni 0.5698099353401432 -0.10473211492743857 9.292872667333546 0.21870497687751367 0.4822525639910146 -0.3492771653718372
Ni 1.3323765575518427 1.4333490208046882 11.362479103594687 -0.00666429939405304 -2.0249617690607193 -0.6279153282698734
Ni 4.209573626443992 7.033975586714199 1.3376606134474924 0.10125132804301917 0.1622448370072561 0.7077815057688971
Ni 5.690845480006063 7.935337531590768 7.90508215288256 -0.5361179465509024 0.21729189858007092 0.8031509211098427
Ni 5.675210564918297 2.922129269635651 4.914556492784775 -0.9557806036248377 1.0513482510195182 0.1882767422946435
Ni 0.6947701761657235 7.58962410681293 6.809331854123823 -0.29282833835548927 -0.9416562484083137 0.9041333117621911
Ni 4.930615913997307 4.336570951264437 7.487595377784969 0.7777558780755057 0.2763131143092854 -1.0115537447303997
Ni 8.149054094746841 7.165372503919806 9.144290978631764 0.16187639792424377 0.11850831535125395 -0.3555802247717295
Ni 4.840706062175746 0.30674067190151055 10.523913158956082 -1.0466225634090751 -0.3377174855586958 0.29898458776487224
Ni 8.252953559545187 6.944583868706593 4.8630958059854414 -0.18322041081765866 1.4600135285416855 -0.2544497385772908
Ni 7.196687784429894 6.2315135698346555 6.890275263943888 0.829496758093223 -1.264620229806919 1.522963647011661
Ni 2.500041102667462 5.22709753638251 2.590200931329089 -1.1837189261751613 0.12030860178478636 0.3037331581934511
Ni 2.1104226547071208 5.41160771455196 11.432033568581346 1.2084539670279961 -0.45400359644765037 -0.524691964102148
Ni 1.067492007750985 3.277605426276431 3.8621385429931165 -0.005133721682139545 0.44230610550506405 -0.8493323047619115
Ni 3.757460968467147 2.7104216112670176 2.452435513245291 -0.504013352706874 -0.3899455896254768 0.36665088076359437
Ni 1.2457209496845956 3.353816547262374 8.111177603940039 -0.9491574418813654 -0.5876927333044007 0.7331346398217051
Ni 3.629581907156287 2.4131946033950737 7.185895147985881 -1.2010641023218283 1.8604636172429119 -1.2779064053928637
Ni 4.149133771549486 6.777426628271179 6.225169612137126 0.17576241187771663 0.6882861160484469 0.3289297120637368
Ni 0.9529662547331057 7.7189484887627176 11.41294170104714 -0.9224853319068178 -1.0165743378734429 0.14306723563754073
P 0.20926061235605975 5.512489277135691 7.724477067458285 0.2986338892936728 1.3372657211877872 2.183697821583768
P 8.640981245796018 1.5427297959506636 8.287963952254795 -0.43076365208310335 0.5164937445620719 -0.7113733368852136
P 1.7897432742035293 3.368833337800158 10.35154367415362 -0.9396027083133947 0.4565831842493685 -0.20354832374173332
P 3.956897036505267 6.159502059761821 4.147381206648951 -0.004378845793986006 -0.21872631703375234 -1.5541842955888394
P 6.776572161981499 4.015791580024819 10.466399396600385 0.5128016404224652 -0.1642343566334591 -0.3004470312430116
P 6.396634635281895 7.77387976310886 10.374719708751158 0.12081845154166936 -0.5293901409087657 -0.2581395287240522
P 2.3986141360690416 8.569460599336404 5.928046231027974 0.30590574036473767 -0.29783813286525485 -2.098001153445897
P 6.758801081169533 3.984076336570626 1.8920883375600102 0.9522851888770696 0.12122340028957188 -0.9063048654922133
Ni 5.428151636330875 2.8155209648976807 0.5053613609376697 -0.574568537217617 0.08832510689965434 -0.011480746946089904
Ni 1.5316944547201132 1.061737995396011 7.116752463030313 -1.2320422958708974 0.4370386864585376 -0.1286009237005656
Ni 6.8166411769273525 0.6013224703022103 9.265626100773042 0.7211358155886162 0.10791357055454319 -0.2121142110338734
Ni 2.8807149247868966 1.493597984294053 9.463605940091941 -0.7708840906563369 -0.7637343669854332 -1.457398973736974
Ni 6.5504931078257975 2.0587001739807347 2.7840702423906114 -0.4190139677463429 -0.6572829827987131 -0.42455829460333977
Ni 4.375085564768426 6.846656577869098 10.676326310861057 -0.9108575178599023 -0.3814372950441495 -0.7679694881127033
Ni 8.171397479215287 7.4166492235541615 -0.10553567684241441 -0.15785776368315393 -0.1870058460020199 0.905568244436505
Ni 7.805376844957177 3.8837492680684966 8.305565957822209 -0.5647726341731176 -0.1600879385652533 -0.4881853845356818
Ni 3.125174094237633 8.7117655968358 12.341697471568182 -0.054490417738396475 -0.6441474738580196 0.18007003811413505
Ni 0.10801453808917809 5.041305658778537 10.031856019950073 -0.32918913637271047 -0.7238519289681985 0.10484264493870331
Ni 8.564124730059358 2.344610048547872 6.085408924366255 0.09718512839344552 0.3776294912622851 -0.3277148658200291
Ni 3.4388632132862873 2.4857878777502433 11.416135041553147 1.8814816142554758 0.9576194566057896 1.8457517649540343
Ni 0.8295967756170365 3.409538657429816 12.479515612040066 1.4113479450151825 1.3715889199496896 0.6782935236121093
Ni 2.980942002553 8.45960714071103 7.994166626628558 1.1988043597533742 -0.70332835509355 0.8321892173237218
Ni 6.010179530606753 7.821520803791985 3.625602275862436 -0.7996097407258036 0.14044702440587425 -0.5504762721551035
Ni 3.5596520224061843 8.426510207086292 3.633837876484247 -0.7336293200699364 -0.4366787320159576 0.457767948586089
Ni 3.527545906074797 4.295774730965665 9.41517860862097 -0.7860212034080915 0.6374996295241988 0.5033104131025784
Ni 7.159127627951611 5.930577814662823 11.515597644691994 -0.16780690447606586 0.1301366436188017 -0.45286588329878136
Ni 0.815909861868404 9.124336463747658 -0.1057592924884371 -0.44381482884010665 0.5534525811746082 2.262649971908955
Ni 4.856431877932627 0.37458711331549954 1.715208361556065 -0.2190387060678486 0.012131493156211365 0.18492016711758474
Ni 6.237722085535204 5.578319541708711 0.5196709442697394 -0.9752621093882172 0.5043483674487894 -0.049651601588856425
Ni 7.9913868841670235 8.953806808488082 11.299829453433999 0.3154504466303793 0.4030031941403834 0.30197478074144773
Ni 0.15251859668114853 4.886174576867027 5.716509465917276 0.15029177841043792 -1.1140988518841783 -0.08255735117794169
Ni 7.921066126539727 9.005638370017405 2.5922761936049823 0.14979581261062588 -0.45381976257161843 -0.36640431197042705
P 8.571960367737065 1.611968835615493 3.835038326509888 -0.7653366784755464 0.9701263308235487 -0.12402050341873479
P 1.676571941155462 3.2747329651324 1.5385547282182157 0.20971228646060014 -0.25768392924387234 0.2634802242106753
P 4.642924386315518 0.9948532830612578 8.235319738743584 1.1618288109702892 -1.7459775356771738 1.7188413415820138
P 8.466842833972578 1.789888715274113 12.357076955775733 -0.03156286240794564 -0.684431518189047 1.8099735789131604
P 6.497088964720787 7.596132594721557 1.3934718062706668 -0.12186643319020948 0.9899544212930692 -0.08417843172113244
P 1.7349847111287053 2.951362924823007 5.902674945271309 -0.0075942674074901476 0.9621201726896204 1.2641872560345584
P 6.781680779585757 4.048588541441481 6.3087336882477745 0.9104834223499352 0.21956732487780894 -0.08646079999740593
P 2.499850211262321 8.388204665121268 10.246187980636051 1.4554665326009515 1.4071135952188605 -0.5551726491895084
