# total energy = -381166.8709290439 ev
CRYSTAL
PRIMVEC
9.28746441226117 0.00000000000000 0.00000000000000

0.00000000000000 9.28746441226117 0.00000000000000

0.00000000000000 0.00000000000000 13.59314295862915

PRIMCOORD
 96 1
Ni 2.0077547444755766 6.701119102679961 12.663643319597824 1.456263060360318 -0.7522945005796076 0.16350442044597002
Ni 4.126615424348029 2.3461342187086105 6.415432985888013 0.5102446783285665 -0.6349130997439453 0.7077704500253036
Ni 2.346951515566834 5.016716715203268 10.26049800129599 -0.13070742852060716 -0.4301419593387043 0.3425706998859391
Ni 3.6214888161088488 6.8559225575988885 1.1002998265795392 -0.8348197129680333 -0.22423130601238156 1.310843779550833
Ni 0.6712421946730617 0.5336409811268743 12.26661536581583 -1.8904480794201444 -1.9413793190523725 -0.5650135465393301
Ni 6.657997405944384 6.3987099776730485 6.51959747046857 -0.17105883575446026 0.28504046687995427 0.9350755098670025
Ni 7.670591063425838 3.901728763836455 7.576478401454997 -0.15292844470233666 0.08156079159262727 -0.6529828127614625
Ni 7.211000892639712 5.73536212765328 11.831036076479302 0.2639371092424358 1.4469669797703724 0.9757287646119905
Ni 4.491947119973836 6.6296149150497214 12.590105177286324 1.173182802530528 0.355919096168387 -0.2756716240705446
Ni 6.065104260089182 1.7180694455569132 7.745753583243056 -0.6700384826921686 0.16827201703794245 2.221028953934059
Ni 3.9880371695576926 5.947209188290474 7.078900644197225 0.5777111966116566 -1.2473714700288003 -0.6217711630453486
Ni 6.394549193667548 7.735677613226165 3.0329152698986426 0.6694666693490987 0.5358909181417609 -1.0415708599177802
Ni 7.843189299939718 6.959459209592901 4.713544160631061 1.060956977753876 0.9858254867263604 -0.6524426239872764
Ni 4.855179848668296 1.3856060860816992 0.5377423253608675 0.4203383429847213 2.1678485132563377 0.19654283895817762
Ni 2.767896547409016 3.561584671386802 8.182310842570162 -0.7764381877053467 2.9232733319348108 -1.478925020734208
Ni 1.8614586068536088 4.247306022900433 13.485322003476897 0.8146211265329711 0.3884237536643117 -1.242844528692724
Ni 5.285700256201707 5.2420213116082515 10.523199501443267 -1.3856785652735362 -0.7248328048242291 0.9315248164012667
Ni 1.613631909525995 1.8013780003098996 8.7935810940318 0.6025110292641559 -0.6315377555138092 -0.8711026065594676
Ni 5.240758216463725 8.531566866242574 1.06408335954952 0.12994972441897618 -0.024343204731054852 -1.0429363728067393
Ni 1.2637266920991526 7.86399321996722 1.0308100899555346 1.8478888659016948 -0.18441931622176627 -0.8219153462015394
Ni 1.7166113136621282 1.38047011832491 3.924679945609652 -1.291189495655015 0.18818881056652753 -1.2433451224782264
Ni 3.1642205113972213 0.17994554952002154 1.8687446225953834 0.0830016378042119 0.10307938239069346 -0.4394874051093463
Ni 8.71316465566121 4.729910530216983 4.645157774765658 -0.8587451134353791 -1.0841948652358941 1.6760183328792169
Ni 3.9783782066877813 2.011571892302051 3.9125282273221598 0.22191911293943717 0.6396624415034725 -1.8965097122331918
P 3.5972392468267924 4.840858578720793 11.979433038525475 -0.3319924101494605 -1.1026895816059716 0.5902250128079513
Ni 6.770849384629283 0.7474653429131104 1.9116582801306845 0.3339137955418894 0.44892155393905264 0.12486202548342366
P 4.242625140894245 8.094331622021715 3.082014378656406 -0.1664971845257068 -0.5234740325346469 -1.6024395310508017
Ni 5.4631372616148415 0.6392199465200157 4.940644952631277 1.6881860785900022 -0.8959875427266052 -0.24530869550797105
P 5.62131206607394 4.635085519734486 6.126306792320088 0.3613312683228938 -1.4780241061864934 1.2246765995344457
P 0.6870383139510862 0.5793148730515385 10.120883265489997 -1.036749270159421 -1.1156343146920982 0.9043873367545263
P 8.216712539076354 7.014933233844807 8.549366291569676 -0.3625839097830723 -0.9946052898015193 0.05133567415949868
Ni 3.045405980633012 2.6545151832591314 1.3894362363581911 -0.7158406286279477 -0.5427534495895491 3.0203664148350824
Ni 8.288448913314042 1.9096791214887825 11.210074356022709 -0.17674277351311496 -0.3868132146440822 -1.5805697275609039
Ni 5.259881105453291 4.106433764428492 8.395968029999034 0.9661799445812909 1.471397602008911 -1.5387869871971627
Ni -0.20193454999194702 5.789656643939341 6.776535170272514 -0.35847297293849234 0.36763818437752815 0.08117846855254406
Ni 2.1370176725750265 1.8014894498814757 13.191357041009718 0.7686945392041858 0.5390991406664134 1.183552575800626
Ni 3.2320654380940517 6.2104437888884565 3.7874576606068224 -0.2887533969551672 -0.043532890285628255 -0.15745512892809657
Ni 8.598678083259864 8.994147600532655 0.8741129210662463 0.6607290323657846 2.371109901885271 -1.2119478391138676
Ni 0.35096398835681336 3.8928035106460848 9.25403499899764 0.249431459427093 0.47673240550373386 -0.4779495657402865
Ni 5.77879031071069 7.579267426983685 10.776452864160198 0.7534160157785605 -0.4472734768126684 1.7762090808682054
Ni 7.101046602815788 4.628119921510992 1.8167366800194888 -0.2777308205924185 -1.461672147191031 0.6262669940331731
Ni 0.6627608822761355 8.772855188704403 5.591036789955347 -1.342612330211681 -0.16192653443588886 -0.39640857164200116
Ni 1.454351896815435 2.942723775354414 11.171796071918534 -0.21661441289707212 0.25983517125892025 -0.29319677743850153
Ni 3.6154705392437503 6.6399054254918966 9.295875025660093 0.14643486655819296 0.7500188171715535 0.6136485339382142
Ni 1.5717547330063497 6.078441058821098 8.20096099962696 0.3838443618237454 -0.050604709530745105 0.13789057653260767
Ni 6.847461677623419 2.4818705094237616 3.3395223287682465 -0.2965407542100699 0.061966414400467476 0.21850340238966884
Ni 4.671798866104447 9.088851873979277 9.682327343845964 -1.8327759215196562 0.7996092265051713 -0.6814696073472457
Ni 8.453431429103569 1.9304366041947945 8.710961669129725 -0.6831133135982558 -0.17781312375915828 1.3926997337863756
Ni 0.554421682493631 3.0991711114540865 1.8412323671054422 -0.5415851403130608 -0.010919218015665064 -0.11168152223740765
Ni 1.0591238536143925 6.51080967174981 4.65684790607754 0.10550958909874088 -1.4856633678993059 1.1394905524844052
Ni 9.05831469136748 7.092585722840317 12.699149295609045 -1.1451608633963053 0.8897533888914354 0.5638344386295644
Ni 6.685386138159163 8.882307955456236 8.344259143773535 2.5171182224290067 -1.5828502960649642 -0.4276310199913926
Ni 3.2887282577760995 9.243051643718836 4.581731823581812 -0.4367196125562221 -2.0068218649268985 0.9531087132196294
Ni 6.515026180541099 4.68788475426857 4.143896609167302 -1.7639305206111684 0.6346043102542749 0.3989773608104419
Ni 4.250500910618942 2.4118894659383927 9.288847201425803 -0.36210542748475705 -2.8294854021483724 1.617313619949157
Ni 2.493024754045649 7.5749859059423095 6.42589995815185 0.13969960471688844 0.8218094167512944 0.11407650483214547
P 0.1919672433073422 5.108504724860321 2.840124228508069 0.5295045549994429 1.3145443683308717 -1.4928611711993256
Ni 8.960722016524182 2.36495990884064 4.398034138485402 -0.9141611283118385 -0.512637346930459 -0.12774320368596065
P 4.431690051608465 4.202466145269728 2.8916557241654766 0.3320682576927184 -0.04336936812457047 -1.7921578908879778
Ni 5.024787521678222 7.171529169373247 4.7145369905645165 0.9959790302205943 -0.8182381544602684 2.938583994149952
P 1.2447709774669513 1.0158999947715386 1.6469590464129087 -1.2368816262410698 -0.182941189014343 0.39708117222899353
P 7.109005959719166 7.926516429621301 13.301719050516326 -0.5242101393697229 -0.03820916407986968 -0.940976962953102
P 2.1192136035157763 4.70508513814845 6.28026323049504 -0.4070426543170796 0.5219275139831333 -0.04751784307530526
Ni 6.634788032663703 2.408954627220228 5.838159497489173 0.2682074544830155 2.2755337698501585 -2.7503437615201993
Ni 8.993571777746178 5.336437673661637 0.7258329810702279 0.9062459872298199 0.08097226607900894 -0.6354810564322733
Ni 4.228433895446914 2.5658849114633955 12.013741860388686 0.6770398537106662 1.9164776707146867 0.40137285762581193
Ni 0.24557262974249144 5.041235620949966 11.541462227132214 -0.2745254262812433 -0.08038631166855188 -0.08861152779182159
Ni 7.15241556784798 0.8394836816847538 13.028986160180786 -0.8376592392993573 0.6072719409879089 -0.6373114247727927
Ni 0.08088545531764066 8.878676556915721 8.169016766174018 -0.1907959091720714 -0.6625802266419105 0.281538881484599
Ni 6.183259380888234 4.0493158589958425 12.919888174565138 0.7768079123399396 -1.0285297104631062 -0.406219644195152
Ni 1.0395737412671198 7.18816301793095 10.689103333691154 -0.6081944528021783 0.502163958202961 -1.702761662411332
Ni 1.098484127309282 8.225461330445063 3.3110581081877615 0.9590500184047289 1.9889177309529682 -0.1595464642394865
Ni 0.6198574409515623 3.01105165019474 6.406094440536382 0.7065908278949057 1.5074254421667457 0.7806841074658942
Ni 4.4458255722700075 4.157709854817705 0.7485621924467032 0.2882833992972842 2.095924730532842 -0.3531734151024498
Ni -0.18826897502388182 3.1238386166295524 12.938347938603824 0.2747501406975397 -0.05542758484068518 0.8167026916523483
Ni 1.6292162746180252 3.810200803179745 4.070167145091264 0.42420656769087595 0.2463001128869629 0.8608500755935239
Ni 7.556169503274578 4.968087552138982 9.730841342352953 0.4747966219336016 0.7780446129605181 -0.8617355635222707
Ni 2.0735192791696564 1.1156473613319708 6.327825263911486 0.047541497224389086 -0.09981125316238294 1.3131287189302676
Ni 2.2987310009316606 5.062513201656666 2.0480511945717033 -0.4149943050639885 -0.5173098127054638 -0.6233544483720683
Ni 8.598585208616884 7.419597340772609 2.2391714211350684 -1.1586460423669336 -3.280588794230092 1.816744579088407
Ni 3.9552059832642916 4.023728894854875 4.841075905385365 -0.4962910443619518 2.2248275017445427 2.265501325314821
Ni 6.21366653899986 3.0262459417862546 10.507349514872313 0.3715742862071407 -0.23707885139901108 0.12283779596454326
Ni 7.926042768942104 8.496599563160636 10.868275237435153 0.5695386881031933 0.7055685572779785 -0.26749731578986835
Ni 8.432590359218876 1.2217287785436335 6.630449858090111 -0.010536123644633468 -1.1708605821552545 -1.3872083716545014
Ni 6.153437333027382 6.435479048828799 0.9055129091113269 0.1004026068894787 -0.7058644912518425 -0.666520185126265
Ni 4.648078682287377 9.366872117739662 12.253729009102365 0.13757818749851145 -1.071794177578696 -0.10994731315512032
Ni 5.805603220138992 6.715161748698524 8.722815259813252 0.9391463375022665 -0.9598208351324825 -0.8585054866207472
Ni 2.856406082168878 1.1033507586014297 11.080736199462445 -0.8047786865212527 -2.0330661433354082 -1.826622243213435
P 2.5927999829989754 8.852662369417047 12.927948764829363 0.6826844535909533 -0.6768552485036858 0.18132036558146838
Ni 4.993665228815652 8.370002137314708 6.7976994439147775 0.19088358378987125 -1.1799733430898 -0.7562239175410008
P 3.7187285673088235 0.3245606561040524 7.737570398450095 -1.8611315898442142 2.180816900491547 0.2734051966338711
Ni 8.020858491960302 0.08457072115108383 3.9967785309549626 -0.04855116943582606 0.14069976384662866 0.3847894993458341
P 7.117420402373146 8.813357820507946 6.05036226800898 0.2232141776017769 -0.05875099278696333 -0.9490638537262944
P 6.443206219124727 0.93014883690818 9.92731672083054 1.2544486885905557 1.5021639366574904 1.4517142646473706
P 7.47693814534841 2.8075540199614406 0.6388345167516489 -0.946137424108119 -0.8295417523985456 0.9520206223617732
Ni 2.281967127873785 8.530768144312947 9.068229988252016 0.1960864681470494 0.6698124827242917 -0.4187391168184014
