# total energy = -381169.7834001944 ev
CRYSTAL
PRIMVEC
9.23689851639496 0.00000000000000 0.00000000000000
0.00000000000000 9.23689851639496 0.00000000000000
0.00000000000000 0.00000000000000 13.51913465875172
PRIMCOORD
 96 1
Ni 4.5151713611062645 1.8736586236287875 11.775733617304587 -0.4651714401390118 0.9037553595974822 0.21289068418858173
Ni 0.04186901234531079 6.053465920311032 2.2150562299836136 2.3619511182041384 0.8035581838505903 -0.9766980705037953
Ni 4.630346245269184 1.283614800913003 6.016298489170222 -2.6484884813445935 0.6421636106587714 -0.38225721984228367
Ni 7.677746765238201 8.8111234162667 0.3958777558681243 0.6264801384852436 -0.7134237916563392 -0.4530692575588391
Ni 8.539780293548766 4.270596769489794 12.620003666608518 0.32538724612811704 0.19684365802804807 0.22998774888018456
Ni 6.2013671349406465 2.9457484548304382 6.706950607523389 1.0277480951020752 -0.002269769870783188 1.1453935482324016
Ni 7.370998611563777 4.4969007763862185 8.302181407483648 -1.3214099851024534 -0.3690317222909451 -0.8988877470925358
Ni 8.586860763881461 7.198009981312501 9.877593518578726 0.7019594997704814 0.4720887360841353 -0.07448845812687817
Ni 1.7936116634751378 6.647592452049193 8.186431064560335 -2.213205087014266 0.7978667898927678 0.31113459286384476
Ni 1.2031059958473198 2.4005682468695895 9.298663531826115 -1.074655558286891 0.05113589944386677 0.1889971654004358
Ni 4.293125564298789 4.946044953338817 0.6701803807823687 -1.5069801270992111 0.09082781871685003 -0.5552017026552309
Ni 3.690260926824954 7.5625072227875965 8.81152799240964 0.6443935284305548 0.20785903530194527 2.4809849670415596
Ni 2.9197742969776734 8.54150759351977 6.708775818615745 0.7560421405474979 0.4604737775530263 -1.0229020798636834
Ni 8.715558467068723 6.08499145400644 7.277309676398481 1.1339205145957956 -0.2567488190241127 -0.367172043374387
Ni 0.06481716233443234 3.3856834442370882 7.362777772129579 -0.29827470618204116 0.873528956612773 -0.43500108720321856
Ni 8.916553372785712 2.0502126966009615 13.379467905785205 -1.1268186134436917 -1.616230414187307 -3.507565267087778
Ni 7.264303199985793 6.918815495089998 1.9424966077673835 -0.7155768334435999 1.3782249372089683 0.4404577394424157
Ni 0.9142072243331679 1.7386151713501863 1.579224178999002 1.1331394134553967 0.1673047680286667 3.9156870134016497
Ni 0.6884980736834422 7.91500573344806 6.063196068917754 -1.0711637430835488 -0.11812393542864172 0.8629812630039136
Ni 6.980194683899253 7.85204703503965 11.592265725999269 -0.05941022363751703 -0.8397462037353731 0.20625749514278027
Ni 2.461568722850977 8.732785282287574 2.203389103815823 -0.5194471707634409 0.9950027823502542 0.5859973478798488
Ni 7.054681031312019 1.0363707457049782 11.747654370342772 0.3083156353578109 0.5959773419106961 -1.7972178219093884
Ni 2.8773954078494772 5.559605918975348 10.57334163369127 0.9611187280082997 2.075825131569489 -0.3364843844825431
Ni -0.008081362270762534 1.0533389277730898 6.926731516882252 -0.19686782639776418 -0.12322217588715553 -0.5891952859918562
P 0.5802480921315536 5.462101221146832 5.305503466823626 -0.4297519229891373 0.7211851807693128 0.6632320012932965
Ni 3.909267784111249 6.847460456180818 4.407792419058471 -1.5604472457794158 -0.3699704320551305 1.5745250640287205
P 1.0570244501711172 3.8731607488884685 1.639681525363838 -0.4907996822300773 1.5345014724479313 -0.18370506376356105
Ni 4.786994802532713 0.3673560614805822 2.1064164513259684 0.17548498984661393 -1.2740788041166573 1.255660963731102
P 4.007668461069111 7.734840033263784 0.8260438016954411 0.6206355067790086 0.34733161160969217 0.7532825755244897
P 5.72978653216146 5.757266304427454 6.763109101447016 -0.14524496001514986 -1.2279922941712398 0.4853438013218287
P 3.6643976117510766 4.10051776218433 12.122675209983463 -0.09497012301999773 -0.3561168140014899 0.21243071383302772
Ni 1.4932739171797398 3.973510411375112 11.060882672940512 -1.1733123861298569 -1.3870903580193983 2.025400142149718
Ni 3.113296552017959 2.6494934175574163 4.1610951882262945 0.7699111852201064 -1.1919531411594955 -0.6971433093287607
Ni 4.77772095669908 4.15687207835066 5.521579456298157 -0.48933878141383474 0.6658874366382724 -0.6030463329423356
Ni 3.5160160784129477 3.2738800279320137 9.879134233205269 0.6482632957986061 -0.8592691042596491 0.5744795770482365
Ni 1.479538649495863 1.1966309301806097 11.38031216420955 0.38442414558661536 -0.1515547042832616 0.8048853873024461
Ni 6.248041181750754 2.388763490918013 4.011370609883972 0.11804217434811283 -0.027465552410120442 0.9634273215368182
Ni 1.9187531608397403 5.504618663748637 13.392865102993476 0.4198626888998833 -2.7893101154810673 -0.8615800117810128
Ni 7.401314111589657 5.226089234199462 10.421548913832861 -0.5054873661492391 -0.08753834933230085 2.0328005483788476
Ni 5.325838498300461 8.922003142747707 4.356432493770871 0.24859816489252023 -0.3623769359785888 -0.023165896593502038
Ni 3.3818778421619315 0.8374125760500583 0.3992861713189317 -0.14031075593832606 0.811241411427461 -1.089543274032001
Ni 2.995950996768482 0.6958672710998491 9.55167418260579 -0.31294953458539654 -0.41885764467413666 -0.3896972210600966
Ni 8.996443305669269 8.798099389747353 11.99769073988895 1.8975067860391384 0.2892449918796051 -0.5655048843534519
Ni 6.6218030321612416 0.6015058897426324 6.57485557316321 1.813683937885212 0.6593478357475419 0.7044673537939996
Ni 1.370487828866508 7.4306135528090635 3.93683992535965 -0.3584367203839182 -0.662669186811291 -0.660413815118211
Ni 1.858704085377142 4.7697587504156225 3.6812734248367818 0.24572058623440907 0.14772993122053266 -1.0655872774370359
Ni 0.7303781703066418 2.6815824020455055 5.089116193878385 0.9239475182746409 2.520155980814066 1.3790296924984506
Ni 2.543601616126371 6.430590001681123 1.8007896570979627 0.8019491874922576 -0.370797041721484 1.5588007113149283
Ni 6.424225778793301 6.787217405855166 8.841568232867948 0.5373682740182358 0.2933538718416561 -0.16217798832506264
Ni 8.723742358909957 1.957714397618888 3.4295744136072814 -1.7385509041957994 -0.4835936513999413 -1.1121723242854267
Ni 6.216885123984973 5.058892139145088 3.874462227850579 -0.8732759600617024 -0.1320801404984177 -1.2362977287131418
Ni 7.893760867494517 6.5659936929911105 4.4141187706635066 1.3165359448396037 0.6057958706630148 -0.20947625919039406
Ni 5.013040176278399 1.514454124845597 8.595357786573055 0.44749947678054547 0.08649679544166393 -0.30433016834750165
Ni 1.731983078413385 7.881642057002758 10.38343839538168 -0.5426454632567752 0.5096952335829996 -0.12506000042684268
Ni 5.408102314031873 9.094816271932409 13.199123009775061 -0.7407073099626404 -1.1894889958897192 -0.6157709795978556
Ni 6.2360239771396415 3.5232116221424294 12.783031225797053 -0.8639690808384799 -0.016205406115268866 -0.5235316252454597
P 8.62445493972099 8.303777543499637 2.930367171880074 1.1649640141651614 -0.3636941121281156 0.2826801941778938
Ni 5.359719441047241 2.551332899953812 1.8244610562193289 0.26344062922199146 0.6720030626177071 -0.8433712020824701
P 3.2492729310188677 0.21209396264297747 4.466532626040367 -0.3467986219243576 -0.17752413176382978 0.02336772819166298
Ni 7.841886446974913 4.340344588105096 5.422808379720844 0.2332548496672305 -0.342932454100732 1.0249090829913834
P 8.661439480276634 3.237486648863772 10.599407236836617 -0.7498825487040053 -0.004022748006147911 -0.5716827310293896
P 4.153814665032998 4.784713288667268 3.0624760615876143 -0.28979392240453966 -0.07492117478892257 0.009037941832552177
P 8.20323390614994 6.342534650752812 0.12277223296587063 -1.2177500476179415 -0.45383878873501193 -0.6691046580239896
Ni 7.654460544773469 2.025337729638836 8.623111894716798 -0.3323991586695759 0.6433555740843436 -0.42616292008629825
Ni 6.880297629426402 9.174013437447917 9.501625896868367 -2.8804629216375037 -0.02375570765870102 0.7446151296574789
Ni 5.254908356710353 8.428429485257483 7.537552818500601 -1.022485046930923 0.49880198370926354 0.10602226706910127
Ni 5.128593773269186 6.708925456367244 10.835815486718513 -1.075319417123135 -0.6825273591877987 -0.3326619254126593
Ni 0.34143178287831666 6.363373093183764 11.992580887782212 -0.43724488893207275 -0.38675973569832744 -2.8808167054324967
Ni 6.964907617310943 7.387708160481149 6.4960518995127545 -0.013689324561634488 -0.22638666179248754 -2.3265819946762254
Ni 0.8039491411037575 7.545566751414206 0.27227235468094513 0.7749016964561622 1.4299958991336728 1.7543014821618368
Ni 7.7217144008637915 3.047114176123555 1.445303933546466 -0.7286850886907837 -0.6799192321409903 -0.25269007557370676
Ni 8.946804214523906 0.5066438685007715 9.750351550554194 2.854112456668433 -0.12538550208706148 1.0494926858680182
Ni 6.3776348640673595 4.9502292682418405 1.2794424939776923 1.8105693035156303 -0.98744862415208 1.8253510898104952
Ni 3.132860302491699 3.2334685981290803 1.5340566702919478 -0.3553881633655815 -0.36319300412198097 2.129631635866984
Ni 2.03902681283151 2.7399041775370985 13.158835354408554 0.04376557512172463 0.8663236971135855 -1.1875177310959613
Ni 8.155405247059749 8.550568990693868 7.924619497136949 1.834421170432563 -1.2543939240932203 -0.7589040354763252
Ni 5.147307729104784 6.957379545244796 2.6443152124036966 -0.4984325161849868 0.1167342541699667 -2.199368695351806
Ni 7.142801040528015 0.5856941673342528 2.3762179357275346 -0.45835441721717834 0.6039223077893858 0.2897532989745913
Ni 8.496736347747241 4.237565621381156 3.105020291194318 0.20800790217498372 0.0711028294840969 1.7053211956083922
Ni 4.633514501365735 5.282240338604498 8.71766540355742 0.12166845824679044 -1.4612597422439608 0.7342517841452838
Ni 6.145502374381072 3.05737637006894 10.136592450487829 0.25638475081647455 0.2641386837302806 0.43687567851811215
Ni 1.0959672131537839 0.670927645850039 4.364084340273443 1.309340198422113 -2.3963239392570537 -0.3903356259750439
Ni 7.682873243761772 9.016182557209582 4.70284758325003 1.1430954962268443 0.38274135856755376 0.20453871267946064
Ni 5.001373973800433 -0.17086691472539325 10.749442174959826 -0.9737657273483488 -0.24911238552477744 -0.3474041167188404
Ni 2.125899840785015 1.9015910039085748 7.16991318424403 0.309109592014016 -1.328473319707138 -0.9244586535831046
Ni 0.33295877612214964 4.994520195305856 9.335313696665448 -0.8986185525915492 0.48928016026175736 0.39253597606047236
Ni 2.504132349943986 4.084131504705381 5.8841628124577845 -1.1337055703715122 0.43100327889773515 0.6842402281138474
Ni 5.77539833567389 6.095761677355061 13.003892852250077 1.105701114738786 1.8268947801485311 -1.5142923444899081
P 3.7029708988041166 3.0915436566611803 7.680517834710401 2.860674683266983 0.15858641431906237 -0.452819089221246
Ni 3.1134905268810127 7.4908104186435125 12.427396788183882 0.2893370373727791 0.0867050547977281 -0.6291175761080906
P 1.3535288836966373 8.98129479255457 8.130812929183787 -0.1813486477162425 -0.0832471781561147 0.89801614312086
Ni 3.5870847734766653 6.15429590150619 6.862163750800319 0.20662336312263124 0.07376623524887295 -1.7052880283776113
P 6.597953360903831 1.5699216987808227 0.13705247764594708 -0.08074858010397705 0.7045321455936641 2.464875720184523
P 1.351515239880171 0.40771668834319147 13.643239543015264 -0.605708453155531 -1.0693565146714807 -2.5590840253378313
P 7.932759051866628 2.031397134884716 5.49095821494051 -0.9001581291645272 0.5120686189111826 -0.06723203367478098
Ni 2.107601545370247 4.37071550952042 8.145318554180935 0.7191455246314647 0.3953222805563579 0.534885359695382
