# total energy = -381161.50038624066 ev
CRYSTAL
PRIMVEC
9.30938408131225 0.00000000000000 0.00000000000000
0.00000000000000 9.30938408131225 0.00000000000000
0.00000000000000 0.00000000000000 13.62522460996871
PRIMCOORD
 96 1
Ni 3.67526096991477 3.592305050192916 0.8935872776430693 0.5725867309008978 -1.3342706431152054 0.8019682136556511
Ni 6.689704634753107 6.069485552761289 1.0169347521274845 -0.2605219129132997 0.8606698412619178 -0.16607860893104948
Ni 0.26625955012329644 8.286245350773592 8.47476689083771 0.5806782496597805 0.8941546032829247 -0.5126486597843687
Ni 8.906864736272091 6.896037818987781 1.559229636382597 1.5461981920595693 -1.9445672298620513 0.2646960988956473
Ni 8.657466342225579 1.6385725842220529 10.53188937413894 -0.4146911720012729 1.0801086109816624 -0.5494576010826021
Ni 8.460656657696378 0.8802618255625102 7.925983366020804 2.0416317735172327 0.37326067277062813 -0.13107792448614847
Ni 5.622337226414067 7.923747252013714 13.420627497556993 0.46659814528320925 -0.2567426483765256 0.39097274533841053
Ni 1.556445199665191 6.366631776709428 5.118315081151265 0.5686827678608013 -0.5736203143717346 0.043778430637531056
Ni 2.6933909430958187 4.172270356303542 3.905684046806187 1.5008272201239377 -0.3524974720813478 -0.49356104702529835
Ni 2.1308900411371616 6.3359015005337085 11.613963747125785 2.603223695969523 1.59105982845895 -0.14149860559884017
Ni 7.768857723079564 4.086866068622217 1.0668740109935952 2.1906685964746466 -0.5030646156403594 0.681396073796833
Ni 6.1582039811025835 4.877735466450788 3.8073508867974337 1.572474095036963 -0.8257421761467972 1.5789802715865968
Ni 6.623151849421323 2.8174943395509904 11.19662313701214 0.3695369440621378 -0.1378070156798659 0.23469261055502164
Ni 3.641849591182671 5.982535907356495 0.2901167081831321 3.3558673523584335 -0.300927827534172 0.7749955417215492
Ni 2.546730909508332 1.2763258388268348 0.13701923564517315 1.998082171061056 -0.8459266215144723 2.661628104050345
Ni 4.868872933000535 0.2570153319341144 1.435171855908419 1.6012365118816358 1.005187693303056 -2.695358920643887
Ni 8.396654643546702 8.038504027057064 3.4908504537704337 -0.5438533675219472 -0.8226853915983444 0.06446604089386962
Ni 9.089701035602943 7.03217824879503 6.454405302587276 -0.6310582447742293 0.25344623701344093 0.44683356106177247
Ni 0.6458934317843104 2.965094620909985 4.8359875344574474 0.8252642080691143 -0.06636531479911152 -1.1907478079974847
Ni 0.9870739724058124 5.723371969623727 8.698410874390394 0.8434678755613344 0.8547748159337215 -0.0026412942775889993
Ni 3.201562280752294 4.783701379916118 8.01031055798764 0.4164906871038569 -0.6155447225196625 0.3094898581715702
Ni 0.6766860808320017 9.10633690458992 1.8261892521733922 0.1927427484857971 -0.18881307441408773 -0.8816677836698236
Ni 4.265382813834457 5.3241855890072864 5.7757056020228275 -0.2514952839346572 -0.3798452679666813 -0.044991219998709614
Ni 9.19468295757616 0.9678314759334666 3.8905600217607237 -1.8434789097594575 0.4030538448726607 0.37655425592023534
P 7.928206446890469 6.929607457245777 13.007797283931422 -0.9283381911431688 1.0233335109741473 0.0947117271522885
Ni 3.49886676422633 6.721179661638933 9.499151942881412 -0.22126708117773505 -0.2776392893198767 -0.08480166712742813
P 4.1503746854264465 0.9966160908790366 12.245030123210286 -0.040290472088930614 -1.0575790624205788 0.4898941396966724
Ni 7.540014448631958 8.583736021925155 1.3879472133806419 -1.7953758836046434 1.5377624025873904 -0.5604917474095766
P 5.394452818505721 4.98564053496117 11.394638386753327 1.250099924703557 0.5286236950563864 0.7624791544220934
P 2.0225660503523457 4.856174933393239 1.3534782886401933 -0.6841098731835702 0.3099081766559114 0.44069325249198943
P 3.210387576667042 3.3240086068774817 5.75942348962315 -0.4881339624724561 -0.5324114442335928 1.5138781397706251
Ni 4.570702676826002 7.273663666546673 7.412571776180351 -0.4121426945478064 -0.3305219962515211 -0.026089497998200227
Ni 0.5763467485979021 3.9113748731697795 10.904716234309593 -0.09505882607906209 0.6720197747882555 -0.0307935883420889
Ni 6.189018041733191 3.760646638828343 6.2523972581015395 1.056836013606967 1.023341224283631 -0.9868552135424553
Ni 5.975563178833134 2.89694993093535 2.081321295749328 -0.3193824346949338 -0.05695302034627611 0.08136975862774373
Ni 2.650037142383814 1.3547015416815413 4.597191597707672 -1.8122965706193819 -0.3148986878919674 0.9200247861814671
Ni 0.6579258104444491 7.813952378576439 13.169855969388722 0.11276832754368321 0.13568277024801148 -0.24114633660016532
Ni 0.804056140089373 5.07055142529705 3.146187272640802 -0.29309239065015324 0.8632440297469973 -2.224476803273343
Ni 6.704106251609769 8.143327689504385 7.273416967873951 0.7085764908663668 -1.4651127974414637 2.588383545632897
Ni 6.610984484694978 1.000367772581192 6.809410278265108 -2.451459446778617 3.267644575364599 -0.8794093266529499
Ni 0.2864888412865317 8.940089927326664 10.788534192594778 1.1288955505773786 -0.6277998857379317 -0.05140483683453728
Ni 3.5209672415487048 6.632554327136401 3.877929980655726 0.3791945217565599 0.46584018407126226 -0.4809808963674426
Ni 2.814850474530117 8.56467040374646 5.850371515402822 -0.43661342599566094 -1.0923509186841251 -0.06979542352658302
Ni 7.970107983717769 0.07119072037896565 12.417320752486047 -0.04602146103543687 0.21413355545674734 1.1191580115746405
Ni 5.751942468740142 4.995247819121528 8.250236653940002 0.060961370174720815 -0.1402891586717713 -0.1797838743322839
Ni 6.394913684925677 0.8770212290351644 3.2988434803830238 -0.41156676743967835 -1.665223813366874 -1.3428936088975258
Ni 2.213259469674808 2.4983221133514877 11.995974314490423 -0.8486342502536224 -0.5432525007131548 -2.85174704176005
Ni 8.032937015499027 5.070337309467895 7.4662822664547575 -0.10522471086847039 -0.36738930159151567 0.01374023240422795
Ni 7.514581211881861 5.126565988080845 11.723143270288835 0.6130960038688538 -0.012757556775984481 -0.3842518816748092
Ni 5.886397900065778 3.9789982376473407 13.471341297161612 -0.8289743099308498 0.7285902149841323 -0.7718557105409869
Ni 3.5385061207716846 4.66610524279049 10.644366281070981 -2.2354610701989883 0.17925345575011065 -2.2575028804903767
Ni 8.907804984043599 5.119788756618887 4.982485584765486 -2.364695770828811 -0.3948774797094554 0.9420614542665323
Ni 4.848922923353589 2.8828927612821125 7.59801097924302 -1.946950642492563 -1.1431194074862443 1.3936682683472321
Ni 3.8008817959417818 0.7326252376063984 7.312862689234678 0.971755124676223 0.30126772737209406 0.5059162261565416
Ni 9.496130116875158 5.487649060491523 13.307960679193876 0.5084665033822211 -1.5864372420852741 -0.03591034074336396
Ni 1.5438961501999164 1.8743513496575144 2.6477488958270152 0.09331561813571025 1.377188268414338 -1.4409007189716345
P -0.06219878649283179 9.05463258654086 5.688585594893096 0.8703688137172365 0.31104203315003853 0.7172691335443583
Ni 4.638577394668223 9.150174793263494 9.491535935932196 1.8237822026614783 -1.1091664475795673 -1.8477965632982047
P 7.642399052503683 4.037507715309988 9.65107364023579 0.10867744530376122 -0.13597304779492064 -0.08011326051282332
Ni 4.829680426881243 5.289219543167842 2.2150114957203306 -1.5780544173382178 -0.8136471926554761 -0.6098474150245691
P 6.45912050552063 7.059929522130329 3.858977006021933 0.1716923555734011 -0.34173791957199856 0.07162810585994761
P 4.928006139382896 8.76448701926771 5.743413211232661 0.6875569511919062 0.8715615484737571 0.6360775523656916
P 2.4689510072217096 6.682778453149128 7.011390394599215 -0.28097735255417416 -0.6457112188007138 1.3726186467657844
Ni 7.078715858792735 8.790078515543703 9.775349260292675 2.729850269552537 -0.42332879307161286 -1.5943870930599702
Ni 1.6897369580062869 1.9465642403860997 7.0845174668244555 -0.04429393682136888 0.47603100856133496 -1.2716619671450489
Ni 2.430056401386461 4.6354401323019045 12.862061672162854 -1.7457775038512258 -2.6985632865137976 -1.356620214454999
Ni 8.2191060742576 6.766646692490862 8.92741054648712 -1.743584609964965 -0.8835547162798914 1.1633527038139835
Ni 0.5323506003984315 3.0314053622609856 -0.14952360006784113 0.05452949850644802 -0.18589692920855724 0.2496821419853184
Ni 4.009570254297163 1.9735335254757878 10.115230210925043 -0.25835318739675506 -1.2752224308027973 -3.100937331710614
Ni 8.55392737475319 1.7288084421351864 1.398111198696804 -0.3544324843205316 -0.3612803604803003 0.5278677907269683
Ni 7.178624166553361 8.91260862612378 5.241310660925156 -0.8188544478880284 -0.6456016898060429 -2.1225587881806023
Ni 2.2603556427050915 7.200650168804725 1.7187133462597088 -0.934894504204448 -0.501706044729936 1.7778903252253702
Ni 3.9372828884975677 1.788853968137426 2.6927802475135323 0.04643926529914583 1.5542429167409169 1.3390840053434487
Ni 3.0240323302309426 8.981684254486044 10.969395971605461 -1.4758088437027292 -0.47009433136192585 1.5203712036941366
Ni 8.412787805804358 3.0064748322402104 6.477567980609938 -0.39063207416954016 -1.1891038446361586 -0.01535719918236065
Ni 4.7246426486047675 1.8490856818171921 5.170922409436329 1.653321148392017 -0.24479190377255264 0.2675515660665715
Ni 1.3060134640084071 8.372990189733107 4.027398655358696 1.3810541791276472 0.301381627242139 -0.44349395516557816
Ni 4.559559344326051 7.036227830781227 11.519882182733346 -0.25597877362730753 -0.1450629259113308 0.8494744867667307
Ni 4.3891045255507 3.046933414566681 11.843657899259687 1.5136739941796191 1.23394285532772 3.9801743944517587
Ni 0.2197666251681978 6.663498719141277 11.035873350927849 -3.383422893379198 -0.46642073916508064 -1.2613680414182082
Ni 6.606432195979458 6.077407838440035 5.922435455989386 0.0018591646959258304 0.9202597850104086 -0.3724392053105973
Ni 5.15414969250637 7.564200227942627 2.2267571453570785 0.05997149545762574 -0.7755064199196966 0.3590902948075171
Ni 5.890400935132594 9.127022355563096 11.46486279308593 -2.134096613616873 1.036247390822338 1.4943945771247165
Ni 0.07829936590692074 3.484297578459895 8.475011727633657 0.7962271974068158 -1.6082571661738432 1.780074991581515
Ni 2.4820958572550684 8.56049979976987 8.750936280097344 0.6830744899405203 -1.3545214229444413 -1.8771662747095734
Ni 6.547485177274623 1.5381057134288478 9.027501318171725 -1.0958044244503644 1.6270830406310945 0.9065825446336322
Ni 3.0277002274782117 7.902186718956164 13.35985956336595 0.3501377135999196 3.3642856583291154 -1.536143893147361
Ni 6.001182603260758 6.7112837865784085 9.712482060037523 -0.37813985523980037 0.16445212907122 0.3370096608583938
P 2.3148062289976656 3.0203271954481687 9.38155301294062 -1.1943982602658787 1.1030063415154423 -0.2683257252284347
Ni 1.2364072007651905 4.356782344732131 6.652856231493873 0.5457896653127117 0.7131332569991138 -0.4810364321957264
P 2.942510055626042 9.264968805842349 2.1329474149738274 -1.307345279479271 -0.3440331433640785 0.5661995964276313
Ni 6.989876408461049 2.455554803823691 4.626376516159923 1.7835572937031605 1.1171818616848759 -0.6190997868607725
P 6.782072341573917 1.990085610007878 13.780688399618052 0.11550629530013656 -0.13335155101167356 -0.31055300932876195
P 0.7068345205154518 0.5699819228416647 13.298028497536233 -2.147739144100972 1.5992691037426199 -0.633213086333703
P 8.676885716991576 3.4102321203399226 2.992235198662997 -0.506806856291611 -0.7754531980842579 0.6097916220859692
Ni 1.395876946566488 1.0247397395693878 9.148916164563415 -0.7677074927005683 1.9483500939432508 1.4903242637100849
