# total energy = -340875.0188603825 ev
CRYSTAL
PRIMVEC
9.16833376020302 0.00000000000000 0.00000000000000

0.00000000000000 9.16833376020302 0.00000000000000

0.00000000000000 0.00000000000000 13.41878320743415

PRIMCOORD
 96 1
Ni 3.716870030820752 6.745876649352108 4.673829541379296 -1.018457928049401 -0.3358148692193442 -0.23978853702069022
Ni 2.148929087954339 5.776866280836147 12.68324653233367 0.2169391432263425 -0.7073523886512786 0.08289082325796047
Ni 1.1008143353417592 5.286195392092194 5.356631116573217 -0.07340448103408002 0.8767713748094708 0.5871276048295501
Ni 5.129389378971601 2.5401785648828383 8.165249327024542 0.16575233593988228 0.999853425574336 1.1231861588974268
Ni 9.055425777291225 4.5257279443761504 12.6344554103069 0.0949392697820623 0.17635170872228337 0.4579800645968951
Ni 5.254628818790772 4.564189104701291 10.239551845114157 0.5648371688624659 0.9745571129013926 -0.5987695599438527
Ni 2.2221840750813646 0.6908284514429472 4.477163280194441 1.159036850047449 -0.9986360082274673 0.4649598383488379
Ni 1.7717988450903717 3.0149240578020557 5.833856643787536 1.540890920914043 -1.3204545631677194 -0.8895559281686486
Ni 6.912217729633164 4.197474089043369 4.0953452682543725 -0.8919568243006575 1.317004914056222 0.28338467644408616
Ni 2.9384693221759894 3.064185515353184 8.479838697649674 -1.9186625941811473 0.42411400797706955 0.21999027134784047
Ni 0.9741538037823265 0.13461772847151604 2.308701973895244 0.515540379509867 -0.06316146314983315 0.6477094801776652
Ni 8.81456447981762 7.295765806162828 1.755740508425417 -0.7935465652508591 0.352691847480341 -0.5756337452573377
Ni 3.8027681502692006 4.350915323656374 6.245504746605763 1.0696524486453447 -1.0586144456636286 -0.5448969782951131
Ni 7.851431013272675 0.691667353986392 1.3374692012641902 0.5808739106103544 -1.2664433990585866 -0.6699886032908398
Ni 4.237713906127289 6.576253305567739 11.622853547085231 1.0805364425477004 0.4707077965762087 0.7789108176155553
Ni 3.1529074816145393 1.7063644467016874 2.0201708416196036 0.4748192476414209 -0.42865997547653917 0.03506907578899122
Ni 5.937623845828046 1.319332403324931 -0.16217957356554183 0.5051446380978397 -0.44583134504950317 1.4969715938232735
Ni 7.91976260514473 6.9319754889897025 12.879428705493455 0.04975238883277883 0.2545705804258713 0.1661202608022623
Ni 0.5635728950193665 5.721902119656358 8.714118048282415 0.5185768523433456 -0.5527668679614932 -0.18990425059573746
Ni 8.112563496796074 1.6112246467746347 9.423582055023784 -0.1919595904628694 -0.11335222507161123 -0.8656780931097865
Ni 4.422079930675145 2.615945675473295 11.171472636042674 0.9059523672488011 0.24880616713826828 0.16543171937566992
Ni 4.096292357136753 8.49236172479821 6.852261410694842 -1.5856000908959595 0.4424287471258574 0.7667117044462021
Ni 5.153566275223663 6.984647566717458 9.099531880742036 -1.4938032233976208 -1.6168410511881122 -0.04320558885319655
Ni 6.717280616204524 1.826515461257342 4.446246741760017 -1.194085099900834 -1.4437973237931392 0.42518127289931934
P 3.389954752223959 7.8076613876726215 10.089260849997629 -0.6586199564425818 0.5867835912265701 -1.1225338700254086
P 5.135660519296368 4.760299764857372 8.052531080687146 0.46897333038360517 0.006155735188750689 -0.641186848567799
P 4.495334917802171 5.432201107986799 0.08653990281501882 -1.462869509933242 -0.555859647954204 1.1829026009214532
P 1.7861106141648755 4.768899661969406 7.22915511054656 1.1115902265297113 -1.0711560297740648 1.4356482123234435
P 8.399367314982262 7.323720055943842 9.350785484587165 0.5642707548360346 1.2051534418998533 -0.47448551845108605
P 2.1064063557521924 7.494342748113299 6.000168385400406 0.22999803329282972 0.8503064957497227 0.19720129847778298
P 5.498213111405396 2.0574841265519654 2.6410449061064543 -0.815794578015782 -0.5540534479834006 -0.6669315616320707
P 0.2698781571429826 8.53102458846713 12.94601281294168 -0.3121473503990753 -0.2193888903184157 0.5764405574293492
Ni 6.355433985798724 4.775069950622283 12.614837009624244 -0.20091885653868624 -0.1648989868006515 0.5972279264883457
Ni 8.234401484772427 6.399267789735434 4.1604807789609115 -1.022596889918439 0.5266159205977382 -1.3350453164977008
Ni 0.2689860782634507 6.488934094379029 11.019411235667794 0.5504855281264842 -0.1132555515927469 0.7556474762122406
Ni 0.3768964503518594 3.0758384676233272 7.741765822093388 0.24236503949861485 -0.45127591310384213 -0.40584323469233974
Ni 5.90357265406462 0.9282571247387854 6.83061680824059 0.13439747577768466 -1.0639715962104839 -0.6660959531046529
Ni 9.189054242544842 7.318200718991343 6.0097630467306224 0.7479315956252216 0.5193286429077056 -0.1221597960609122
Ni 4.235962754369934 2.4287741407801486 4.456122870938144 -0.3856780725983745 0.3893264679842392 0.3079474533851148
Ni 0.4954329213239006 3.77568489219996 10.186211395851789 0.4257931954517054 0.5355119375357874 -0.16699932097310594
Ni 6.9334057490637715 8.497743536743586 5.140467476711976 -0.9162390938867897 -0.4165323389750698 2.5297827052705526
Ni 6.73602069050836 8.762552522124048 9.341795016454906 -0.46702417707703436 0.05872759574819564 -0.8238449591240845
Ni 7.606388955582558 3.796084434923068 8.632518043723222 -1.9090574669912155 1.1306690975380334 1.5527820159246741
Ni 4.695663011509996 0.34378042863686337 11.469503995810308 -1.4319152276435727 -1.7080828175139293 -0.2835687674304342
Ni 8.700372882237254 2.8958090649667207 5.076634786239573 0.6447946205237153 0.2834219574399248 0.9689819328064602
Ni 3.967211385451972 6.197536940954964 2.181934172830256 -0.40765586242104634 0.7329685465574861 0.09541852341132599
Ni 0.5447246343765954 3.0179496079587413 1.702146096316563 1.0249512490832282 0.3217748461865103 -1.6284786354270406
Ni 2.7170448923756374 5.6887494246061285 9.945371185545941 -0.32739759168992644 -0.02189654296277519 -0.6405587280654967
Ni 0.09243330778689021 4.417074020415901 3.496532048576664 0.2701110992636316 -0.03321119664464602 -0.8001262753509059
Ni 7.717518329671004 5.970565669200688 7.609537361412273 -2.347304057714925 1.4296752825694603 0.9900210128649467
Ni 5.880220907855292 7.024089738760069 3.3908055736013543 -1.186539169232776 -2.3562298994496453 1.0946813665895148
Ni 9.135465331436274 2.06770681874804 11.622867299585943 2.1390940668314644 -1.718082094818486 1.1339814497407181
Ni 5.729997758408944 4.1743698878468605 2.02955096393871 -1.567104088974301 0.9293609759807285 0.08795126850000337
Ni 7.13603509455744 2.714239382230347 11.24037816561112 -2.9456591558291785 2.304246821514135 0.65834844794875
Ni 2.285812311709846 1.5265184107212437 11.072938718939849 -1.030614618016593 0.2945746316226346 0.44140596228829787
Ni 5.474100393489991 9.019018323739106 2.3540439687433925 -0.215764406191951 1.3844673185742544 -0.7229409871181549
P 8.09076119900032 2.660577124451313 13.393167122098685 -0.9483028071905538 -0.7356473789412298 1.595192362570085
P 2.7001109798320058 3.8092226572701304 10.920554593214922 -1.1104098330683652 0.39659626217277505 0.26441636287169945
P 3.1402460126255 8.440725668790774 2.669197191897725 0.36836503524122366 -0.07754498556501484 0.7459253638284702
P 3.5899986275837317 1.5406926547886257 6.491349950337472 0.22996255206920396 0.40516677745060536 0.1439311262997328
P 7.96660362257051 1.4220727519789305 6.416553766297299 0.3683313537898108 0.04028661543418868 -0.015952409564198335
P 5.90904614934808 8.089963553959013 12.764429377704595 0.0783037181079103 0.7502155065633919 -0.7916156667767333
P 3.4183215770263393 1.6223183306824822 13.07294105984831 -0.27357206122903854 -2.277989944700135 -0.19584401311894012
P 6.000646972425191 7.748140564590187 7.363758169683983 1.5737838149873218 0.6390998841317831 -1.7158874011600127
Ni 8.135649361324967 8.68370485137406 7.40396131343267 -0.2690865146538592 0.418330311415757 0.9418709355222811
Ni 4.679930150695231 3.135340954038146 0.21524038864676232 -0.02813661033521606 1.7581558229109207 0.0804917268981646
Ni 8.881465811615605 0.49491399363036004 4.403454460543911 -0.0053970026458552214 -0.08402930773777786 0.2295249503111531
Ni 6.662866555053222 6.890855511860201 10.770774274291508 0.5369568975124301 -0.4349671486414896 1.2976774173722039
Ni 2.0041702654576405 7.5028417935534435 1.0166462804829057 -1.279994398270144 -0.6506860463074858 -0.35746767160242954
Ni 7.596652185078315 2.6633092879261384 2.428974010457166 -0.409318851945766 0.3679575153901598 -0.3067863431974781
Ni 3.9615911968275834 8.497468486729343 0.40353779473154816 0.7117880558251289 0.9997076440250913 -0.36501874447681004
Ni 2.633218816367828 4.50213782148781 3.8639658616051444 0.19562186980580504 -0.7580825680162944 -0.2695565123117422
Ni 7.780706486276695 4.923761988322672 1.2629700712393999 0.7380043092091806 0.23942009793767796 0.20809249146899
Ni 3.435640559589913 0.62632555576917 9.310341213659324 0.3943234069781983 0.05642003066094154 -1.5122218351141248
Ni 6.0057078926872824 6.837734185775847 0.9941160169827864 0.3446733480512386 -0.9363857440379938 0.37444775110019385
Ni 0.3312720708224201 9.068224771287385 10.494723077995504 -0.8589479734748046 -0.45051152413399187 -0.6795711047729522
Ni 6.625798981466919 3.4457624001140976 6.394009750296466 0.08691794213948256 0.4005755585354972 0.6698533632645561
Ni 1.3509448182953925 6.692003519895486 3.4156572592216943 1.0945273575101535 0.7497344531619152 -0.2016611340213495
Ni 5.781257912730246 6.086746795217419 5.669811314292038 0.8135854861796054 -0.6067975724546517 1.0107448756758592
Ni 2.96515834189148 4.160507367128955 1.5699708119715352 -1.0676305331193097 0.33394927676551517 -1.0385863233681596
Ni 1.798047784783072 3.1841623315664833 13.058636625440851 1.59063945309208 2.9979474237099337 -2.0149851174639815
Ni 1.2879583650334812 1.248406172985172 0.24791082933868283 -0.7324417275197386 -3.7938213515423884 -0.09464256447724992
Ni 7.083858106855324 0.30780755410725136 11.552646114116031 2.098625674403773 -1.0587681976326735 -0.041347195488219114
Ni 1.3535211200954793 0.6645960147511015 6.825517380976503 0.10256696153064916 -0.3238186160894165 0.45786487917526947
Ni 4.468077461390576 8.971938929634316 4.685087338462308 0.4747374865608921 0.8334734833527839 -1.6974433355222123
Ni 2.0746197424393764 8.231889361308996 11.765173592788964 1.306239448009602 -0.42742636017975416 1.377162814493041
Ni 1.8849819259518408 7.813694151318377 8.321201768267596 -0.7170050812496942 0.7969478776229243 0.6587071168397495
Ni 3.4073837547932304 6.280638718591931 7.417044525776883 0.3974501255326381 -0.4007827894502969 0.29803816469120287
P 1.0505902027407767 2.0760958441824866 3.5169150882989175 -0.5988286953165622 1.1142340919104616 0.4179731851866544
P 4.716291762578307 4.752167452769553 3.9741206418097854 0.8099563740674502 0.8421985219306076 0.5673784472270809
P 7.45020638916092 8.27915212208995 3.206687094066318 2.278692112973482 1.7576269469906436 -2.587807618524769
P 7.727264268509056 5.023137558469085 11.008809891285443 0.21509231982559085 -0.9486632758537662 -1.8117756651189059
P 5.918544543173311 1.4814468817204351 9.906028031508457 -0.820865050560154 0.4042725477711102 -0.20795416611891285
P 8.166143239570834 5.129352705636369 5.8427398424142405 -0.5588724666385988 -1.7465002409498631 -1.3363414096013049
P 0.9980648183539516 1.4542444353116883 9.001990894190632 2.2512694979861547 -0.5926310511462826 0.06493603855175269
P 0.7185892493806096 5.353344268903 1.7195503443845521 1.3927701820129947 0.7754308294867549 -1.3515381719464012
