# total energy = -381175.8090484927 ev
CRYSTAL
PRIMVEC
9.10981532929205 0.00000000000000 0.00000000000000

0.00000000000000 9.10981532929205 0.00000000000000

0.00000000000000 0.00000000000000 13.33313556866304

PRIMCOORD
 96 1
Ni 8.209628879258634 6.792296489214752 11.120821573551696 0.9708760645053796 2.98659574614254 -3.0057013566237396
Ni 0.48661353669449775 7.845263597675266 5.24026910344851 -0.1294768985476157 -0.44711149731350747 -0.28944888036029504
Ni 6.592563789294374 8.62338757926701 11.925596319732586 -1.1517891673461 -0.48400168547163747 0.7829243096503227
Ni 4.84950995406677 5.90304187107438 12.412909490240262 0.06332884196563288 -1.9443931661780318 -2.402304068099889
Ni 6.680928997468953 5.008931721392043 0.8928028911902692 -0.2603578765316097 1.123530686721039 -0.02714519295622422
Ni 1.5252108225390755 5.911340912790569 8.66496477618544 -0.04328272194803514 -1.2268949473420032 -0.06101664889268846
Ni 2.7682177874665905 5.1101508789206775 6.645807926636433 -0.4253535368111255 -1.0567275130535605 1.0456100629841605
Ni -0.23683788851995305 5.349465726214102 12.586413210018756 1.220550236070898 -1.5606143674848993 2.171373238580144
Ni 5.9797374058807495 7.981619312722391 2.7284926159937153 0.2997551473823096 -0.8779062597448622 0.8436702213801275
Ni 7.705537250976121 3.055322725696494 0.7306827965803251 0.8054572006455162 0.318924778332225 -0.9316526002283826
Ni 0.9717531052773823 3.6067398443364236 7.797604688078757 0.5743134837840175 1.2561237623001333 0.5388654273890525
Ni 4.64105916092752 1.9862767932743166 8.508380716318557 1.0572823571157661 0.5303676743306865 0.12174944799637095
Ni 8.642372434301631 8.701221840982846 7.367451053518651 0.5404672246585337 0.10066743051509114 -0.18253341205296308
Ni 6.659730457322331 0.9815188272529648 7.699738853553119 0.06962444516635752 -0.801554266046684 0.15498249901788794
Ni 4.673717848691011 9.056686833041827 10.586122787905785 0.2801224607530466 -1.4247025119452172 -0.3565312758310892
Ni 6.794009134486589 3.3173847817334154 7.598567067063918 -0.064332857750115 -0.058909115631382424 -0.06637534210144053
Ni 7.035537666892015 5.362210357784848 8.897667719551741 -0.26504396915336936 0.8346934718028141 -0.9521278373635991
Ni 3.4034816459043387 1.7472352404391642 4.530385837105731 -0.4364740722043193 0.599510037654303 -0.9592446509140382
Ni -0.06621104840553237 4.6988427192214735 10.007838091073145 0.49141134767214717 -0.6250837723583492 0.195843756008624
Ni 5.502146230235335 2.9166895568304367 2.073795699609781 -2.483045192004698 1.2900805788615524 -0.6240823276770284
Ni 3.234412584202068 4.525391836371576 9.019092447361944 0.26191699348861347 -1.501221113128247 0.9868135616712425
Ni 1.6499879623707479 7.60960178630741 7.333277403474805 0.6751920018686501 0.5385707789667692 -0.8882035279058123
Ni 4.609120148570811 0.4295569416595463 13.202977350640015 -0.0916585421482615 0.9816988661524964 0.5063509997011151
Ni 3.001665913722445 0.3030644236114542 8.695724067463944 -0.9261033882753792 0.3224934695200898 0.10935390254549553
P 2.5078592668862307 4.824457962058513 2.2684596983107426 -0.8140935361642755 0.05632592828523848 0.9582694314849626
Ni 8.0665956696144 8.887900175613103 3.505681019556642 0.2619815281779617 -0.22970801285623665 -0.9865261123378107
P 6.956837972724985 6.691551042080455 12.80266291601556 -0.24365701883716104 -0.03460524877869524 2.051310177147261
Ni 4.09870630848694 7.912803768129527 6.625394652566578 0.24868069730399753 0.10635033983248136 -0.4625183187868809
P 8.76487212031437 6.884897761492546 8.845548644396235 -1.6581483945773312 -0.1282499681190501 -0.7922335028663904
P 5.952699474142383 8.242870595199772 5.049525058260695 -0.0393893004308999 0.16247520785050726 -0.3659499980418278
P 0.7727163952440704 8.33414183444731 1.5199243967345697 -1.0645264402726893 -0.6750009689037665 0.29256968537746386
Ni 6.610564784279217 4.845219231071901 5.736288524415198 3.233175595053451 0.5287746188119539 0.4922425853241909
Ni 3.5182379889327082 4.156653843455858 11.769985188137152 -3.812302183955396 1.7049823242117346 -0.8842437719271159
Ni 3.7034678629341236 8.550117335004314 4.073553197529122 0.04929781779386349 -1.215585178756139 0.3615896641906031
Ni 6.818960918526813 5.0911751337013325 11.367284892891984 0.6703647556833358 -2.609292527871422 1.2448782712933013
Ni 5.0699037150325035 3.0177082984230053 12.495094599731786 4.136099202778258 -1.4268799792125102 1.7693324083530302
Ni 0.17695087387883238 1.8372311055480999 4.262909817850444 -0.9733150129641756 2.3183305533007106 2.723752898405548
Ni 3.841135391380954 4.124468866086704 4.359735311471594 -2.8700409549732315 0.09487782041650757 -1.738227973638742
Ni 5.314811988905226 3.9527306285086445 10.231421198366911 -1.1638782373001504 -0.4610221938573286 -1.3499361175666043
Ni 1.6969126208560323 6.089729315519912 10.978330397916366 0.9166070187491698 -0.9284132673554785 1.4014080601936512
Ni 7.093886033733065 8.283199747425428 9.253862407814305 -0.21306243387975565 -0.04345318608762839 0.38010263539312605
Ni 7.3587083637985335 1.0646823309051028 5.251241875948127 -1.7942042318940457 -1.216417701959763 0.3244853031391379
Ni 4.7182192963129514 5.920140994346925 5.283668263422088 -0.40075399309489046 3.5105171506272512 -0.7949527015697664
Ni 1.8349809811749944 6.8319697347405555 3.0849943050310733 -0.5784722431473973 -0.16096468474325182 0.8014089987180714
Ni 6.159045899952941 5.231092786521268 3.2402720173874173 -0.6432257333746988 -0.406573427990145 -0.4262269405550143
Ni 1.9166504751219129 2.82193836814757 3.0459414379255474 0.7989134859897273 0.705939824574468 -0.40135485990368297
Ni 6.660058410672257 1.1057767076139204 1.4098195253859878 -0.5356677463873614 -1.1959730609521662 -0.38245005257938003
Ni -0.16487672471238002 6.2596546998581015 1.6688953839755254 0.6051695499329255 1.032050836242487 -1.0461281402711595
Ni 6.855700803533831 7.1853212496555665 6.7994722907074445 -0.837078427095223 0.02465713642704786 0.0250685129328536
Ni 3.338455784466179 2.6606946377671514 0.6343228145197648 0.8259908018224935 0.23909125384334953 1.2982111783884869
Ni 8.709502663068484 1.4848179016064893 8.948347443893681 -0.8459145373296141 0.3859326118113418 0.822468647601848
Ni 3.1033314521995905 2.584199518896847 6.8911507386978075 1.538827353516795 0.14218894679764543 0.6457320447363201
Ni 5.10425682843728 7.221377898516906 0.683819173857388 1.033456201230446 1.6289375773413302 1.4010290795876776
Ni 3.3516650166159874 7.639655066902042 12.455108887542023 -0.26095642934755703 0.5709805627560425 -1.1114470160836278
Ni 1.3580183827836052 0.2607247351544444 3.6275193329803637 2.2540308627813763 -2.116558861843426 -1.3076448129975609
Ni 4.129297068182842 6.521388802545096 2.6636134225814954 0.016232402698462368 -1.0718232310444187 1.1618655777454958
P 1.3634022836115613 1.5192165640876454 7.723551910683876 0.6790715394287143 -1.1360573584331402 1.213068325871556
Ni 1.5680725034113847 2.5517230274388703 9.939145528986504 0.9408774612607602 -0.052680875333483465 -0.18679784375627184
P 8.5306041106837 3.7092617054494874 5.462292610367071 -0.6327394891313941 1.1755919261926528 -0.7924623310477449
Ni 4.718146417790745 5.819204241091837 7.81803071589 1.5066214582082116 0.26548208513205246 0.5429239137291424
P 2.436702499767505 -0.030537922767301714 11.15939435339219 0.4148639501337113 1.1844534903483406 0.05132436130558903
P 7.082453215562024 1.5819467520763213 12.586399545295844 -1.3382124013717727 0.038746524640578435 -0.29685442879574686
P 4.132075561841939 0.9891346328234749 2.0723563487962156 -0.42632669935767226 0.25787753331191715 -0.5975048342988162
Ni 7.3858009544285546 2.7074097705010938 3.132953838531681 0.5506395372058451 -1.3905441208959535 1.2281558163322979
Ni 7.582554744753768 6.621478342979541 4.41052162065226 -0.09903992221399718 0.9834942674900223 -0.14975673184257435
Ni 3.5104308772414075 7.12246352425303 9.573831004651405 -0.7180890583424924 -0.19161789085273453 -0.28512479906364446
Ni 8.936819883643773 0.8684988150161495 13.32036278635696 0.6280199721685378 -0.16526614033208312 -1.1218144753608807
Ni 8.743864886288538 2.0298490397381324 6.595355036694858 0.16700060652468657 -0.7580422016966623 1.2369207070091215
Ni 5.01145514022342 1.09135587003244 6.033270324367049 -0.1846255186953014 -0.381718059509362 0.5027550548197407
Ni 7.682635175372936 8.212698887006555 1.0176866158606674 0.07931313320903115 -1.1267484223273887 -0.39214465415932465
Ni 1.196747322957359 8.071678946538256 9.741282163160706 -0.3102470480525689 0.888097084234935 0.13506287727582547
Ni 6.55342802286984 1.5416267096659408 10.425565026615628 -0.8066021128832367 -0.27611256826270514 -0.13366162605292464
Ni 9.086102426567157 1.6313401705013288 2.0997686939424147 -1.1219103775087969 0.01675870751557759 -0.0023011373293508755
Ni 4.211185197696377 4.784793826347985 1.0732665098394232 2.073350444776752 -0.837226265526997 -0.18265296834996284
Ni 1.870718786501683 1.052302091945386 1.2458246307922984 1.1712377629890152 0.748614223514543 -0.5193846929566216
Ni 0.5160227533491365 5.308088945231737 4.55223937297068 0.7407749299757823 1.2179025140354058 0.7663221823172673
Ni 8.726456029296617 2.6503641072444735 11.388791344794928 -0.7295762330464853 -0.15964725148340894 0.6150235599088697
Ni 3.9311859153815436 2.0220874771232107 10.755560797126725 -1.1537899998262129 0.36314723848571007 -0.0011274287362238646
Ni 8.507784023417997 0.1526240231665233 11.032783407745516 1.8501131272465234 0.6723892423125323 -0.4617300185576306
Ni 2.201031578584373 0.4346839456967271 6.08102944193159 -0.374779937628632 0.014744248188710092 -0.608167713329301
Ni 0.9736115075936312 3.756678293959662 1.0482965061686476 -0.01833299398123294 0.06771103019372855 -1.2562775142691784
Ni 1.926224890976705 1.9470408188817478 12.325190167968731 -0.23218115698707756 -0.8402753367659658 -0.7094000152089266
Ni 8.469213065540558 4.49615843915176 2.8071713575856116 0.2134360151690905 0.1363970227062167 -0.01861478688770988
Ni 0.8641233707392165 7.835716511266302 12.49448150916373 0.24929750495239 0.3842480250200673 0.6361037776179367
Ni 5.594483317870132 0.9647658769608974 3.647652935721254 0.0430988880720032 0.2613258968718338 -0.05296575356375394
Ni 8.65577297257223 5.422991045304518 7.130147653438108 0.1620841430596757 0.3733234076877635 -0.9394936935393562
Ni 2.424522676743854 5.898304767131 0.28402490968517874 -1.620865084745841 0.032202295764157444 -0.2211197569665934
Ni 5.653624238640171 6.59918662499983 10.231141527037947 -1.2303425395709713 1.35860124944077 -0.05865843307315704
P 4.810811458775469 4.089742250255622 6.436530873251673 -0.9472291145104008 -1.5886676740776897 1.3248179823427377
Ni 5.724334624810386 3.138522668609735 4.512159829683579 0.3773379281637953 -1.3851175505637434 1.149309081236724
P 7.318260783974292 3.387849202891186 9.770241354940723 0.7869198039629609 -0.006086058293079842 -0.6478238942683424
Ni 2.958895331002893 8.216962280555597 1.4700180957095386 1.2959771468516454 -0.5729094043476392 -0.02373796704688815
P 1.3307800351091725 3.9958656038392255 11.87082355538726 -0.05883558208096964 0.5946619655333824 -0.06292363610741422
P 2.4830805693362454 6.688107531906229 5.429466302002506 -0.9928163162218966 2.280383641743292 -2.0432245719256485
P 5.04046990187662 8.638755837637166 8.384835223512164 0.9756847987479325 0.11425622494311935 0.6740504320650391
Ni 1.6717148718033636 3.44525014894356 5.424772925172451 -0.7826983096824455 -0.7277209250053016 -1.1271669979220458
