# total energy = -340857.1024097265 ev
CRYSTAL
PRIMVEC
9.44069130195394 0.00000000000000 0.00000000000000

0.00000000000000 9.44069130195394 0.00000000000000

0.00000000000000 0.00000000000000 13.81740600010433

PRIMCOORD
 96 1
Ni 1.3573731490900889 2.8285632720458334 11.821758216541896 0.8544955941304059 -1.2071812709631597 -0.4204365591254824
Ni 7.413878696367945 0.6602791147206204 9.227471362599958 -0.6663165537558912 0.17616221841929663 -0.13495643360494822
Ni 3.8704946039682753 6.437116456233379 7.919446594879359 -0.576436186553975 0.02437791462373221 0.13042023629749153
Ni 4.496327468477912 2.076668857102545 10.67198398018497 -0.8213713007726111 0.11857336426123452 -1.927670968327345
Ni 9.22043049505608 6.4662881922357744 6.864045284662995 -1.3754340047273925 1.6982424343847398 -0.8268752613099759
Ni 8.220160933676866 5.106602073786272 3.056078267067232 -0.3215406186885172 -1.3389341100291456 -2.199094615754813
Ni 0.34114032285441737 4.804160088487653 1.2688949905740865 0.24186958791943505 -0.9437776656266907 -0.23880483295118224
Ni 0.3842918344789312 4.867271109580214 12.641987187053514 3.3468834036922686 -1.4201660575274444 -0.1659901629823012
Ni 8.711879338105586 7.802391463910524 0.1258557433641199 -0.7775548178082932 -1.2916466377970917 -0.8500149326512328
Ni 4.433225888076614 0.4591253619126483 6.043595401975826 1.340666005118588 1.3190396850980637 -0.2815795049145473
Ni 5.525551629960476 1.9277985965777007 8.101517878437608 -0.43709267962492465 -0.6153596030920498 0.5323145136444123
Ni 5.717292069510199 3.1211019722096585 6.079119779129034 -0.2996641303304 0.2709366804887205 -0.8085672070294074
Ni 0.24057619138363617 0.8207132779734048 3.5797449147987717 0.19610575142075903 -0.24771113430187658 1.0726544686964623
Ni 7.551221872860776 7.67541416642437 8.634068216647547 -0.1284728827631336 -0.19681563300359006 0.3955027719982801
Ni 4.467269020770672 0.5504989804389856 1.0067109450278995 0.671350773745689 -0.6534481824336553 -0.3212349145226403
Ni 3.0523548584331404 4.292890012453442 12.303501586582227 0.554690053126135 0.9497205134736869 0.4214806841192805
Ni 7.327430286473469 3.534906351645576 9.393003499134714 -0.6568654356453204 -2.7990959912232376 1.719756911417748
Ni 1.6492887636305618 7.38129887081964 5.832120141410114 -0.6395164028439115 0.06956916644838987 1.1209043048417857
Ni 5.331951374231958 4.349062125467763 0.6578868435545989 0.6820650748393996 -1.9529400273067785 1.5985203985020533
Ni 6.61266611026721 1.8769887962007135 0.07687460488475845 -2.2154190639464493 -0.26748060361931997 -0.031158427880675372
Ni 2.7260373649306198 9.043729076688173 4.646613832692194 -0.4522873850874921 0.68203782114589 -0.6368756227869548
Ni 2.0470345272282673 4.5233939303286785 10.089359271447423 0.12660317654424647 0.6987651612028998 0.3156404511539983
Ni 5.959889512893225 7.329469475786258 11.183462695496091 -0.12865234576379134 0.8590343625410238 -0.7001085626046717
Ni 5.196420810461608 5.483011875129798 5.732689836960008 1.6242399147553446 -0.21589887488728624 0.5803769163692779
P 4.986129412580263 2.4414760488839544 1.6974542263848076 0.2906878949737188 1.2201648277070212 0.5555107492552174
P 2.106841306378809 5.605703098782591 0.14681313389865613 0.4484297019042987 -0.222820541707784 -0.2933011642268497
P 1.0882096004932318 5.280688420674352 7.792962101477129 2.4588930202385266 -2.0376463065069226 1.302212586238396
P 7.0108839084280605 5.938695161007989 6.857301798893898 0.3886890915105564 0.9633491600007151 0.2097302841827291
P 4.821323265203626 5.755309733225942 3.1992133076498583 0.6698160822687175 -0.22824042717177467 -0.7467982533517268
P 9.062572696448944 8.283404124447104 3.0923220248946746 -0.8420882216049884 1.1761159170169229 -0.9895936955195408
P 2.873944674946647 0.09193533965648047 2.477530048817012 -1.1463407426370196 -0.3692088712987577 -0.6709363119160897
P 7.777855107318218 2.4230761416125404 7.5986887244615655 0.06299511277529796 -1.226630637937023 0.12520706752766825
Ni 5.71048533110964 5.646184782917953 12.801025072068512 -0.5856366221063204 0.8287416250947532 -0.5639743066415385
Ni 0.3763182266382766 6.562064005098007 3.811917946889291 -0.007417375509993678 -0.6453006136258564 1.255134658913987
Ni 0.712999711009221 3.1403609823859973 3.231863938382636 -0.21604054267147307 0.9528904265612362 -0.5765984231634521
Ni 6.465381885874534 -0.06186296170760358 2.2484922702949053 0.4538945816736118 0.024774378731202494 0.5942652443155959
Ni 7.753809666671584 5.637376617969657 10.091279508050299 -0.13236064785331397 0.5968941972980107 0.4594180825950023
Ni 3.276939462886532 8.731818078052855 9.109041666983245 3.864681468888061 2.3524853448055483 -0.3744968591705744
Ni 1.4818392227003083 3.048002699760938 7.174605320378591 0.05213631568392311 -0.4625311743026873 -0.7979961163817805
Ni 1.135318649895158 7.130110398387364 1.5239635871154176 0.46726766054640817 -0.9924424778222456 0.058617552532892594
Ni 2.3741639201793983 1.2496737431627996 0.13882253281372822 -1.0133751142098548 -1.0689078571698365 -1.3728230494671068
Ni 9.152721857318483 2.1736719598289564 5.736669088327324 -0.7121773208437477 0.32377182201188115 -0.6365205534403813
Ni 6.2869150582404645 3.7340105303803703 11.47800848662241 -0.9789387869088562 2.7094153987369536 0.7106387727120342
Ni 0.6277191146239666 9.319416142947702 1.2820269921207958 0.7012439617606956 1.6972440750272126 1.6932359823090837
Ni 3.4059748310679994 6.339679081708874 4.7416362783916455 -1.1410162451003123 1.1126924584549547 -0.8598491451328354
Ni 0.44956949421632975 3.1475547891283355 8.998475123119409 -0.5445804754959589 -1.0532675795294184 2.7329960142703706
Ni 1.454064709004824 6.666657423599798 11.806738076742606 -2.0045760063155154 1.2428514706712595 1.8703217409839146
Ni 4.354698218151721 7.9523946073869185 2.959204501811123 0.6360592975332465 0.26593511350907106 0.17851580625313773
Ni 8.194699389340792 3.3849598523167597 13.365563304484574 -0.2197442167753054 0.36566640536313794 2.0771891017965514
Ni 7.039262626364372 1.0764464991796445 6.06738877616574 -0.05563610130706547 -1.32533451696784 0.8573729156782008
Ni 2.807831514032481 3.1727519941090447 1.1307616282225508 0.33129744096496494 1.813775983378386 0.5941580293137703
Ni 3.000997497962904 8.285698212423993 0.2241871513512226 -1.419399097454433 0.3464664353959195 0.7222321339765885
Ni 3.8033429670151886 1.6922061461117552 3.671934209050225 0.564769291739008 -1.1324184761289722 -1.27277628325515
Ni 4.430667460744366 2.4932204776959703 12.814690472671577 0.06691116000025252 -0.4169557996657335 1.7750852516764073
Ni 6.172380591838827 1.5881036435556353 3.9979562089162166 0.7035949784913753 -1.1503025554982447 -0.16239113277713324
Ni 1.303882192394435 8.598666568480757 8.772657564387082 -4.380850483120861 -0.7598422310198785 -0.02436274511508062
P 8.700729881724088 3.1653316107763967 11.405025334676223 -0.3762727201240746 0.06938096169698374 -2.0042384204704384
P 1.1229135815756928 8.728391107124418 13.008962905618015 0.16091737644508414 -0.26311204223797907 -0.6930472848825161
P 3.6280670930279824 8.061264659030808 6.66186910499125 -0.428469713842604 -0.023808415273507383 -0.4508979609391331
P 3.639074939040537 2.51044029855952 6.521580432824392 0.4202167298051924 -0.06062944075659881 0.1110379751161378
P 6.172937592623339 8.92353019552879 4.509351846144225 -0.7549957015608546 -0.32891428544476903 0.11255929685667067
P 0.5151747459405512 2.2650484105626725 1.0577444897878179 0.8207637490955993 0.6482522400550126 -0.14365833225432034
P 7.652029574166139 5.414699033151374 0.7530735572820259 -0.7820501345754853 0.34475999422777404 0.752845230876755
P 0.889991902668025 0.06681271613674784 5.953160188161021 0.3311668289243716 0.12010882706915445 -2.2280467800127886
Ni 8.205584506366929 8.457339420274979 11.289069100170394 -0.07843510147945201 0.1443623002998804 0.1021805247255079
Ni 4.077094691565821 6.286055955335539 0.9702406106101478 0.006020752272783179 -0.23057781705569966 -1.266187574294039
Ni 6.892176656488218 1.7317059983557754 11.394675504844693 1.3094723531246029 -2.879615228925228 0.3427540195413388
Ni 8.442338161858213 4.475472981478141 7.775828190904071 -0.14556351969683318 0.8841332144911804 -1.6360405069346986
Ni 7.945823886267932 4.716437185272683 5.273233106784031 -0.2661235753707933 0.5473960905678831 1.1958205945347018
Ni 5.9388650934507226 7.87044940722485 6.656203746164377 -1.884575422689451 0.1303569871597239 0.7668351173979439
Ni 3.4342685827829444 3.8972495230073654 8.343557376966997 1.9745720037542578 -1.4317951571259406 2.7783821557146537
Ni 9.173387530492993 0.9527073587966695 13.124048708389404 -0.7939150043338714 0.7022865440925969 -0.6352208607923513
Ni 9.353704733614595 0.5670201901490799 7.643692499711864 -1.3281267350009964 1.2214154122846705 0.9070939370524119
Ni 2.4953918366864394 6.919271440412772 9.94713714570992 0.04675679653956463 -1.7942196585130135 -0.8853783997521912
Ni 2.9390099191306303 4.6550538106812365 6.440555700060457 -0.8775902711663403 1.8083093038368598 -3.0347550794565863
Ni 5.77735374732484 5.305243658649183 8.647457949065736 0.3437703766209951 -0.0849703314948085 -0.6656768632893633
Ni 3.623743256429569 6.658330733905911 12.241641457082004 0.0847096216342541 -1.4153645223737432 -1.1582956010060501
Ni 5.979224048599666 7.3805908189749205 1.1077405025779423 2.30452141533176 0.2557874835521079 -0.8976096517110606
Ni 6.81380003762353 6.6738512303421365 3.767343723091457 -1.359197488263872 1.2029623477858056 -0.0876764175720619
Ni 2.686811292733224 5.4404910016816475 2.4050991773097055 -1.5851239225904894 -0.9723991860181255 1.4214264122971068
Ni 7.9857108068537315 1.9301493287021656 1.9363716883135502 0.8676660700740928 0.1613956016330833 1.049476230807786
Ni 0.02482524174495092 1.2877008475698053 10.608769111488517 -0.19269646862889392 -1.1193269330523368 -0.8827167937596281
Ni 1.977890904418707 2.219147769642399 5.064811909841869 0.6260224821225348 -0.6502659280509316 0.11263565862056085
Ni 7.967867900366829 5.7287436280121105 12.49716698308046 -1.9899698263665664 2.0718422356623414 -0.8494099520773823
Ni 3.7954599898106585 3.8976082692753558 4.0894959836087805 -2.746780469648973 1.2500834696433245 1.3941413513289087
Ni 5.851482055121217 3.675128938973594 3.5561582917475154 1.7356702402138948 2.3569336103848895 -1.73533316858945
Ni 7.847017611510305 7.9855314337197365 5.510478622290112 2.3094980426107456 0.32443773773065415 -0.5100862983738312
Ni 3.603238075006526 9.220685393720178 11.592251235664024 0.0469326599957966 0.019715476151056368 0.19436974256625883
P 7.98655102837613 3.0955176988871695 3.890967687041024 0.2872094495068151 -1.621205755914711 0.1949248437387804
P 9.394686774386892 6.964228012206754 10.282844350742533 0.5583302209818837 0.8424180941405813 -0.7998987327211321
P 7.273004701342787 9.340129019578528 0.19124952360405223 -0.3017027580269836 -0.2463980719174079 -0.05031623175604883
P 4.848814558161222 8.028429934818403 13.079681235730229 2.3429303541272617 0.8787040730558093 0.013357395143512479
P 2.2579490107329634 1.5937208548570672 9.805203905125063 -0.3485873383936641 0.09244478549498272 0.5956269005498129
P 5.345470444120448 9.002029543379896 9.09237790283508 2.7066044116507193 0.3882890278586603 0.13064160827967825
P 4.660104580506893 4.6605010895399355 10.329478533373935 -1.2208222587853619 -0.5045162604852215 0.8469710036185865
P 1.6154627668355515 4.960998292438395 4.2821795482156695 1.2737108792542775 -1.4560460592535054 0.8177828120904045
