# total energy = -340863.8154661535 ev
CRYSTAL
PRIMVEC
9.29183559949255 0.00000000000000 0.00000000000000
0.00000000000000 9.29183559949255 0.00000000000000
0.00000000000000 0.00000000000000 13.59954063299548
PRIMCOORD
 96 1
Ni 6.758453574056583 2.713884920247712 12.281159954196873 -0.2401821729146831 3.8493409818762476 0.6019207039783246
Ni 2.6499849688776953 6.9466318225872765 6.942007276157604 0.4025902749726808 0.82324820608035 0.16474369216970983
Ni 2.0082257800929137 0.015119674402979667 5.335765804071786 -0.12338904048232298 1.3698410840206474 0.9105343301925286
Ni 1.1905442735404244 6.219183328649915 8.647457673760023 -0.31999795679174564 -0.8123271882924719 0.2656396937558393
Ni 4.209257142696784 5.900900802224359 2.0841428620586617 -1.2025951942543738 0.3350461093741197 1.8756724637728666
Ni 1.4628043397164983 4.155392373452639 2.052320184517287 -1.8798772458828332 1.6077406315487408 -0.45307928486116805
Ni 3.573175265281361 7.873520269441031 3.9026052065184063 0.8693077194425738 -0.504415216130983 -0.8751752339669443
Ni 1.861210361948897 3.043707906118021 13.262802398933148 -0.7612020874818826 0.08397068658570055 0.4585534206018618
Ni 6.012449285021661 4.732954272137748 8.426220933592825 -0.09653129685953053 0.427159993892245 0.4148076429744792
Ni 0.2617593631015855 2.1207591974322 8.530297851624004 -0.5015682336004911 -1.3393110337525902 -1.6651955312320998
Ni 5.120293718525783 2.707585055913137 7.475314021667621 0.7126470613913146 -0.39961550861507306 0.5821021265905008
Ni 1.1271089139354944 8.782345388468219 2.772756130352431 1.4557131013941187 -0.18099409259030122 0.6261412670885862
Ni 0.24527750564337178 5.123666654740312 5.744609344898622 0.9306287869495585 -0.3872752418821653 -0.5422996498815822
Ni 6.016537692554423 3.008556893171565 10.008771942393345 1.731978136074288 -0.6149487408068763 -0.53961207574709
Ni 8.812581020540057 1.8051898869147498 4.185979236898882 0.02146845428642109 0.05861909519478937 -0.719929711095657
Ni 8.027774027285098 4.053451648357328 2.7106467156450584 0.7016609946934561 -1.264630257109248 1.9895864748852188
Ni 1.5885879141960557 1.669157418097381 1.940464141971497 -0.7260952164764204 0.2076777725290746 -1.1910645679069551
Ni 9.103155294095846 6.256601549409993 3.579589419190147 0.10845710176283903 -0.6282760540434018 -1.3204198532750422
Ni 8.225355613141145 1.7166201128186322 10.610796455877326 -0.0836986638712365 0.31655190722467424 -1.1625644035847333
Ni 6.816072244762628 1.3549540073692852 2.8081013426566925 0.7703726982375572 -0.12154170286093906 1.5572832462291373
Ni 5.610493781704001 6.129870207729659 4.747586125187388 -2.1660353713069984 -1.155464045094526 -3.006717713703396
Ni 8.554323750163695 8.780310476537139 3.82401393435282 0.8497004867346076 -2.016302036503192 0.3707402203416196
Ni 8.643804124119383 -0.12009511290783652 8.755533797705068 1.5110825793033589 -3.868058612890409 -0.42284516856697496
Ni 5.163825966914401 4.991861970985232 11.347796027321339 0.28396034644189805 0.35496058890985965 0.4805204117912563
P 7.578067782351833 4.6017256821713755 11.009834322910242 -1.0213565897534347 -1.7042012230713361 1.4157157350655747
P 3.9622987440473283 7.053292800015868 11.569509438639516 -0.8067838898767397 0.519503477922673 -1.5066803364706052
P 4.303364850632734 1.216886626620837 9.908461934393488 -0.06679597457862689 -1.3918540979566287 -0.794517928025193
P 0.3818842098823875 4.138286104662148 7.617115791023835 -0.5727808491895748 0.6649878076421386 0.3848105823917566
P 4.767733611672134 4.277988848423702 5.6255995183540275 0.14532774953694327 -0.6952939148248478 -0.7189958864274779
P 2.066978054705771 0.16984174074625374 -0.08017831763512244 1.5472101782638517 1.0043636547398638 1.0140384588254665
P 8.340091195446943 8.015685349557543 10.947181335837717 0.29759670627841006 1.592882997710618 1.6610555409217973
P 2.399412046295866 4.429009047582766 9.385219175698778 0.29738073361286205 0.508494271296363 0.4366031415830158
Ni 4.1269872329352415 6.186745531611566 9.22731558494819 -0.19534521910565067 0.018228350082568606 0.555258009814463
Ni 1.6905472229619698 2.159831364875987 10.71495514205916 -0.3294012523835166 0.4136323917194554 0.7685654698254892
Ni 6.125735341020388 1.0498008442250772 0.5252804581763795 -1.4142795168396805 0.17448071695181563 1.445852406549955
Ni 7.664899983246526 0.8251939553939404 12.714319298824812 1.7680717964730517 -1.247904973934767 -0.29546089088232985
Ni 6.023413650677706 7.4848892579460555 10.905485154104722 -0.6300156624423279 -2.513242284413368 1.177373700683424
Ni 2.09614512571791 4.9704628742853405 11.612973856630433 0.6936553507801603 -0.4797547372698254 -0.004845501017759397
Ni 8.173042580392389 6.253126403007144 9.897147266546567 0.13639470871337156 -0.10908239405166376 -1.6460917205231134
Ni 2.9043396684273297 9.130324620518113 11.482622415916541 0.5003189345744222 1.0959021263704931 -0.9023373962040332
Ni 7.572446221994285 7.820333804173913 13.109847639664265 -1.169985635749469 0.048920894070418976 0.21340850436526473
Ni 6.641775998172724 9.20859904109991 9.861366267166655 2.1478391600139464 2.447216612341863 1.7228874866269295
Ni 4.462617615869133 8.798782645116985 13.223838945962392 0.10245151899870741 -1.7698749111200613 1.3244058345059837
Ni 6.798594302560069 7.746380087007421 5.642734591833953 1.332348743502144 0.5998028863043735 1.0412289031973294
Ni 2.6413435620470835 4.572976743747813 4.784712582318991 -0.20900754708409167 0.673626200043427 0.05428215838233232
Ni 9.193759980123044 3.3293946743050986 12.21423643961967 -1.21447600485236 -0.350182450794926 -0.7026272152614674
Ni 8.694611879549257 0.9862168152553195 6.563138266830628 -1.6824589462982378 -2.3002806377775356 -0.448250496013957
Ni 0.5652149079361669 7.931872995135914 13.552499523236454 0.789705337127898 -1.0446983498031686 1.219202978014384
Ni 3.401220561187493 3.4469178072014155 2.747664458303632 1.28508518252949 -1.1957977117165663 0.40656957133540306
Ni 0.8796812776033017 2.5263199328469335 6.1138232081635655 0.9896677432905858 1.5390181293713623 0.2750869552116682
Ni 4.555108544462582 0.6950766689296548 4.624020511794353 0.4455575225628262 0.7146406947825756 0.2539092926927885
Ni 8.59280124014817 0.23786076270552864 1.4374441336274788 -0.5285419339758575 0.03373673013081287 -0.25063139327246514
Ni 2.732775221416135 2.433884755265295 8.414402648272551 0.8839722634332842 0.6265778404053726 1.0522543077735556
Ni 2.910751034785526 8.174928822958641 1.6362829047998502 0.027772542127577977 -1.4851674020994938 -2.231414925154073
Ni 8.518921857664093 4.4752545118794895 0.5780404282031487 1.0529780733134575 -0.7240244499903208 0.599269896619039
Ni 5.67081637648285 4.100524085995906 3.379947833447706 -0.47905719698216853 -1.0219260891036592 0.5443878998691785
P 4.055979027559399 8.369174639941367 5.930732239460572 0.7354051810234367 -0.43228008872762974 1.52162615914716
P 2.564648753466581 1.2076133749897076 3.7543437532604274 1.045109469198658 0.4049963133110122 -1.19908023912258
P 2.151394378422013 6.119184597132666 3.14365646172464 1.0074289239287488 -0.3521940819083161 -1.523217672003996
P 3.8894693389523467 3.5439803187633165 12.710470620642836 -0.13566811495999218 1.1843146507776314 -1.0104468848194663
P 8.778795907382957 2.3033623447818536 0.7745200023924101 0.42949172734921515 0.4088380556546055 -0.6306209001264946
P 7.990634561584073 7.420032247539961 2.143151591325846 0.6508644808668791 1.0390059274040815 -1.2919405148884266
P 7.335448670788287 1.372738580136802 8.432490134870905 -1.857046106920931 3.2588812273496717 -1.3215868769999497
P 5.30473664926518 2.4740719429452898 1.9906056728102377 -1.0843925830689969 0.3525015858464058 -0.143975606384423
Ni 9.43976131973642 3.7973872511121742 9.766849718477427 -0.2297028706499141 3.8257976473386694 2.162100555028967
Ni 3.1608407819316646 2.6089708078558465 6.155790711487373 0.6122578242382746 -1.2265409064366941 -1.863376934234965
Ni 1.475571321421079 7.34876387077567 11.19754890885938 -0.836734927712875 -0.26833549542044755 -0.5160779971808919
Ni 5.377212964618695 1.0486672403182657 11.817171229221312 -0.8708467817949195 -0.17429842573768048 -1.1504640207767736
Ni 1.7920047726215909 0.5507103530301619 7.679796653602264 -0.022119457606858677 -1.8360669335661024 -1.8023484582677347
Ni 5.275151445664462 4.158328593407986 0.6236466142311138 0.028173634220738576 -0.1362890363734427 0.24231695986949883
Ni 6.526018313983736 5.822161789877474 2.252519280377832 1.373231597759435 1.3596998818215873 -0.8440170631965852
Ni 7.980933885529064 5.823834320231787 7.378974414892194 0.399509322054512 0.7248142928814679 -0.6229620980296562
Ni 3.6837388135366798 6.049319287498936 13.429858447455942 -0.7964002326495704 -0.6314338829460932 -0.736707444774628
Ni 6.236140928075577 2.691426554323424 5.24886484359586 0.022171393890716654 -0.7084497354805153 -0.2887994197017542
Ni 6.3386949143008025 8.265589259997649 3.258626198280041 -1.8679822942174602 -0.1775488143541781 -0.21201650911374456
Ni 3.8618725881062 3.145899510766478 10.582849402840305 -1.3504793916645839 0.9701579553924323 0.15491333634284932
Ni 5.123109144622208 6.500670187280609 6.860682346046248 -2.2469770412583885 0.021615007166614384 0.05389700712877169
Ni 6.891224608683044 5.5458783590157505 13.11411816716894 -1.303454171954981 -0.20135954362053066 -0.8151649148515833
Ni 3.680291542639737 1.9463049896421662 0.47169351480775606 0.9297276152915279 -1.3484595330210776 0.6102341089400265
Ni 0.44054821205987776 0.4766061081317822 12.066980362941338 1.4611581836690901 -0.006670212931323996 -1.285381116503354
Ni 4.433785050927856 0.4160521466539195 2.2568845846025862 0.315849738951327 0.37614750740011993 0.2117786820713256
Ni 1.5547563418624464 7.182059053627282 4.82020739317161 -0.895473064984032 -1.3465597448952034 0.6767994555650859
Ni 2.8778579378173914 8.204690571430092 9.197668126050953 -1.3480131895122787 0.17700759713872743 0.38972987407024495
Ni 5.0217630969862075 8.832697843968308 8.623373236657931 -2.1018176989785093 -1.1993136952896248 -2.40488211323971
Ni 7.592498002575424 3.4131791532208235 7.158090764466461 0.4305993585910971 -1.1521123550134738 0.3288278963785498
Ni 9.103071667578131 5.900361875776858 12.440179494367198 -2.757028372629226 0.9972969777010696 -4.506123627999775
Ni 3.5970831575127193 4.57123917054639 7.366816977583407 -0.6688920277925512 1.0228403733878124 0.9162645478080865
Ni 5.993289520629488 0.5917579646590969 6.618936667001066 -0.23614425539988362 0.26538746853571715 1.2322652105149812
P 0.5169382484424837 7.975656123077679 6.532988119643567 -0.1587532789142298 0.32265544901925075 1.523393792570544
P 5.537357746044061 6.94589776759844 0.6002302600872169 0.10346016276887988 0.467503173595982 -0.11684429738526973
P 1.1175104480688043 0.4285282939135562 9.653538574523386 2.0055774509968365 -0.8462809195300974 2.33350854659273
P 7.59601031631948 5.769783714281606 5.007867157292466 0.7217420817140473 -0.08549946452540114 0.6305764200418043
P 0.7104825318599278 3.5266975051020935 4.197525271444817 0.1950325729612383 1.3197089432509466 -1.2793464802735
P 1.2375609601671926 5.658569737555166 0.07394535451472005 3.177884021569998 -0.7525724368313427 2.710424813838074
P 7.20569748263489 0.44459108959966176 4.92525066207417 -1.849302972640402 2.2389901663981697 0.3387091600480038
P 6.398032574537668 6.894467459203348 8.340488885997857 0.601111577813468 1.3603781388355345 3.0643597896968964
