# total energy = -340866.10528832313 ev
CRYSTAL
PRIMVEC
9.27283194839482 0.00000000000000 0.00000000000000

0.00000000000000 9.27283194839482 0.00000000000000

0.00000000000000 0.00000000000000 13.57172686869556

PRIMCOORD
 96 1
Ni 7.621980461828409 7.216618610117665 5.352851702387681 -1.021305424800525 0.47791022786191883 -1.0704204371596209
Ni 6.230184012768076 2.3955526966214213 9.911635562226405 -2.1166766183682126 -0.0024188938541377693 -0.35188914907338753
Ni 9.181661534592804 1.1093088944334064 8.709357253970468 -0.9006008731289005 0.24805077702948247 0.5275075791740721
Ni 7.426323706227433 0.4044790781025353 2.7970375772650207 1.2094039896460915 0.28624605715228124 -0.9977862586326623
Ni 4.616284691188567 4.674091525995036 1.6072859377835556 1.203250825560502 0.6837077526491451 -0.22948586954310157
Ni 1.6327138977460673 5.408193818443498 6.919178613860095 0.29974152053555475 -0.26387231744277134 -0.6461328797191647
Ni 7.821494715549292 1.9006987430952726 6.438168998538318 1.4271136924898713 1.1645228128626848 0.3884661768664729
Ni 7.329237154988464 2.8387198844736434 4.17101257046803 0.11856719361364741 0.4903011453271039 -0.5194350865785828
Ni 3.4731485055498355 3.2287722905210128 0.13297797485172372 0.38936040654596815 -0.7549435081666804 -1.039350455227694
Ni 0.1645315676459893 3.624638762244298 8.26710900377133 0.5264896794325191 -0.23094034260144097 -0.8148599820166548
Ni 5.9913529512866175 7.919656915302465 3.415936059275785 -0.08984231487512914 -1.5870195969513057 -0.89817220908275
Ni 1.0441301581718299 7.197173481373814 5.083751335346589 -0.43655249085073855 0.24684518675715553 2.4369573965076996
Ni 4.399606425400509 3.560934406273743 8.97522696633614 0.17940180840251685 0.8014627347741422 -1.2612649401814406
Ni 8.428179023224624 6.400498118461116 13.074771038584103 -0.22575211353228217 -0.94616390647068 -0.5059846175006318
Ni 6.551459823730495 4.273653548086382 7.672884600479932 -0.7039217657031747 -1.0663056436602991 -1.2512114126001805
Ni 4.001866841609385 7.06748365275603 0.9400658008385613 0.3034184551665097 -0.045369686384050895 0.1652723109796702
Ni 8.617724982525077 2.766744162342137 10.895952244742855 -0.5233441918250019 0.33779641842574726 -1.286118766000327
Ni 0.7949904893348454 5.767163691563167 11.030991570152402 -1.3841770410273453 -1.4996172589762369 0.06865462505392048
Ni 2.5407745188710376 3.0996202861603304 7.665908648952035 -1.9014835112986992 -0.8840087730981743 -0.271163708897862
Ni 3.6826959635152794 8.67513308555473 3.7009560243271014 0.8268328381078148 -0.49065904288715495 0.1341951299588915
Ni 2.428350703472637 5.368571007226295 9.472468674107182 0.3008990311787656 -3.4331557418279512 -1.245871745554822
Ni 8.543783420005543 4.6775873836662 2.318200586485297 1.1008486717424912 -0.30599881429917625 -0.9240256798107441
Ni 1.1332142553783977 3.5427782011805338 2.983920379209616 -0.007527932945928972 -0.8797592537932011 1.6669526231325227
Ni 3.3870595330854054 0.6412589891413897 6.314151361266558 -0.10289452007339699 -0.23964789767776792 -0.3356372059908994
P 4.850173333203895 5.1147272307060705 12.796781734769594 -0.4809343594002233 -0.2532698593365767 0.4611052404894382
P 0.49963409843194506 7.000895446027564 3.1333047757525634 -0.4575792296140507 -1.0410008463469234 -0.2778670890599666
P 2.9061611917478576 8.949432729508876 1.1856289383658158 -0.6897285049219283 0.7563910392464844 0.9373347382148244
P 4.065580470411959 1.619546476279082 8.164791647990441 0.9011739720235512 -1.2307752562330159 -0.0980302500025602
P 1.7471035535324961 8.341533680839055 6.786447296340076 0.026436596924973826 1.561725084050575 -0.36737284653128344
P 4.267032746024814 5.854560133342276 8.412150005796576 0.2793503584737124 0.023870378859694372 -1.3058717802575381
P 3.8668914987407685 1.6682844813709652 11.81542308566721 0.040095068248672885 0.2558381342843852 0.44395418263144826
P 7.9296344825549125 4.731768541153238 11.655494551835453 0.0966552240319045 1.2919186605115556 -1.7854036028832798
Ni 5.635062926620441 5.308112142462391 10.031039965568711 -0.1601974675599241 -0.39222667235016967 1.4240877611793539
Ni 6.283410068557156 0.4969523954120492 4.749235774827436 -0.034546113405985665 -0.26081450445305404 0.3794914841716884
Ni 1.4285168638555878 3.5117791237410048 12.006947867320518 -0.3833548237818366 -0.4256389292620282 0.02603447639054871
Ni 2.5512157277244354 7.453354011562828 8.550988410484308 -1.2913337345423632 -1.2067891777310635 -0.44047548005422854
Ni 8.952520582571205 8.183515350403214 7.7991963363931935 1.1584246703847467 -0.90825761834321 -1.3376336460501674
Ni 2.641319836453094 7.953410023851638 12.810529635520968 -0.19289161535883556 1.2376807251035975 0.20161331150254955
Ni 2.4852209822451865 5.393793110317985 4.664480235607339 0.612608522709474 -0.6700407966850138 -1.26133204597395
Ni 2.6144657149260597 5.337553384122728 12.933339950063855 -0.41216712002783856 0.8120289403257627 0.9553064922018968
Ni 2.1690545017252383 1.268894333480459 13.292461897628638 1.6902786994529728 -0.9564963987449399 -0.23499034430109855
Ni 8.40477439520866 5.757955769368296 6.821516219752746 0.5474228300407604 -0.8027488005754174 1.4465905702675603
Ni 7.918154716515386 5.095606651082885 9.404162211605595 -0.15483080393137205 -0.4674121565440725 1.2134491062497426
Ni 8.745894066691745 0.05855700691680613 4.859845824282919 0.4419011567571615 0.38300129709715974 -0.5258620731508492
Ni 4.930234964855973 5.862831499503227 4.911431516087838 1.8689395159244069 1.51667112913473 0.7556585319558341
Ni 4.369988999931811 8.849480873176036 11.26044872574585 -2.098022750712451 -1.779794741336935 -1.1864604934760405
Ni 3.521626871345186 7.312944789131074 5.760343523613189 -3.0578392149695595 0.5812973713010182 0.036032468143525044
Ni 1.12900438964177 7.4493388752986 1.0041290154082518 -1.0320955734374935 1.533386899227514 -1.0930065499902528
Ni 2.857590097632316 2.9245677633055793 4.485401449089936 -0.9602656359793851 -0.34249613789426175 2.5542081853027687
Ni 5.2419690316708385 8.116648958714178 6.708843892456237 2.183111610062995 1.6794325007670883 -0.9572595021632094
Ni 9.300186873459708 1.4396164437823353 12.66327613577599 -2.0750895389550457 -0.42286548028194915 -1.501297474892137
Ni 0.03875765598982955 5.056160023674043 4.636359445226508 -0.7033751491710853 -0.45979114966370493 0.22945835873927578
Ni 6.283651162189651 6.65891340116671 8.067088453422208 0.6004081239885403 0.07936609793415364 0.848071692881933
Ni 1.9329774713534245 5.70413625233 2.118695605596433 1.9150581646593405 -1.6879809045577314 0.8943849741261758
Ni 6.34656732743859 6.337164675771321 0.730693599398276 -1.1053041364106835 -0.33747477342027044 -0.8725208270632329
Ni 3.249237430786954 6.616063644406894 11.093895680719719 1.4431895150058112 0.5405060483162691 -0.4613268695819409
P 5.879939874578289 7.398143569721681 10.578278929019817 0.3386330553944297 0.7936350111996074 -0.8135739162153796
P 2.192273673100823 8.606643948262368 10.554066637334996 0.6972988610700185 -1.1497695658129101 0.4362529573324486
P 1.784732705865613 3.21800653254695 9.818411145523353 0.23604526792817412 0.8989257994193227 -0.40609443147119734
P 8.018848399409746 0.45592104101115993 10.71930294021443 0.9376694958464239 -0.2852721232747861 0.022413848918825915
P 0.4659273540428668 5.885531392285748 8.646031229546288 -0.39108895920130066 1.6282292384203958 0.6997905171436205
P 4.432311703931535 1.3965163205580062 4.401555574690903 -0.4967512718278218 0.36760424581579915 0.17439304233401579
P 7.583906213558381 2.4878081023784886 8.545736278428745 1.1951875889363934 1.0858560549884009 -2.298060747308081
P 0.4154154561857482 5.1778566710914475 0.6461930630587015 1.5987587397651046 -0.2533554770718475 -1.2408501239705145
Ni 7.997650705414304 3.6036821618813493 13.397493411341488 1.4442392964265645 0.08200764932205877 0.21753409649786407
Ni 6.925349683568742 -0.18105297245424812 8.672726785645798 -0.6439050188299105 0.9886758116909619 0.4755103601711746
Ni 1.4191234850203374 1.367399628018335 10.649612043892406 -0.5305921316366667 -0.1719525512133232 2.724959260008823
Ni 7.585853508282372 8.561475983497802 12.594589487161624 -0.3657093427859315 0.30100753173217193 0.7659506579104615
Ni 3.720093295047921 3.670817465698936 11.116411971428262 0.05696844696524383 0.697144080659709 0.9531161694187972
Ni 8.168669546340787 7.435828359046911 9.90601715330609 -0.4630207123445961 -0.06721300751138747 1.1536928121267165
Ni 4.514274266147508 8.415057965917734 8.836510963031056 1.1063600884790237 1.2585681100755681 1.0542947352423522
Ni 7.2688432000486936 1.5032002529366433 0.6958750424501192 -0.9386804536094413 -1.1372233537167833 -1.2592342829046572
Ni 0.8995898890756104 1.265927027234378 6.4055703575755105 0.7888249914054738 -0.35481172203682115 0.5024282676079411
Ni 4.988607442415602 0.9234729952237561 1.899729732149287 0.051614895962814336 0.9010762701034224 3.5564681634360684
Ni 6.021378381364151 0.8592530697929445 11.498700235226119 2.0791171720572 0.9057608200632853 1.1100766180986625
Ni 5.5531652742286 1.9488432869379395 6.433744930382051 -1.8047838071821045 0.9331698082038574 0.6604513532243658
Ni 1.403749129532829 8.892525359408252 3.4619441426212734 -0.5287622775167797 0.20140068127111121 -0.7809677001445839
Ni 0.5471490169805217 7.778570776133324 11.778996619646955 0.03649269560939522 2.5978182086832358 0.3221777380518839
Ni 2.0933881924501687 0.5110192815848777 8.73907946244098 2.2881545439379627 -0.2658009019240519 -2.904672943224804
Ni 6.156075539272199 3.429519830900423 11.85750968835186 -0.8090348906944455 1.1413877695071184 1.3436250877469116
Ni 4.763425989666117 3.8877460979515077 3.9291233289867056 1.1188723620134213 -1.6075272299863541 -0.6539999411720672
Ni 0.8774417297982202 2.9802882109077724 0.7913583210330017 0.2166738053800978 0.46869025192554764 -0.5152778698770996
Ni 0.23711187842513468 0.6519227459632438 1.0797610152048513 0.30010173208845087 -1.3270730969255018 2.5702950635623028
Ni 4.6970325124100505 0.3884593335065046 13.447790179495765 -0.8555908840771136 -0.5811577603993603 -1.5898550095175716
Ni 6.708634326452607 5.232037828578485 3.235418129229033 -2.070314743274222 0.8430840098593545 0.3394439813314993
Ni 8.053398971512554 7.158885957967349 1.965972989526645 -0.04959889397405007 1.0665846083532986 0.1055908359586375
Ni 3.9941425725375552 4.351053876949005 6.352748597262459 0.5675152299152613 0.05077594500128675 1.0912515149723594
Ni 2.6833257654991804 1.413392874832593 2.7483014267395407 -0.7829363938351807 -2.308190122432599 -1.070262314315202
P 4.311477429891898 6.366939739384342 3.003314507377362 -0.5484821245432102 0.31343701574477634 -0.2135028638512839
P 7.3764265971331735 9.139711242538832 6.504480874872617 -0.9811018559984457 -1.5943953205900863 0.9925597201264003
P 1.0365078902522087 3.3132848815422125 5.798085804496938 -0.05612641067992269 1.1539542933182192 0.16612154635384294
P 7.006904241175879 3.3442005034935707 1.6384333805353888 -1.7929101956729703 0.32019336063200343 2.3642483988787477
P 3.1577053059273688 3.269498568748477 2.257330935262951 0.4544337420065334 2.908749427287023 -0.613674244969827
P 6.130306339091388 8.530198721097703 1.1529004777547425 1.6522441132777546 -0.6073508738549604 -0.2763959038310788
P 6.876593132812821 4.980975901663961 5.400217328340751 0.6454960174661142 -0.9555044671453157 0.5252069560653535
P 9.525238506560926 1.479063071191177 3.2685740673961825 -0.6880590876393053 0.04466006191153599 -0.5306970326456473
