# total energy = -381169.2080270474 ev
CRYSTAL
PRIMVEC
9.27664727595349 0.00000000000000 0.00000000000000

0.00000000000000 9.27664727595349 0.00000000000000

0.00000000000000 0.00000000000000 13.57731098623383

PRIMCOORD
 96 1
Ni 0.6880387323576245 3.7665414785276865 11.542438825599824 -0.48781103191539854 -0.07589510866641767 -0.6712407305303859
Ni 1.8537060640425074 4.505101760217887 9.310478392030346 -0.283080514940106 -0.3788803329502507 0.5339818740445063
Ni 6.4123433563289005 0.33145090046697445 12.448955591220006 1.2591532931550766 1.8823524468962034 1.4389577363126507
Ni 1.708545085735803 7.403952025432845 4.115079035816179 1.277663179033806 -1.046806911505739 -0.6685220460476422
Ni 4.336396650843799 0.29950769285569473 4.462645328123287 -0.329756064619774 -0.5789944341994545 -0.3699058973657823
Ni 8.269964165568584 8.428752538886316 2.770300979383575 -0.21380908223779305 1.5362994448886187 -1.0181915617618915
Ni 7.415622047845283 8.271522642329547 8.833425872505801 1.0311584063352046 -0.5620737471847158 0.40819476564365187
Ni 5.277827934233214 8.416535194278064 11.115758501384928 -0.8773727558388954 -1.1584745497860758 -2.4459025215161296
Ni 1.7487779054518162 7.946051468768023 11.057375921056883 0.2069072129116372 0.6847829879911949 -0.36731242560699323
Ni 9.102394842164557 8.118921792818728 5.161374468929317 0.301281611329165 -0.36028431511561826 0.05076026127200289
Ni 6.782064137924867 7.113453812519089 4.678157617216325 0.4569968747480194 0.2701851470346766 0.7557076400262146
Ni 1.4223790671516257 7.662807594110649 8.012663362992788 0.7891466364109505 -0.808834344647865 -1.3372137849039292
Ni 4.57963034532244 0.15902307249661388 0.6037492588728101 0.5273898226492852 1.0011520897811015 0.03559666615768708
Ni 5.735751079181695 4.334559874661237 0.6704418599298391 -0.29986004839129005 0.6723702161491388 -0.050366882488326166
Ni 1.996269581080942 9.176042145767378 5.508735747329179 1.970446411621658 -0.38478075759508573 1.748718845867737
Ni 6.6395933873603 1.3407167402067177 6.566775416033848 -0.7606505858537866 0.3624568972869048 0.5307589962318343
Ni 3.8952920676073615 5.69326403415072 13.378566570509319 -0.13259744645446842 0.18716062641232928 -0.5822918740038037
Ni 1.9815939249152208 2.8781169583057373 3.7773163044673104 1.0290583292730664 -0.18987699690222784 1.1802273680821351
Ni 3.3679517702643844 1.3220706789594994 2.4049764009841534 0.25338015966219585 1.66718325108609 -0.2006910567985963
Ni 2.5354004972523843 0.885644309000162 7.744538568246218 -0.36555019150024787 0.9614822819953053 -0.004342336129095747
Ni 7.125569114006089 5.091525024766602 8.058636572111675 0.00637222207493096 1.4075897635243306 0.6414359884641275
Ni 1.033325752401826 5.124420016399755 4.6558769655230074 0.12892873935362956 -1.5353368238650331 0.0248769657473378
Ni 5.262261719918372 4.876288252100949 11.583360900216668 -0.08537939400776909 1.0738785709115506 0.16290998139508073
Ni 9.037486140399986 6.52006378578298 1.268378371550158 -1.401319614244903 -0.16887468361894786 -1.4009128657247873
P 7.558064968467692 8.606326123162066 6.679209310025098 -0.7724321518697471 -1.672721664405816 0.10503290657263847
Ni 4.4138752098173155 2.210587965655315 5.85391237526948 0.273131117036878 -0.14896328940700154 -0.22830676163333585
P 3.6307870206710717 8.284101776185878 7.594251314593636 -0.08858710231178936 -0.4979997995229423 -0.19450266859969728
Ni 1.3834913613066804 2.3730220613960094 1.313457311860971 1.9017159390244798 -0.5302208643401772 -1.2695773167018778
P 5.8855225512395775 1.3157068988522398 10.510481378687533 0.18335873616773582 -0.3586298102313307 -0.37026508047741397
P 5.239227804457255 7.525986321804566 3.3182679021908252 -0.8642002230126795 1.4086156336856837 1.561743853103652
P 1.7211891561238424 1.9697940294393692 5.9388243117939385 0.1304819427733624 1.3232197846176823 -0.6724843731294998
Ni 7.861466997896312 4.579769495033241 4.8533452477842225 0.8943618341977242 -0.18534619891140985 -1.0750124274056776
Ni 7.3886548338922164 5.756744132217743 13.146150374548279 -0.0527207274324834 -0.4750763579575495 -0.26079856361345405
Ni 7.6621303988514216 0.5245823500749182 4.71367604473043 -0.96874153466088 -0.3041674175173923 -0.8191262134921765
Ni 1.3917568541282086 8.18449841319514 1.7377739463217414 -1.6648864846321134 0.6203871382136283 0.9327072667451421
Ni 2.385462045541542 5.7730153717339725 11.475190553364333 1.0889107826543247 -1.014903635039239 -0.6094689486392278
Ni 3.27974940691187 6.627867705063541 9.130714591306603 -1.5003487378256226 -0.10611199856943015 1.3558841076199228
Ni 7.811122632528822 4.58175469757399 10.854123649150075 0.32925084284858136 -0.046342848930597605 -0.26349616505027523
Ni 5.0335830851894245 1.255974566329434 8.306286878411115 -0.682811723197437 -2.497687367397905 0.9054713138473245
Ni 3.6449153546409794 3.301725784570905 7.822595062351924 -1.8062429082261346 -0.1433390012416886 0.6978891863558497
Ni 4.0661029759382235 7.025743111478069 5.5081114289600555 -1.5044869283637121 -0.509898093622425 -1.9891383316042066
Ni 7.6891903792783545 4.568118025915576 2.0228156352426536 -1.0209313292905577 -0.118546367678041 -0.20194421247940703
Ni 3.315696415535239 5.148483639720792 3.8744891858427404 0.48607913682595644 0.43307995892110573 -1.4829493114022525
Ni 5.7680894719716465 2.9887502550392346 2.6747849072314054 -0.43347025238098896 -0.8698422517898051 0.9782157926999023
Ni 6.109043370021532 0.47712394970942307 2.823918145949084 -0.4649642092242121 -0.5556372475307528 -0.6604431256942496
Ni 1.7504013187444847 6.7348367260793 13.589259641284977 0.5889716000168244 0.048703635853290315 -0.5288039293879925
Ni 0.39499593506570424 9.181144301830049 9.126600398190611 -0.48428810636380476 0.3351183573729519 2.0102933684152666
Ni 8.109812125085012 2.01768008324939 2.999269045510986 -0.8024207278120374 -0.0074824244199742105 -2.6703505715250078
Ni 7.890827586875142 2.292268845894996 11.081719699128998 -0.3100087067895177 -1.2574627928265312 0.07937072591984395
Ni 1.0372312209516166 1.0558308989619016 11.31911931006616 1.6985761635750747 1.4340361306413174 -1.0454041176209417
Ni 2.2656634211900095 0.11464730205771118 13.531365940274211 -0.6400272810420591 0.549027455523719 -0.21026558786090885
Ni 5.842404694186309 5.084818008706036 3.634238861163654 -0.7469723170357458 0.5924988964437925 -0.28424728155469753
Ni 3.720000538588734 1.1234112751738354 11.820053630622963 -0.11500827261779548 0.3611266085112555 -0.8163378521137619
Ni 0.5719767415734452 2.2436221069992675 8.763964192203849 2.12124264047234 -0.7450604447250135 0.48494528033182926
Ni 0.6814578787015166 4.467336528706729 0.3188253833737086 -0.5013653735610656 0.39679269445429727 -1.3794721793525082
Ni 6.86201028510324 2.082189889176334 0.754383459137653 0.8129843622604966 -0.09780784957910897 -0.40317365827997664
P 4.894748780400434 5.273495739903637 9.445789426141877 0.5565862417075834 -0.2428782316896075 -0.0616077455094681
Ni 5.91506867316614 4.7011080428509615 5.971152500271766 -1.020447961896236 0.07755989796335029 0.40881542994678627
P 3.6135788397687882 2.240096980992331 0.27267684561921207 1.0805770659776486 -3.4532350290763296 -0.49086190292658044
Ni 1.589312336874858 5.768098748619034 2.2892836207659637 2.488373289085831 0.24540022678051288 -0.03474717367319822
P 3.513891986951569 7.996312344309033 12.362019490235774 0.0930263690300656 -0.4289757069447451 0.43643344877437096
P 8.902538750866013 8.720521652492046 11.345989119221667 -0.2922246433332193 -1.1199427122594647 -0.21804985979201802
P 1.5256095992705547 6.359976681831116 6.287653155810374 0.06127093099533964 0.1990298670460895 -0.14308574758030196
Ni 5.337968439241034 8.57623267903969 6.351805810812931 1.5894222928555273 1.3446365597305614 0.49538344494601777
Ni -0.03622994636866264 0.6221253696810763 6.7775491936417716 0.5779305117113143 1.141277726291815 0.683089659449172
Ni 5.89815734498023 3.2222527464092527 7.9720130941443745 1.4345097278436263 0.9159228481979516 -1.3558393704249165
Ni 9.465705460416332 6.387463388037835 11.712345260810485 -1.7431158978586625 0.12845539926163682 0.8033350120961906
Ni 5.487164759160942 7.2226028456707185 8.418367332136931 -0.11249141973321272 0.9643565182193069 0.125512514583229
Ni 4.199992827670117 6.19701381718938 2.009428505398942 -0.45706372343021284 -0.8875874915883682 -0.6535551403251648
Ni 2.6821941654991432 3.62565703466624 12.658181096379094 0.33012038993772824 0.39699375472150983 -0.6209607513289113
Ni 6.522735460230343 6.695642890870595 1.9579022951543894 2.048625945446878 0.051856836770291334 -1.5649374203402855
Ni 3.499271990670168 3.8228971114017423 1.4729757573280333 -0.607193779451806 1.7026457056587578 2.1371767952040934
Ni 8.854476440755645 6.390877194276133 3.4770813224565007 -0.961001742814461 -1.0309043813428698 0.7586597806760031
Ni 3.2035695785724876 4.27304642584019 5.8138316925706075 -0.636471959590633 -0.4593288653153057 0.19556067755056644
Ni 8.96871835332256 2.50432372850702 4.903852882145717 2.0045806343012056 0.5003456740472996 1.7446801570219888
Ni 3.500839744078516 8.405783559956907 2.4727951870339244 -0.1928355653099195 -0.48547467047273807 0.5893796340885205
Ni 7.789860556718562 1.2722272525508898 8.848171103526921 -2.0973696905094847 0.43601975827572004 -0.12469516088825622
Ni 8.431878769055626 6.27431611986255 6.373040056681032 0.40414142150988464 -0.12668159519066569 1.0444700358424464
Ni 4.766842366232947 3.118465615447123 9.869823122857355 -1.113361202387205 -0.38373894659413266 2.2165619193016406
Ni 5.51864970039132 7.5029245764012895 13.30315763156777 0.12039113419626364 -1.2627124712612445 0.11838181707571871
Ni 8.157002430341032 2.9756701822240212 7.101652989378499 -0.20294231472661822 0.8157099887217758 -1.0376149605938259
Ni 4.274549242716831 5.673829457875633 7.278226551065965 -0.33357543836586423 -1.6044645319006303 0.4827904387723556
Ni 5.4768955105038915 2.78657500189402 12.407055757968607 0.30654594505189786 -1.034220075979664 0.059468587679278234
Ni 0.8928364937190518 0.532706837856169 3.701433328844302 -0.23728453965191393 0.7586597806760031 -1.3277696087718938
Ni 6.6431370666620095 6.351683359067427 10.233925039131213 -0.08127488492109228 1.1211249054930241 0.5335131619382036
Ni 8.743425694889748 0.9641868994289307 12.958199004841056 -0.06089040772746933 0.4337245344836402 1.5305591999707318
Ni 0.41774412978731074 3.8971102904951493 2.4896990939019252 -0.7172285101144099 0.15825242801841133 2.2379319003369846
Ni 9.0698523631321 6.224602566517353 9.401988807840947 0.27093745181966883 -0.042017482082366345 -0.8032167413507715
P 8.025376080571489 3.5947379689264496 12.88022507289709 -0.09243115864822792 0.020800481685119013 0.6863431333894631
Ni 3.431571018042207 8.951769918547102 9.680147224400947 -0.3902127272439344 0.7271113164457607 0.16235719421540426
P 6.436842982077112 2.838932399744419 4.937525256829873 0.014324129932155977 -0.43520369013232796 -0.8993127504450963
Ni 7.80895189704034 8.120433886342756 0.17325716024672938 0.17462906960422184 0.3960409038899373 -0.07528447166561228
P 0.07971608632318315 0.8401497748864262 1.5709900306214346 -1.4185166948494796 -1.9598588659137988 -0.2581354149589941
P 8.849838117062307 3.9940327023911393 8.76234820022909 -0.08624585577312242 3.0254543708809507 1.9934382445311412
P 2.6037693884921853 2.190819430074309 9.70665060598468 0.4027458267139386 -0.2465739353736399 0.45740593726098
Ni 1.0670649189471662 4.1806046346319645 6.986517735668248 -0.18940494236181574 -0.17471931532518298 -0.3027921344364205
