# total energy = -340891.3282623547 ev
CRYSTAL
PRIMVEC
9.03503734187794 0.00000000000000 0.00000000000000
0.00000000000000 9.03503734187794 0.00000000000000
0.00000000000000 0.00000000000000 13.22369042540607
PRIMCOORD
 96 1
Ni 6.339777213960786 2.1628975659410914 11.428031910869562 -0.5840777622596327 -1.543404431364516 0.4006722320143616
Ni 4.356252242433114 0.5752291987217031 6.16348285673654 0.40638702301095175 -0.6361197184575367 0.16247443651955892
Ni 2.2752572891126666 1.397367895258846 4.728659311077237 0.7891443224181055 -0.985573004395922 -0.37999387772940363
Ni 3.3758422809668884 4.297388974785735 4.9535549406466535 -0.20117802373734384 0.6375181414669601 -0.32424284811102866
Ni 5.099880982834891 4.491326049237155 2.8421019732715505 0.08571209475683947 -0.5548474046396057 -2.193710982845396
Ni 7.248295384073182 5.970370681185535 2.4507990277344534 0.17073179143234468 0.08584142124585216 0.17605988851347745
Ni 5.233409798270137 4.3248554880087635 11.786328058345353 1.9208508600817173 0.6950810274830932 -1.2107360781939536
Ni 5.756683015317818 7.850607106935026 12.319943682526718 -0.6730168485942022 0.22099223024979361 -0.34868504031379305
Ni 2.0885934196430025 6.607946154412341 0.2849939868081083 -0.24642969648629173 -0.8268847743916727 -0.5861552136139518
Ni 2.706490581751467 1.3328848344454385 0.5328828826608429 -0.2826431702923713 0.8318930262395414 -1.0807750409210677
Ni 0.40347585121650087 -0.08071450522300322 4.67313268268422 -1.001656797331662 -0.08229998375149697 -0.4500050168112185
Ni 8.417122012234488 2.202642694779284 1.3659937284276065 0.7037009079416203 0.8499683956840135 0.8598517162359965
Ni 6.600121812158674 0.9482632989505883 4.830018876403734 -0.07324070176270613 -1.2089404197461115 1.2090682035732274
Ni 0.9482542639133438 7.223015349863301 2.680401911708211 -0.3995527736979376 -0.04647706051561673 -0.6245327849508857
Ni 7.778146108234798 3.746893190520624 3.7071561932159516 -1.0820647062667685 0.11152288517235631 -0.06256625276799548
Ni 7.62380960202566 3.748709233006752 12.670464276949964 0.5521338623631846 0.4454148263373748 0.38831448177995703
Ni 7.951248386800592 9.099818461459915 6.819946075322799 -1.0272855536433598 0.3970734589195097 0.6085711194153067
Ni 6.6820515298910514 0.8684920516159021 0.4307697952281615 -0.4455073860511811 -1.4052323190357476 -0.10693809401515131
Ni 1.9099074880601585 6.547275879316077 8.991024867488711 -0.12820908757878566 -0.6872548465704551 0.3265036191207474
Ni 0.1809681819907836 4.7023122389687915 1.3367039446886537 -0.005018793370830066 0.00328098474411693 0.5320237218768709
Ni 6.415210739914428 2.3168726706604534 7.033879494203564 0.21891992110179717 -1.7590464530459897 0.9789210462970431
Ni 3.76130407492547 4.622478649877118 0.5166351751842071 0.11195868715819428 0.08067041856787398 -0.5652904543498007
Ni 5.889642623406664 5.555228789879042 4.603973086593103 1.11828203672759 1.2518516172873408 2.3254216558195373
Ni 5.409430393865878 3.19420189220512 9.374670618961165 0.0010688075841465462 -0.9924288509754909 -0.7333588400173693
P 0.43034876249257165 5.51802250650653 12.442183218925063 0.112529986280632 0.0659667938091122 -0.7027107761142091
P 4.175650882954454 6.105092121537043 12.151910059855043 -0.35736816991008774 0.9788590827108561 1.4691499436253148
P 2.42494075114093 8.32901232902693 1.4890536462077453 1.0069923506119627 0.05800331598766139 -1.427315266977716
P 6.297701045513533 7.915297973605055 5.736198778877275 0.2047785966044086 -0.17422874884200962 0.5534191568335115
P 4.6294627336670535 0.9828403864849737 12.595075926182544 0.5068071134019271 0.24483612674692676 1.0166740966761008
P 3.8794191168217393 6.116304602757364 7.874218369765862 0.712655803142063 -0.12642834152927904 1.1407352235247836
P 4.406053367724343 1.1074245150482458 4.07804085808439 1.1361504323675788 -0.2539234337601756 -1.0721790717219406
P 0.37760402206711147 5.4043255978227815 3.5697088821278027 -1.3236262760274817 -0.0895019008165749 -0.6193257868286495
Ni 1.276488131965785 0.7785220542397177 2.4438700576717096 -1.9197280593311843 2.4562838647504535 0.8973108895237192
Ni 1.9568716116566405 6.27077663452517 4.759060404397252 0.2828015502471065 0.01483038014461317 -0.01404259413599517
Ni 6.17215016796511 5.651596497127998 8.810231061716745 -0.3629479779907104 0.1954362361575602 1.5423752187690534
Ni 8.57001291248452 2.4806507907900084 10.4517274703272 0.5707064831590494 -0.43989158252630045 0.16232479831557206
Ni 2.3190862547853355 4.8656747473851025 6.905807841263948 -0.8669711008895973 0.9195352481395583 0.8000000341856868
Ni 0.4502150023855967 9.414147407193198 9.487059254251921 -0.09542289428670017 -0.9240310791273828 0.5391037686521039
Ni 1.7119769271467058 1.1417937967260097 11.462850233898374 -0.5452777586732996 -0.08813201705224177 0.46623999061284216
Ni 4.196160417499281 6.89572112568428 1.5721244891440924 0.27099221631700426 0.19110264177921282 0.11954395570461991
Ni 5.355229205436617 7.9301154346858995 7.971267318823048 0.7071220178080274 -0.12546160674063556 -0.3822813882119997
Ni 5.265954002424529 3.078472100141377 4.880295244654019 0.58844323831718 -1.2245696416429361 -0.1244100255476696
Ni 0.5060813481790031 7.461531298078678 6.6599924864588065 0.12031168710857991 -0.5656074713695872 0.16764595341816935
Ni 5.053603522068985 4.330863787776301 7.011834906830911 -1.110273821711133 1.417819925892771 0.5548106378643993
Ni 8.363752047231715 7.376258616565866 8.917541102572416 -0.15445696553172109 -0.08804279977254513 0.5146749461857782
Ni 4.480718915512209 9.58021139174559 10.577709319152182 0.9888493611543486 -0.09390182965648344 -1.6698785385300658
Ni 8.070257897384058 6.912408839474719 4.5272096031570825 -0.27437810207010166 0.5472806480359412 0.2836970654781824
Ni 7.32934870319285 6.238620936972288 6.853917815361809 -0.6893736926856707 -0.1791279859158399 -0.8698967591768244
Ni 2.541293960774538 5.117526410573239 2.366048571374369 -0.8878356030434323 0.6418195970557914 1.6514375582160592
Ni 2.404431216596103 5.1103254858894385 11.157197634430904 -0.33100047854983644 1.635545826686467 1.6670647232303546
Ni 1.126994405719654 3.443677340597975 3.7425292675315704 0.5489531506423577 -1.225403450398141 -0.3246809640897118
Ni 3.5818049899906286 2.834300218610996 3.1386960443977663 -1.0796095598580568 -1.0341205742873223 -1.644695354396219
Ni 1.3577221518303422 3.200499313164479 8.395099108951221 -1.5572575351975246 0.14145901061015637 -0.4732989543421526
Ni 3.4406415680838505 2.610339715396376 7.182870872378906 0.722557378526491 -0.38658490068336004 0.018682921121483953
Ni 4.0222088454325124 7.029394501715436 5.908291843782867 1.0356241554160424 -0.1419752881249426 -0.7280315142671849
Ni 0.7611693617080896 7.661901319048123 11.435794814869965 1.301150720632785 -1.157645111906245 -0.6887710261046655
P 0.24136830947343865 5.678295032185252 7.832630093329809 0.521706656221579 -0.9231252794836619 0.6822535367011218
P 8.517004348971524 1.8627084534953218 8.240197009410581 -0.9264222050673787 -0.5991505974323553 -0.9725915045345895
P 1.9558506524480213 3.1385370277422644 10.520887066418316 -0.5763171444776075 -0.5453235243095704 -0.3511900661238339
P 4.016941418719017 6.142723051660042 3.7190309426662895 -1.076840481753352 0.6770357399456082 0.17957227254211008
P 7.0443294182804586 4.079463876450386 10.475092980144987 0.14134073986473722 1.1185748853776607 -0.6449416876245408
P 6.482675363018492 7.580197477246856 10.042652606530334 -0.27722585593154186 -0.24203233874954447 0.18976618235597642
P 2.1829914887726756 8.232409710809618 5.671178133347824 0.6096460976470404 1.4320052162542176 0.937135991940457
P 6.692459892796621 3.918459512754867 1.537201359683246 1.2230002402732874 0.0016663319588293883 -0.46497012276148314
Ni 5.042933143083329 2.610357785470865 0.8061981803268172 -0.3876264545739969 1.1493404486952916 -0.6200919755707127
Ni 1.2922633069945377 0.9072171247491998 7.309672199081958 -0.52499201184107 0.9111699068939985 -1.9312818256070545
Ni 6.828545623772037 0.5477057647640342 9.416894058515501 -0.062483977466834324 1.0450274510078132 -1.108763555714194
Ni 2.7160767562677934 1.4759636842480333 9.251307123929614 1.0554144506690921 -0.09032259694565735 -0.2918397491899748
Ni 6.204450426113902 1.8866784073047613 2.7393663717727286 -0.009101705190952067 0.6634163493899606 -0.24434967402881147
Ni 4.381577451829216 6.820694176406638 10.091301764572899 -0.8949207920249878 0.14545553336405917 -0.2375172244880103
Ni 8.427159938613036 7.030578091594455 0.4232490302259084 -0.7797505399080312 -0.26292255193499237 0.06826047493929534
Ni 7.869544544999325 4.011285485404011 8.160643506473486 -0.276024379424273 -0.49682994758455734 -0.42300303430107794
Ni 3.2385548900379653 8.229166132438873 12.02828183823223 -0.3664084257354851 -0.7134651864172358 1.3480872372833232
Ni 0.2461984403843042 4.7419308772855615 10.004594319145673 0.028212714988790123 1.1695436631160439 0.6059632494788144
Ni 8.671422170515863 2.1907616208028746 5.728225358509076 -0.08137155839995662 0.6484059920240575 -0.06076750899635986
Ni 3.6073289702061078 2.946967133048881 11.945978069957933 -1.3334244930648262 -1.9080081997910947 -0.27780358281188283
Ni 1.1122221198250315 3.34402087979205 12.663468447611612 0.11566518947550403 -0.32053403180087375 -0.14691206330492762
Ni 2.8713077311641295 8.396531162354462 7.813283368078338 1.193893809825634 -0.5396123328574061 -0.2148182402285978
Ni 5.5067377449882535 7.914728766258657 3.6409980364974297 -0.11409141723048093 0.09457185914031455 -0.09198507224974481
Ni 2.783767255302969 8.562766812614498 3.5952970111077174 2.6030979690249363 -1.9475080576579298 0.4824058017394273
Ni 3.3729149288996974 4.308294264739747 9.185691069445756 0.603138892656142 0.43545617246276624 -0.6311184085882033
Ni 7.602396563756391 6.2102960952110395 11.39085996063858 -0.18434835377451478 -0.8749302078356739 -0.2707009103288306
Ni 0.643425659842566 8.959278457123002 0.31100676253851056 -0.15471304740658517 0.3065400315146269 -0.6169210340418989
Ni 4.437350736739004 0.5060153924071188 1.790421831013911 0.626816695889056 -1.6274995593432229 0.8941036954403313
Ni 6.196129156811793 5.754984428315867 0.2713637296211801 -0.5093453064427486 -0.009120217133713325 0.31233118427510725
Ni 7.848393522810144 8.81792529943409 11.522422751969438 -0.5509899785667285 0.1572386420419163 -0.24527449983592597
Ni 9.093674636133713 4.845969331155028 5.735166977623962 -0.418956117925214 -0.8511737288460244 0.2125430710411759
Ni 8.024423153443129 8.47743992087822 2.3773685695378997 -0.6665543807983101 1.278994753361036 0.31631228041004233
P 8.223961950986087 1.5226838618389158 3.5293764758687227 1.2207844635688911 -0.20041749142223547 -0.17322061929246943
P 1.9657620883051472 3.15683297816221 1.5710935913945043 -0.1810887091866365 -0.4201915329942118 -0.41216352048341276
P 4.829643018854366 1.109005646566019 8.319446935096265 0.05600634016229065 0.5788342544725062 0.24861616261464928
P 8.501527330171836 1.528872862351342 12.504215977637786 0.457643764303399 0.8621168581210895 -0.21670260173550418
P 6.2078295300433135 7.840975757232477 1.3827347489377875 0.4854975532908735 -0.3783853955917032 -0.2620319217999229
P 1.7414853587869732 2.8613149799718043 5.91626616765479 -1.0799450888206048 2.934003316757805 1.8065087602930114
P 6.84982313648264 4.087667690268317 5.947261766425488 2.267593946177791 0.6117027230657529 -0.5167878787637229
P 2.506743978351886 8.393594775250024 9.991926293425276 -0.9674235871804049 0.656652805413882 1.0196226377814632
