# total energy = -381164.55390719126 ev
CRYSTAL
PRIMVEC
9.29476686261066 0.00000000000000 0.00000000000000

0.00000000000000 9.29476686261066 0.00000000000000

0.00000000000000 0.00000000000000 13.60383083286545

PRIMCOORD
 96 1
Ni 5.446296574825384 6.425751231027118 3.678720969429882 -0.2556753834542758 -0.30800556031655985 1.5031376134246694
Ni 7.036547545950117 2.0670074519559902 13.451141338738296 -0.1977016351529692 -1.5464326766678786 0.25095689493268397
Ni 3.35372851377486 5.129642454595347 7.7057540352992495 1.8308164838004406 1.6927875819177556 1.8497092069398855
Ni 3.5494484213034467 1.9971108045411174 10.194112791813186 0.6947205588198809 0.004168015334760564 1.3292400226698333
Ni 4.544220853428014 9.183675888958794 9.615024644841132 -0.9890157115288838 0.30416356086265034 0.6300074349122118
Ni 7.116631257935029 8.349135944172655 5.571122506446065 1.4223376112574666 1.497752437853356 0.8235215143463945
Ni 4.7805031238978914 0.5216492756915104 -0.016217509362961416 0.1418163939495751 0.14726199044517865 0.2613055851568596
Ni 7.812140078780786 5.778073280872443 11.369428636001047 2.0059098946355904 0.7291052069473379 2.8337248941510165
Ni 5.744147381528789 4.054516762244506 2.818495865672167 3.2880599057961564 0.36341643298669674 -0.5847552479426317
Ni 1.7468863836560393 1.149985745313525 9.062450750052012 0.05765570284025554 -0.8530820016123307 0.1582675975270629
Ni 7.081366912151515 6.755706162753257 2.2195197058711758 -0.7816724395210926 1.2323649693176388 -1.9651710221553318
Ni 4.037107663759392 7.802371278723202 11.904086867506633 0.2394445234177102 -0.44227036717112217 0.8030426776667524
Ni 0.29270615320019455 0.33495644581841866 10.817358517580262 0.32009771559440353 0.9589098932824388 -1.0565123117189612
Ni 3.463629838114415 5.807361091511308 5.499538858830953 -0.5399925990149603 -1.4717698977466651 0.4129086261795534
Ni 6.608495643902626 2.69000779587576 9.983797311753271 -0.0947196975720885 0.5278415654747232 0.5318668845840324
Ni 8.751775953396706 3.5326713669704883 5.371526681102052 -0.28023121841676896 0.3960961826079049 -0.019194827760895976
Ni 8.608859616873955 3.233370576623904 12.111612988006813 1.1183211174956418 -0.3339940139605216 0.1873747993056644
Ni 3.825828316367441 4.591326732297506 3.4201665784100683 -3.4175640580372817 1.765968891197436 0.05322877741715349
Ni 7.397770073674079 0.3440504457959069 3.5968257073676875 1.0901320566559356 -0.40201820451929476 -0.7626393341490414
Ni 1.4844207547064152 9.297369478211284 5.934862057058319 -1.8147604587788424 -0.4738563695075194 0.5546586856675674
Ni 0.559702981034759 5.365525050086655 9.207997505619762 -1.821088457879399 -2.783765017293122 0.3732334190771185
Ni 7.105626253873964 1.834731226038747 7.02550815125136 0.5695651704657546 0.6231801275777331 -0.3280899897712608
Ni 0.5025132095083003 9.26140802490701 3.564856356465632 0.26327633572998527 0.2683285534419121 0.7488165693333362
Ni 5.062366931458532 4.083981173455297 5.627020305367381 3.0151686726842266 0.8988468665522713 -2.3748516283158905
P 5.038879055392391 1.9914595862394895 6.157039518691485 0.03420004292047659 -0.78465054831281 0.4021598723034816
Ni 7.808515119672833 3.6286863094965036 1.3505175536887448 -0.8466663278939741 -2.0444432748240984 0.34932010279463066
P 0.2282227780531971 7.22577041138522 7.769242870383296 -1.378174543587007 1.1296157165728544 -0.352132118322129
Ni 4.343165749673878 2.5069938347588927 3.9134547317269774 1.3958657902191831 -2.0929221962610924 1.1523100728465767
P 3.1006970732728547 7.971164246416565 0.43989622356355107 0.6888005937910202 -0.688182500591047 0.17013863793303602
P 1.3895955423491635 1.9984399562140334 11.961236671535236 0.03766203332714804 0.41405045309348043 0.08731260647473996
P 8.367586056555437 8.174533747139625 12.092010324523041 -1.1925437235556429 -1.0693688559666552 0.5449589418813002
Ni 4.756448267048199 4.406565354995267 10.036281142776252 0.21692628771053607 0.05861138188530551 0.329427991856394
Ni 1.218534651521595 5.688304421732438 0.5307237566584173 -0.614957996778257 0.5602351513140803 -0.5567155681965962
Ni 2.277152837780838 8.53525435744864 10.74261836711115 0.20743146084622338 -0.032673064752988895 -1.3837497236819396
Ni 7.32330040092302 7.265050096488311 8.08354634405333 0.5230976230318346 0.08908383944254981 -0.8370136352955584
Ni 6.126162302905286 7.022382321128272 12.588740330039116 1.1892226296022101 0.32039647778174496 0.7245039607299006
Ni 0.06633675167552477 0.5872229270009766 13.109100421555567 -0.814772564509171 0.7432578442986361 2.083203940532064
Ni 9.103489934537501 7.6226197808034915 0.9681680207022817 -0.8014609350019294 0.2031444034350953 1.3597209648675097
Ni 6.739923648483249 2.4848629946664977 4.319570054311192 0.10488815346465807 0.19131552912096728 0.8372373212705903
Ni 2.515098871533596 0.556389396619413 13.211278724041795 -0.7093665908678299 0.3519310580549165 -0.31812387969748435
Ni 8.068508340615496 5.767588783760211 6.2109649680673975 -0.659088154328252 2.6018782376852223 -2.457547304843909
Ni -0.04745443262987133 7.3244343624901225 10.191868105596338 -0.19789472500038174 1.1020213518943536 -0.2714208192139906
Ni 8.317654568535131 7.183897486304899 4.103200892540998 0.48139612952799027 -0.6106313443784451 -0.4519557127796862
Ni 5.245408776876229 7.473197107420314 6.086761785831929 -1.054074905922062 -1.4362673339646814 0.46088746805167724
Ni 0.8492777272516995 3.30185441946337 0.3257760045083562 0.4292940095161123 0.0670829096914264 0.06638202696965988
Ni 8.99863566864825 2.1900329872197206 9.195536941055352 -0.5596134585696814 0.34127820632676065 -0.2998767605618384
Ni 6.869260330501595 5.499081556297335 9.587517711548633 -1.9073780224062635 -0.7483697116039046 -2.424891209371785
Ni 6.429905991850847 7.97546772351139 10.213538854725032 0.7638536661721168 -0.09426384098159249 0.7020379184169007
Ni 5.102808462429557 7.993453097546999 1.7547720639308768 0.8303200253254668 1.455911333447854 -0.7367123298706344
Ni 8.158546747996862 5.374401552517666 13.674978845747566 0.01865026811133562 1.3833902834599916 -0.5578715361779101
Ni 1.4852851680321575 4.821688236224395 2.6057182018489287 1.0523661507610715 -0.5448172740971133 1.8562457225068223
Ni 2.042506446293011 3.4586106639649428 8.5107468454488 0.5594633061450623 -0.20102350043735057 -0.3665866031845622
Ni 1.8735647623285527 3.7874874027256396 10.660356891231382 -0.4696693280093653 -1.0561564710414393 1.203272937047689
Ni 5.048991761826883 5.755124501289023 1.0509258371368297 0.989901970788579 0.10666941373479695 0.2184195844266109
Ni 3.0650516420446583 4.538235023516421 0.9309499149072507 1.024560441402713 -1.5375590283273326 0.006438556536492137
Ni 1.0481708682147861 2.4924661140262536 6.759553266791158 -0.39466382103675257 -1.2467855156183432 -0.14904839292164007
P 8.905920368387166 1.2056706940718362 5.6511541677360935 -0.7731911415229588 -0.12455297888343711 -0.9748034245842437
Ni 3.1500058119079477 7.932832627541707 7.14867682592602 -0.04762351541523411 0.18456484066069503 -1.3156823385900567
P 3.643399925568012 2.290277048705014 1.7834482789048616 -1.0891480954761112 -0.04754458254818263 -0.16757190564712432
Ni 8.664414438895058 5.305806172474878 2.41882925239333 0.34588485186083656 0.236271010785735 1.331696968850758
P 1.5140152926544144 4.328312712098216 4.787663812351139 0.49529191367347597 0.08204415898694903 0.7331377251454987
P 7.158439119646744 0.7518927360782173 9.137952141933795 0.5745803642921588 -0.45252984011560127 -0.0629460047049174
P 8.21658327279187 1.3401194979090882 1.6673129543763232 -0.5006387798076862 -0.9738194634044197 -1.311173652086426
Ni 2.195191582873345 2.365425239442945 4.036746097325291 -2.1352145292714 -0.18715651264727123 -0.12659726300697552
Ni 1.144278758410236 5.538100987926009 6.8087309492123484 0.10535635135032824 -2.2129199516736793 0.27239706708433087
Ni 5.926482824658783 5.000147761538964 7.416468356334251 -0.8039978424911702 1.208223596184745 0.9228293455097979
Ni 3.4463322768326226 0.5592940112892465 5.3604538252423 1.8506857119205415 1.9591790662379547 -0.5927855744462758
Ni 5.869617440498651 9.170440140831294 7.66294233875764 -0.6035127310557928 0.055169960303924334 -0.2760961132024729
Ni 5.605729712206676 1.4060193955382698 2.308135084433497 0.7540989007781981 -0.4473364688401199 -1.225820997551534
Ni 4.7571732588697895 2.8105981022003026 8.433586337667608 0.39037573518436 -0.010295211278420981 -2.133638700143848
Ni 3.239774671047953 3.4030744314777266 6.451113861585757 -2.4499856904465678 -2.565149771915937 -1.0638106451525873
Ni 8.050039638698827 4.411956319822478 7.753939036610878 1.2339019747874556 -3.034228260418839 2.4967149761823064
Ni 9.13200627952006 2.350116758287055 3.222897233232005 -0.13183794258062456 1.0717754085256188 1.1507787238037148
Ni 3.3632556498919137 3.0433018873969453 12.51840868753129 0.2813802444195477 -0.6385380980910422 0.10243994903448164
Ni 5.183356912761644 9.100710799221405 4.021006338983224 0.4172201090707137 -0.505135382126459 0.03987343915617004
Ni 1.2037094982467649 7.574314876998293 12.783560504127575 0.8983717266880658 1.7413444077805365 -0.612976447571854
Ni 4.790123207684379 7.089267464053461 8.5456682143321 0.392645247944827 -1.1461383968182262 0.4522480472091243
Ni 2.0661430386302477 6.77206495257376 8.711076957381348 2.4541403360448895 2.111454450737325 1.7962114921320613
Ni 3.0021818384390464 9.037840995615793 2.5220959720886382 -0.3502654974270355 2.1369291979696614 0.11589376054654234
Ni 4.5249620963211505 5.247509394205453 12.412951191267405 -1.6365482998090524 0.6949357601544806 -0.6193499551983657
Ni 3.382979145345951 7.738200207745504 4.6339004828053625 -0.04150814654611561 1.153718008937697 -1.1164766080877353
Ni 3.5007252529857924 0.8809886836327263 7.653202352477581 0.21110556726370094 0.6728780090234927 -0.08026341293744242
Ni 1.2784022454044666 1.271607770768792 1.683569501760447 0.6341551385319981 0.40809294995846496 -0.5526542536430288
Ni 1.3012580773184523 6.932650641056041 5.0932608778252275 -0.6728754379203316 0.6148440969082121 -0.5992992071950777
Ni 3.3310492824328 6.845298421321337 2.4895828773203905 -1.963677725439257 -2.4382786864222847 -0.7587158307249191
Ni 6.911003128844706 9.006796474024615 0.522733974993813 1.75244437434844 -0.4008846051354838 0.38600485981017396
Ni 7.3815228210568975 0.8011587187853703 11.403097999777062 -1.0923617173174025 -0.347107411414028 -0.09726046171607121
Ni 9.193816479694116 0.29357614338610305 7.7949131577277635 -1.1149617141051056 -1.3083616365589275 -0.12313784370346535
P 3.1977623244634814 5.706475691106916 10.426193827624617 -0.8714018829674413 1.1674363869650541 0.7296307404335047
Ni 6.441431502860747 4.091240386438145 12.426079120098358 0.041288060115509534 0.08750801031499768 -0.9938324161912369
P 7.196408242610807 4.927100188130255 4.330984028117769 0.31657607559439027 0.2505054092175621 -0.47045248603229295
Ni 5.253272149710402 3.366508818322127 0.6519554019020588 -1.1820934747565965 -0.34731104278440184 -0.050393364850887405
P 1.0240137689287152 7.294579571067707 2.9830755155100555 0.27067982728290807 -0.8214885430767658 -1.161653718845006
P 8.499469504716291 3.9665882669593073 10.178848925538624 -0.5651035351499751 1.4870669331150517 -0.7661866851806676
P 5.325222940619781 1.7823459195453666 11.93453187662996 -0.26901169555186577 1.1534711830342135 -0.732786255343351
Ni 1.167301896129204 5.709803217672677 11.597116035478301 0.06230014359080238 -0.195395869837928 -0.14761140336479742
