# total energy = -340890.03147174715 ev
CRYSTAL
PRIMVEC
9.04371303280180 0.00000000000000 0.00000000000000

0.00000000000000 9.04371303280180 0.00000000000000

0.00000000000000 0.00000000000000 13.23638817602736

PRIMCOORD
 96 1
Ni 6.000512688713667 1.9890833039714675 11.466259769087836 0.6483501990854575 -0.5346403335641114 -0.35892651553614313
Ni 4.629892749123524 0.2708899561117707 5.729317959470266 0.44291802805745006 0.4902916322454072 1.137056746231932
Ni 2.841824056331299 1.367545077134529 4.4356853407982255 -1.1073651327047702 1.3716400849025991 1.179071657211137
Ni 3.5445296082833537 4.595056366244033 4.627388544964819 0.6010182467687133 -2.295485273271421 1.2829884479014615
Ni 5.283843643727881 4.273064004862571 2.8761349994794037 -0.6195443305973588 0.919484854517597 -0.6766593304427959
Ni 7.319574419893641 6.321112318276998 2.603664202316923 0.32459843167823454 -0.6190319097373145 -0.43852144165165124
Ni 5.127812461531657 4.247280378800933 11.47666365664354 -1.0123309892160566 1.1412332462071249 1.1343694292077562
Ni 5.43121999248286 7.824177436286182 12.358008769182378 0.5903036885646866 0.6229500138447981 0.6552225007252586
Ni 1.8348427769699838 6.090940776048046 0.3206783098673421 -0.4511319313268102 0.9203572298202214 0.21956835331907348
Ni 2.276754774120409 1.2578267497477216 13.528779832212482 0.04602300369733364 1.098371413846592 0.7693694537840233
Ni 0.4862370438194186 0.167879350734755 5.012713124847523 0.11242842770576121 0.11979206715968402 -0.31218077474017203
Ni 8.59865389543752 2.319902329343164 1.3844468725559933 0.3590599557902139 -0.6931673554001482 0.6585111987788594
Ni 7.023537515122806 0.7475759345212645 4.939422873846643 -0.42206252476467954 -0.00877697486168166 -0.5436438226143024
Ni 0.6655946752267202 7.597532942168082 3.0593398264414655 0.3869237720800175 -1.7658655328503523 -0.14303638239960528
Ni 7.837426475984639 3.9300811853649877 3.8333505343679093 -0.22734002684469234 -0.8921031200705346 -0.04261757756021048
Ni 7.403301115817401 3.5226619099960725 12.730268801113963 0.6184719234687864 0.7730674714609008 -1.1307819689668137
Ni 7.965078486458163 8.770131739616655 7.138397193409664 -0.47935647339014226 0.42606444683522104 -0.2041558754187452
Ni 6.894519903970465 0.9573222507031418 0.2757391950785368 -0.6342623535338238 -1.54192450438488 0.08745376003829455
Ni 1.908937918437187 6.56276937614898 9.304493093980371 0.19178346989632133 -0.7517591969014278 -2.25000400101017
Ni 8.971101132230375 4.68860453459955 1.4537000100269148 -0.3105116145678652 1.2460679207260281 0.4122157138775869
Ni 6.516212341085736 2.1903420954045383 6.915152231047639 0.10153132117728321 -0.9266556612344233 1.6868809866253336
Ni 3.4575833504943034 4.288465448279958 0.8397747808815536 0.3986264052289264 -0.408850911170412 -1.3990889251421712
Ni 6.124348252256987 5.649272959151449 4.664199170415076 0.05866228972789897 0.516570363436278 1.356212437493619
Ni 5.239032045293852 3.0671662557623143 9.321223058852846 0.09962639084508648 -2.3043021002321025 -0.5298989622243842
P 0.12574650012235317 5.595236773350577 12.214591758024657 -0.3918744312170735 -0.39135301149596474 0.9748525326546245
P 4.073541606345612 5.822912250762618 12.663742343144124 0.24489629056090084 1.4924742201735521 0.07364899294471831
P 1.9718278993676077 8.082402576566064 1.3540690402371434 1.2924616774992193 -0.08895991227017581 0.7356327236532105
P 6.274193534689563 7.794297008188093 5.962953243818337 0.5133706255520577 -0.26129092986884034 -0.4602408356066138
P 4.303568449164887 0.9948807912271618 12.723981611763543 1.2290366762753542 -1.6041431440054696 0.13133297791974802
P 3.8933727538728142 6.024541834432984 8.056936384834401 -0.3171178070304732 1.4707982778620154 0.4058864292254494
P 4.841343805225646 1.1701841260496049 3.764627358484926 0.7514838317528542 -0.24957415565254434 -0.6366480801571809
P 0.22093610240638245 5.490094564794773 3.814832627414627 0.790689041197406 2.1391305764963544 -1.0850335590871054
Ni 1.3248949261325356 0.8138762996634855 2.598117693069781 0.7144871999238469 1.3215038303678401 -0.1999060990034557
Ni 2.1048337879991426 6.480136969510895 4.819912013910013 -1.7049825813220505 0.6781485133938128 -0.36953025919391846
Ni 5.5776738825011565 5.2673388673117145 9.224889426861065 0.5784951259655327 2.232933675791445 -0.33313963638002625
Ni 8.58057551294113 2.4027789162350786 10.309756972223095 -0.441172249010937 0.7885935921209579 0.14327832320708228
Ni 2.3721569036624004 5.092370149874148 6.736368875422488 0.41170689256196835 1.0070219182983173 0.9772099771432075
Ni 0.576945486260045 0.06691352889072293 9.063206828345685 1.2590327084168123 0.4399959693146486 -0.41763328534873234
Ni 1.3001332396517344 1.1168533498709035 11.148864327077519 0.781029663730771 -0.17461235743367348 1.7871434683925222
Ni 4.160117071897368 6.975081300307565 1.4743350502180192 -0.7124336598289279 -0.3034714198916322 0.2331088110076695
Ni 5.4860701124631595 7.6684085217699955 8.052171252399509 0.6673910177669925 0.5893408104307851 1.0383541527526954
Ni 5.42586611432485 2.9599620806186273 5.007352011719029 -0.27339748332438724 -0.19093063497772278 -0.7921160034519198
Ni 0.6332362697379305 7.148367887107648 6.897932096924888 1.1300546038824861 2.074254187537944 -0.8352323750254196
Ni 5.105583014720184 4.561685064887511 6.899731795832732 0.3095867887607507 0.08490348281261506 -0.35302917621510166
Ni 8.294486692585519 7.359122577300705 9.236973636311632 -1.1113349159857957 -1.877696693291747 -0.323541708278946
Ni 4.567880008364264 0.3969005326567825 10.293171706760297 -0.21526046997233894 -0.536848911179656 0.18431492943341807
Ni 8.0565737319389 7.4033553780960295 4.744491064101654 -0.3420477375029335 -0.9856411386296962 0.6693363144188215
Ni 7.192392682501564 6.135978467309694 7.283494526462246 0.1653728411132765 -0.5277896291908653 -0.7230497447818773
Ni 2.184852561549956 5.2114758514636845 2.4733650970176395 -0.09631326731145348 1.4644743925265165 1.2860981971750367
Ni 2.490701895039442 5.28313823410571 11.428892955281636 -0.37797787574063935 -1.613798921927679 -1.2394866679640848
Ni 1.49511569419011 3.581952493110803 3.9529545445495176 -1.7497079492538834 -1.175412206081679 -1.0277702065892622
Ni 3.660822715097314 2.53444633532711 2.3829207309996714 -0.8163903026182521 -0.3512929102502853 0.37736029676129845
Ni 1.1584634738658508 3.526279395237972 8.134740353045864 -0.8890622763616818 -1.4712811310357048 -0.13868710429197406
Ni 3.675871453703615 2.6248201603828614 7.096702962882842 0.5189897715110482 -0.37508358491197985 0.0737700919036149
Ni 4.152050079807933 6.936980136997259 5.945110902233979 0.36316755020068425 -0.28784888286302684 0.3589974779833946
Ni 1.1718481692608784 7.276065116146696 11.33597422935821 -1.748941246291188 1.0576723934653331 1.1277856053426514
P 0.2809538000547347 5.548535038877656 8.057889592195643 -0.09054808269290213 -0.15663674679185927 1.2042157605769326
P 8.400533272451797 1.651219226091172 8.132833938323381 0.9821830048777664 0.8889656028828173 -0.7716610780316774
P 1.8806039652800104 3.291766870718741 10.572022843518177 -1.6662381135640012 0.051998504554478193 -1.4701776135588809
P 4.186931681252947 6.186071594196895 3.6409726692037014 0.2778848296717795 1.8413042707056417 -1.4323715984547007
P 6.9461414183723695 4.1629748852384685 10.481114535017936 0.9603671945542557 -1.4194962851539294 -0.2386179137513568
P 6.368193888700318 7.970694632296211 10.38194750771044 -0.6939821379919596 0.7795602782740961 -1.5300709474804037
P 2.4642309467818437 8.686766792217085 5.730588601161483 -0.013970346137163036 -1.4933388821666926 0.5045522559294794
P 6.91142260376324 3.915041490471791 1.5680224917553498 0.020807937884286747 1.4132436193759983 -0.2152602128620228
Ni 5.273931734165076 2.7171202963299232 0.3978211826508459 -0.6691283121730734 0.7848523799109709 0.9396960393581495
Ni 1.3808212479722999 1.1517259076028132 7.02887963645378 1.1220970395983063 -0.1091171039443411 0.2619830708398585
Ni 6.763241364541938 0.9783127088192627 9.381210912247953 -0.6620886317174727 -0.7760797759246634 -1.0459682176545277
Ni 2.6065337724850597 1.5790323080890705 9.236484371432663 0.8954797498522512 0.3926871569263559 -0.5006896876502797
Ni 6.49355783975834 2.154357160960745 2.683042680979921 0.1726107536226124 -1.573624149481006 0.3497469059194041
Ni 4.062933330873742 6.948610352049966 10.395899243917134 0.8338912876164928 -0.24457387422447557 -0.037446317771916156
Ni 8.200251202034039 6.998658260371643 0.3784133743280558 -0.7284243788302294 -1.0079981661686577 -0.0980968415744375
Ni 7.799650886346104 3.9323963759198035 8.436053360042006 -1.4119249005645749 -0.773173915131778 -1.3840094051012293
Ni 3.1051588945153625 8.151867336923635 12.662339663241578 -0.5454297108701316 -0.164622078990181 -0.596357093847618
Ni 0.0762131790763357 4.835411129428931 10.109172841787638 0.8443513066075523 0.6860505418497088 1.8028428814056499
Ni 8.882906842032867 2.6133708195922494 6.0373287403917875 -0.2957529682014519 -0.8445302553875779 -0.8491006483670795
Ni 3.495585032960456 2.500839897429865 11.603679894085799 0.1730331858720117 1.0580184639508423 -0.3116701536523407
Ni 0.9625856917301053 3.5569285389499643 12.797827146749055 0.5055081920848455 -0.2532168946114542 -1.2773883281058647
Ni 3.246946228571608 8.48397961326931 7.913031013169025 -0.7419686931735674 0.1677886496436207 0.039315252659854874
Ni 5.680980217296697 7.933995244517142 3.58448021092358 -0.32937785534474884 0.4859181857680599 0.09851001785245615
Ni 3.1010711361920165 8.206419014371479 3.441447557572811 0.3994602139841314 0.12315507009464596 -0.4065585155918095
Ni 3.155957431024735 4.189536270627115 8.978652632672839 0.8906435048058726 0.4395025746179979 1.094663883088018
Ni 7.09820241051561 6.223132730500153 11.254358336073098 0.7297071021973949 -1.0696794452285385 0.9475965251521488
Ni 0.4013138646518997 8.801983697171579 0.13154352022249688 0.2683061848444089 1.1493718161538593 -1.1830758932745238
Ni 4.7331086467880175 0.3899025074563282 1.6193925909329414 -0.38456761314301513 0.3588936054156787 -0.014395092379407467
Ni 5.980489907899754 5.730132798021004 0.40759201028921604 0.7757645586770897 -1.0835937413167855 0.28461674907897433
Ni 8.268449842556947 8.894663669069041 10.99648680497561 -0.6356036980530667 0.31344987126058277 1.7520710501694214
Ni -0.01324270909928308 4.9834386255274525 5.965480961631114 1.2584074161279877 0.5787540360538743 -0.8429963352415546
Ni 8.126436415673082 8.915057242120248 2.1548708438650945 -1.6306872130425851 0.29032768342082255 0.4570107587050904
P 8.594258650868612 1.6042913987906327 3.622230478165421 -0.6814133001880136 0.4466983210354887 0.3764526973453646
P 1.5580961122515777 3.1543476500920895 1.6893339549711344 1.9354572971409827 -0.44908713298263947 -0.12236008499717636
P 4.8714684135775626 1.1096274231002095 8.083171292179966 -0.2560649055832106 -0.4674910894111239 0.5339713325215448
P 8.615990693459324 1.6578120929445337 12.502761536765671 0.4982486823089548 -0.3797293112141073 -1.0844440051322226
P 6.251765126189787 7.930784726364957 1.2954522137487168 1.241032929405282 -0.9056044969910791 0.2417736857715191
P 2.119412253523997 3.2004524995000967 5.8587958956196395 -1.2093816210485882 -1.6099826335053822 0.9864361237271657
P 7.196055386308987 4.0566208191266275 6.046633816805263 -2.8638003733801582 0.23632320417990912 -0.1437354653491589
P 2.4821284550161407 8.503658732985244 10.188643566324304 0.4754519961294134 1.0171672342624352 -0.5114749511912418
