# total energy = -381162.29308201646 ev
CRYSTAL
PRIMVEC
9.32517938610841 0.00000000000000 0.00000000000000
0.00000000000000 9.32517938610841 0.00000000000000
0.00000000000000 0.00000000000000 13.64834263515794
PRIMCOORD
 96 1
Ni 7.67631973567351 4.1033959422914466 4.939922340429738 -1.0948351185585596 1.0007576825561602 -0.9543783239606725
Ni 1.117949118799025 4.658915522765196 11.119590898841434 -0.6601631325599856 -0.5710481827691842 -1.3429735702058418
Ni 5.530306901221007 7.565275500726196 1.5627079497757792 1.3103892085119175 -0.17044125677511934 -0.35714911192074617
Ni 6.901770344111204 7.200185406468361 10.35000250265971 0.25386738371125955 -0.6680790449729527 -1.0252512968221503
Ni 2.345422468321614 4.5900210981942555 13.225530640344735 -0.4777811584832222 -1.2874853073305503 2.068390786778631
Ni 6.159458097343395 6.368575242850074 12.941453973658977 1.40772063267524 1.3033266452381813 -0.4047276330306578
Ni 1.4615353496214802 5.01551037869275 6.293155057814226 0.4825546686124657 -0.7133700556002682 -1.30035676397658
Ni 2.648444169246453 4.111779278470287 4.125743734452283 1.1219810828457324 2.1091869948593867 1.790668450826645
Ni 1.30054545441402 4.81110244872591 8.637953671641553 0.292807769530199 -1.0519928265820528 0.08036985660831965
Ni 8.722147917868359 0.6209329156169248 7.924186731188593 -1.1861403911324604 1.2617207967719368 0.3433397168414797
Ni -0.08937811339234378 7.782729356515281 2.3521011617268264 1.0183435139587236 -0.01794912827925296 0.2557106075675854
Ni 5.8592059746667395 8.814700322289934 12.808382732718291 -0.5597137315929716 -1.5738156966665218 0.7914470024093531
Ni 5.460134927087774 1.410442692309057 7.457153776967368 0.46371285331561424 0.7104215144949055 -0.2350255684144081
Ni 0.9137025144338464 8.433608220375934 7.997997390279538 0.6464627522547576 -0.024175825915255137 1.0247756427373125
Ni 9.44920417132295 1.4511191243581152 1.3791921514831047 0.3135154343911955 0.4032009119734863 1.7142089850163251
Ni 3.2984464662541453 8.065953701814225 1.7792115697955386 -0.03995262913353764 0.17052995983418373 0.8372249799754161
Ni 6.367922480299998 5.300487857697614 8.26258349973794 0.29461448372163457 0.6802115665704285 -0.014840407446942183
Ni 5.695660980334694 3.333835521647584 9.224314417570564 -0.459873424964866 -0.7228497129559293 0.16386617466076295
Ni 5.463631869320327 3.6852828786088185 6.312522522674997 1.5441155984989277 -0.5349146702714207 -0.022486096917658047
Ni 0.18861387380877268 2.938074912715435 5.453768627188669 2.07707365926461 0.808788064790962 1.7336678650718853
Ni 7.670183767702791 4.544999132597545 13.581752489100817 -0.4770224259403268 -0.9150178198851789 -0.6794525769172169
Ni 2.7077523095105547 7.000309513634909 7.498030700371093 -0.519505277694886 -1.0105494718356014 -0.6196204352509329
Ni 7.662984729293375 7.412370535960398 7.936647968269554 -0.12338492671726492 0.42433640840052084 -1.0095652535454613
Ni 3.437279735476149 0.07066154604579064 13.49534444531132 -0.16216744680210138 -0.5683377258165567 -1.3943431829270696
P 8.03377250809545 5.077429569157157 11.190166653237787 -0.11722173532934652 0.48933672453130567 0.03125150181511392
Ni 1.688631440793125 0.9285780404321632 9.328546609048864 0.7776952000408993 0.13411131199583357 -0.8884261854395796
P 0.3913162284840555 7.727225889400197 0.05069167460309045 0.9299854969386048 1.759002744292248 0.7508873358194359
Ni 8.178890948156763 3.694384253592743 9.437474028298073 -0.01173477193842495 0.46904583549275347 0.625361194389452
P 4.992188105296441 7.104005507304218 7.267851704927228 0.35664568992176643 -1.007197524644233 -0.49992092780505515
P 8.908483650377365 8.97832924323556 10.005313103127627 -0.4441429016034867 0.19478189040301294 -0.055584422133523624
P 3.6364282643252293 -0.06081415671892097 11.169039527045593 -1.1543404730130442 -0.47698000273816565 -0.09932197223079024
Ni 7.554225163271328 5.895247792610254 3.0207873879535683 -1.3223463808737936 1.1306397869619949 1.9134725653397755
Ni 4.735242115227723 3.2345130370637873 1.8461840749154677 -0.7324363282030999 0.28876342425749624 -0.007483967081870981
Ni 8.08107914261743 7.675368567386256 12.148185217196332 1.2628767647532508 -0.28862946978279325 -1.0262239451480648
Ni 5.031838767623951 4.774594371818054 4.095976829650861 1.092120547840874 -0.40531847253712133 -0.5861955799335841
Ni 6.0143956083578045 2.5747939032392404 3.9497076624655576 -1.409074061379341 0.15247978720069225 1.2900435549760298
Ni 2.902788434294152 2.355512312309941 13.789603275260347 -0.22078782754847134 0.3875302953157649 -0.9450215653361209
Ni 3.4611988203468127 3.544882979266631 7.614847221296941 -0.4753509517751749 -0.4216748024079577 0.876026012003014
Ni 0.8288265976011738 0.7046217371263866 12.811071181906678 -0.07836182503935536 -0.4148012152165759 0.3770911022603119
Ni 7.225745722893502 1.4549051471485592 9.710386590341665 -0.39269564156678816 -0.6448925795541604 -0.4872106793272384
Ni 1.4324034895294906 8.878829580245313 5.714793450677438 -0.9311394080373899 0.11931512752326547 0.09877792680186215
Ni 3.5613792214249953 7.8473901496900105 5.478731199621528 2.236930969876296 -0.2511715820466513 -0.30708073450944534
Ni 7.7097878041338666 1.939823795241883 13.864669103483298 -0.6395377430001501 1.1954015047194122 -3.3187977011996455
Ni 9.03077405154457 6.433664994271997 9.419813071246786 0.6646936734404876 -0.44919074844003926 1.4876505735326637
Ni 0.5942862158048697 5.63177417704077 3.984101721229093 0.4458758251341934 -0.4394138715589336 -0.32885900672680135
Ni 7.793882270942304 -0.4216128034689673 0.2972783230020936 0.9236369290127576 1.6726311615745386 1.1186144803663445
Ni 3.2177090639889583 5.7673995845881105 11.654701391928075 0.6246844800374015 -0.4034785911149051 -2.599787673704781
Ni 4.190903424718856 3.1583542978284234 11.53013378197903 0.9178599173196643 0.43160208882399864 0.2861100457950492
Ni 7.799244249032219 2.0318260140855346 6.381173560066553 -2.5964966616583345 0.36700672144111635 1.3214524083046146
Ni 5.585511962598913 7.153923192026504 3.9025660836169545 0.6627640605179425 1.01550064519329 0.3987459615259262
Ni 9.438200459764515 1.8848052374497133 10.595999799727787 -2.011470933663136 -0.44034178268984164 0.4328418747683706
Ni 8.345578527908463 6.8410727521333685 5.159523785008575 1.0001578441886323 1.518974580456926 0.6227409831577856
Ni 6.752875206438735 2.9708529179085663 11.750171644948491 0.5040956280080351 0.6847516205326272 -0.6255182887926065
Ni 2.180348144586532 3.4582147629750337 2.09032566130547 -1.1726217878207352 0.1715108356902143 -1.2657620567208459
Ni 1.9463793962805092 7.645388115979166 12.024258247064292 -0.23413545249997098 0.9968573190604897 0.48820621047128826
Ni 6.359455217507575 8.566436074137233 6.2805166423268135 -0.1234887992849809 0.5198271798106789 -0.5775281340665731
P 4.971831238913339 4.728593262396229 13.162215470541094 -1.5255807729195339 -1.786644931489549 0.3872698425655266
Ni 1.9593413954891727 1.9880909232304032 4.285688277061692 -1.0671391953051879 1.3230758028406504 0.474733372795834
P 0.8686665610682053 2.416237879825637 7.63809023066931 -1.1813697092166944 1.1023905623083143 0.830156503164409
Ni 2.4518320891633847 1.5347193566643524 6.55606356751893 -0.5045080329551053 -0.7892132279828279 0.9017727819498147
P 9.703501810474215 2.983693689786502 3.4083054709141067 -1.272402444855499 1.090587399025799 -2.8690292258792653
P 3.021162260160898 4.056089307769468 9.815369458752555 -0.018876268079212652 -0.6930094896660451 0.9584229263436913
P 4.368734593718293 1.1367300298826568 1.70024222152313 -1.0403372446209953 -1.116744002816509 -0.19023566579322723
Ni 4.692495493376993 7.34399832142952 10.63073516005322 -0.9904699274769071 0.6430053898337765 1.8766199152878003
Ni 4.12994472772099 5.709881878747076 8.972215655695129 -0.34889921320712813 0.044163067670459424 -0.0719104129870568
Ni 4.005947818744299 6.8593128028183665 13.544137513411618 -0.9237541713169123 1.1159356479826006 -1.283135257891971
Ni 4.125477966842609 1.4738445862800673 9.481475819280808 -1.120566976107025 -0.032245490297267046 -0.5065402328937857
Ni 6.899420398930929 3.8051953590578873 2.2519767117243643 0.9467128369956148 0.2880597133222523 -0.38657435916039873
Ni 6.412944445896709 6.015057696087168 5.862700119345506 -1.168120557516272 -0.5274348169546077 0.8144149240594362
Ni 3.7218842073095413 9.127196405370169 7.417765152177817 -0.9871295502497645 0.5601022252806418 0.3060206686760471
Ni 5.700276944081664 0.3030058481200513 4.160806408570682 -0.34929439176301774 -0.406901500753525 0.3487819709029735
Ni 7.97723394607953 1.3453809164249948 4.171752304017538 -1.1050264572692645 0.7856077700197567 -0.9514338966203679
Ni 2.5554161806812523 7.916144696571648 9.552256727621469 0.8413078917955382 0.4366440221232803 1.7314613443388696
Ni 0.3240080169098012 5.806453435441264 12.946735755207024 -0.5086590790090013 -0.7921625404191389 0.07148515252418013
Ni 7.90679154174698 6.680744944655272 0.9256601918333208 -1.0521622622803815 -0.25771478248180774 -0.849555476516311
Ni 7.168470471713925 9.016068243809274 2.494425778073811 1.185561892921171 -2.51771240436958 1.4303406840676012
Ni 3.3102428180519583 0.5432644298550262 3.9847153180261645 2.961242612089732 -3.0449361337546463 -0.3831365371234434
Ni 2.0621981230226694 2.406567668905217 11.488424120064995 0.247554039898722 0.0016655606278810024 0.13172250004868283
Ni 2.2655336573715266 0.997094795241988 1.822653850021064 -0.09614897381944731 -1.2175153058993162 1.3953852510383389
Ni -0.24333868845340778 4.801497514060497 1.882065499775249 1.8182057370149654 -1.9478757254099937 -0.589296844566727
Ni 2.1483534544534924 7.73987083251311 3.802400602825631 -2.083698106559663 -0.7815618820851571 -1.195161363684148
Ni 6.384008414569742 1.4926627980808465 1.7816137359798203 -0.7641393157333356 0.7474448857967901 1.420441422676018
Ni 3.874761196537478 5.356606786645628 1.5471759311556712 0.11555900291494291 -0.5144242636275528 0.3739168182973883
Ni 3.857733419159766 5.409415276946823 6.162745223041996 0.40600212886770726 0.39602573438128574 -0.4401031843164743
Ni 5.476379389405395 5.088852913783497 10.985223457979885 1.4784426817811505 0.05297783774861199 -0.6996899870100144
Ni 5.3466941210637495 8.500991965902411 8.824731417648753 1.6214183861461495 0.7920085313397779 0.3222638700077869
Ni 0.4839824000929279 0.3442147479063863 3.610273001461589 1.3239016411760556 -0.9980564815749133 -0.42966836213639553
Ni 8.421588064275237 4.570969756911307 7.234140249287488 0.34688243988741546 0.4324888623043261 -0.6380591015720947
P 0.585113969458365 6.589470089795992 7.284611849659409 -2.1590270583099658 -1.4407495381057511 -0.3741250776534525
Ni 5.159901454769691 1.804562069686727 13.303052720791833 0.9151232351147917 0.8791295906290021 0.6646949589920682
P 3.6888264467378056 6.301396651267907 3.4785259359796314 -0.9300204639415983 0.1677624243913756 0.14819015868640284
Ni 1.6963899899597497 6.289973306641566 1.6303490702505725 -0.403720274812066 -0.08636129830506417 -0.42586364367832463
P 8.450318941657894 9.259613951242848 5.772729857068451 0.13961887207762405 -0.6821077551518768 0.16875307043941906
P 0.13656352058359428 3.185751674573066 13.436274097119034 1.2383988342165446 0.0018774195283709602 0.11771641557757791
P 3.923326730263176 2.424667841900912 5.4322311931078575 1.779692925651748 1.0425054559169078 -1.2139448149392382
Ni 5.530651932854618 0.9256993575863255 11.241880367490712 0.4361670824868617 0.631479391472048 -1.3211526176760087
