# total energy = -381162.43208484026 ev
CRYSTAL
PRIMVEC
9.30738237860659 0.00000000000000 0.00000000000000
0.00000000000000 9.30738237860659 0.00000000000000
0.00000000000000 0.00000000000000 13.62229491571885
PRIMCOORD
 96 1
Ni 1.420548565735967 0.7640895686455402 5.301457165866299 1.2283977571397748 1.0788706248095032 -0.3253247683212978
Ni 1.5524527909244024 7.959412931332529 1.0822233493625082 0.8081506883172791 -0.26365891588038465 0.3783547994640839
Ni 6.659562502221147 2.1086526634219824 2.029531535288736 -1.351235295994002 -0.9392604944826276 0.8249402490707922
Ni 5.578770628291463 3.983606258945544 8.587562593725442 1.066867172590724 -0.07309080644840316 -0.5485484590047713
Ni 4.689943519004135 2.11513060166155 4.94302707249386 -1.2127849903031822 -1.2744829815336114 -0.5528440010563317
Ni -0.11739773878011642 0.6604379031211957 3.31508117114567 0.06895467279284254 0.2394699773390069 0.44087657214738907
Ni 6.0874563129830195 3.696724807281478 3.971103651995528 -1.0104635969900146 1.583785149174408 -1.8922933601589988
Ni 4.649307486886388 4.142892803531692 12.595460190331114 1.8548526988140377 0.8970671489440293 0.7372723161391624
Ni 0.29640848841984363 1.445054903932492 8.268270043883724 -0.7964917639221121 -1.0818898712518012 -0.3729932780418544
Ni -0.02470365470612087 7.707071176230294 4.239544386656641 -0.5069649791360301 0.6297235851232058 -0.30969168976973116
Ni 4.751400165837274 0.8179709368390465 12.156195479702001 0.7258494190142016 0.02529271312851773 0.47046148489335754
Ni 1.9828820033195746 8.043840198245052 6.132512421063368 -2.0192719177647933 0.23959030496695513 -1.836451570599031
Ni 0.1468537430050924 3.749590740041167 7.878467556223772 0.19166957002627635 -0.5718452247491829 -0.0797965006033529
Ni 2.307877186436268 4.613781207776576 -0.20145736408278037 -0.7582900560414103 0.09838480512850153 1.8100237154248051
Ni 6.417635708167873 6.2606667018312265 0.17875479662020405 1.3227184195012316 1.1418809070934528 -0.959891797579734
Ni 5.468096542649657 7.508656395495954 8.867120066078135 0.6934527478510508 0.16754208085045338 0.4864180082226139
Ni 9.455742205612403 6.373127804918431 2.2692292112265267 -0.2922351848561806 -0.643502384074853 0.23343225578535928
Ni 4.910723939953534 1.3555923430722576 7.177069724072851 0.06774368320387687 -1.5671814791794556 1.1010314771772587
Ni 2.5962757414524162 1.4308332234295333 7.52769371571896 -0.3240700699785903 -0.6358214704908276 0.33215824630336344
Ni 2.3382937125381456 5.453735251408776 6.754029642666748 1.529311957827192 -0.49825742405970325 0.28866572233736737
Ni 3.2061140594595194 5.798899532463893 11.395635270511123 -0.5915216201321878 -0.21988408478727936 0.35222313537403854
Ni 3.956819612029631 3.8872003907193364 2.420422986704479 -0.22212582963360458 1.7106305236364474 0.5321227093485803
Ni 0.5427693195095112 6.382993630398232 6.036584021560853 -2.873103653058955 -0.07327438321411897 1.489214318475358
Ni 3.740460197781087 9.277515137581542 1.1892861705834064 -0.30420855516797285 -1.6410163628827352 -1.4306085930170072
P 8.49886882266203 2.8755251394434285 6.096671552424105 -0.07568607797940513 -0.17642241405921874 0.5580682255697486
Ni 2.416345422418912 8.729589528151456 12.750726876403368 1.215897310679919 -2.4362647413160494 -0.12318078112625883
P 4.398873745202418 0.20599657454174167 9.161647532489047 0.6454327683283464 -1.6626609377357042 -1.0746416743298202
Ni 2.4392881203507137 1.4018500342369855 12.210916373799543 -1.6896904310496708 1.2177495333973094 0.49381944289300767
P 5.711987194416362 5.422164609873413 2.3289760918892504 1.903457861416251 -2.679493157256224 -0.9297713240452699
P 3.141669742834856 3.200883310478719 8.714727499730563 -0.6256496721641482 0.9279509830070792 -0.015302177574709128
P 8.251162144058798 7.681150115889496 12.970113982188307 0.5476112919024827 0.015743121766869664 0.9878916252267695
Ni 7.07804103545022 3.708507953562071 11.881869687068361 -1.0262578837097938 2.1442990080711715 3.018322644932176
Ni 9.28595693353454 8.304158380173881 7.855596525137437 -0.003402083703013496 -0.09387534729392219 0.022635478011328758
Ni 8.438491832202153 5.313082086643913 4.573181474450689 0.4832102999185936 -0.2373202779858558 0.16756753477175013
Ni 0.41097771364966607 2.9088734910416623 4.223129886830059 -1.6359947412984275 -0.007329186671561572 0.3903641652201342
Ni 1.4223076610337808 5.179660758103395 4.29659491860097 1.5713939745989065 -0.37142336245157326 -0.6069526099752773
Ni 8.385290833671453 4.214178046314519 2.613928123155238 -0.7119384653600642 -0.5560902759077713 -0.40476568535744484
Ni 7.048583169748738 7.5031836545694235 2.2725258861179847 -0.7565936421755938 -1.8657747450431803 2.024756080807816
Ni 7.5245534048539735 1.4569869683335346 11.753847571132402 0.058702913157847286 -0.3168712382373059 1.7713921190955362
Ni 1.7499926777010995 4.815518724073454 9.653194602993334 -0.9453892330881846 -0.969193277486318 -1.0703836703844147
Ni 5.611802528883739 6.102431891470755 10.863222275540643 0.1289091989696038 -0.8930932518979458 0.3042640909962566
Ni 0.9709368379503515 2.4474134652977573 10.265312298981573 -0.005699364377622442 -0.6410719202564895 0.22945501630516613
Ni 6.335311909706702 5.925247250283045 4.430120489825803 -1.8435516719789216 1.1271569706197166 -0.18037985604506998
Ni 4.321920306459969 1.7344679636442049 2.694912589270613 1.1339146010585246 -0.4458796817889353 -0.41221031456094814
Ni 2.2650632268069426 8.83755516547758 3.1212493455681734 0.14450859606975758 0.18433986913408254 1.011845822049522
Ni 7.944651422642939 5.92605699256299 11.600092403982714 -0.015012414248432209 0.7849246279098031 0.8513254239325403
Ni 3.9447013999780265 3.486480343353905 6.722725192271689 -0.3451387177234314 1.4104408598198805 0.48089142197742984
Ni 7.840334279267834 3.030874661220184 10.053539562842882 1.1644888743009556 -0.23260641744995425 -3.237371378302354
Ni 0.39288136980025357 4.532053081797205 11.297528012758775 -0.3112158397237414 -0.9816160766307029 2.183836918264794
Ni 3.706311411285436 8.054673991507778 7.248300984037015 2.931134479850442 0.2729488258227428 2.0257541830550276
Ni 6.0785491479036144 3.091865938926917 6.295870945505565 2.37987710655494 0.9089376751293702 0.1371560123594283
Ni 1.1789940669838177 3.4800768641745625 2.085273449249612 1.1869559450552203 0.7918090137344621 -0.6486978122328634
Ni 3.9329740979926027 6.921388480119529 4.798671430959313 -0.5523878873555196 -0.49177721565199817 0.8317647281917933
Ni 1.3295037498459534 6.663760131741326 12.754296257602897 -1.4346601373785615 -0.274128962173773 -0.5960130802446381
Ni 8.731125246268594 0.501374735715723 5.895034555858532 -2.4544115874284054 -0.5084258799522727 1.2578515436245177
Ni 3.407125599919203 1.7288183824496395 10.131649909233577 -1.175142754470376 -0.2720497110472411 0.3727369390566742
P 5.318173224886792 6.20087607647062 7.132251884985222 0.3177945213825236 0.15814572723721795 -0.32798277476943516
Ni 4.048860317850154 7.832748762507421 10.832898823264047 -0.17034304063435823 1.86430638802777 0.3326436705802142
P 1.8241166721550013 7.070427596542223 8.2380694490565 -0.09884271860152656 -0.1612459634290965 -0.0626662686809695
Ni 2.85607270995967 3.446849508549195 11.691089752221835 -1.0775958718621377 0.1945486913462843 -2.6861340596115095
P 3.919255016146162 4.632563505718311 4.779477746709836 -0.36489147487032636 0.18400176906837343 -0.6040565193744049
P 9.009844123455503 0.3404035548919869 10.525579290306494 0.6155866315011914 0.34509320919747666 -0.5813860743600827
P 7.205254339844487 8.917440429716384 4.330404916372598 1.7215474276592673 -0.36730085564276743 -0.9505008432831372
Ni 9.009751049630223 5.826449384747111 8.557361998898218 -0.9535992797028028 0.8687212508114845 -0.13270800389040371
Ni 9.50451289005972 0.5037499797368977 13.008720074176672 -0.1713239164903888 -0.3255777648723683 -0.1851975891486875
Ni 7.404274100443153 4.902579980241434 6.679120105127473 0.16630049513386844 0.42289221975482655 0.8395245746428702
Ni 5.331817847673007 2.718397907603804 10.516725177307501 1.1607054959991234 0.6743769621665224 0.800800161489479
Ni 1.8505310237697896 1.3823696826056424 1.1873027673666654 -1.5712679905440037 -1.0304405543325736 0.1511404995639784
Ni 9.014516429484617 4.9912421062042505 0.15457607828866882 0.19136669407387688 -0.5276204506028526 0.17483887162218276
Ni 6.710790335655888 9.070760942102012 7.485546164678646 0.35265353804323785 -0.7548062112578677 0.7543691237204493
Ni 7.185075934523534 1.906421855851116 4.547626194243246 0.9848885767343877 -1.7022744383622685 -0.40538095034394056
Ni 3.67781220598435 5.256642118993428 8.886940137171754 2.3355672288939715 2.4307702938603812 -0.8734040009991345
Ni 2.333956472280044 5.685433232063652 2.0103238899654667 -0.1498364360405742 0.40073959491718725 0.31084405820661953
Ni 7.878922687229396 7.760383863351333 10.124267293412275 0.379986678640552 0.23425860834139656 -1.8827568814234734
Ni 6.804152689795401 4.035066776943488 0.8821090405785347 -0.17210476052047133 1.1003246809182212 -0.487923646233863
Ni 7.237951174665752 7.256584554487036 6.125851127387996 0.9644272235562424 0.2262992442850038 0.05408495476986169
Ni 6.569457731966473 -0.09887046311965217 0.6726203361122445 0.352551979468367 0.42832161830051396 -2.4950357887076704
Ni 0.9318830608623841 7.007826141658127 10.212566431456496 0.5180158376335531 0.495261831766489 1.0477340513056987
Ni 2.532026879860844 2.0584858715954466 3.7694657246917025 -1.4307798284875488 0.9014627069085636 -0.07348547078366054
Ni 5.483369957378292 9.261562283928354 2.554085376452475 1.7927428168571706 -0.2685846353167762 3.2419106609336037
Ni 4.210808773839341 5.874754700068024 0.6543322601827528 -0.8624235907282308 0.43084232783983867 -0.7942788154311934
Ni 8.714390572483044 1.9762272248119728 1.3927706825808102 1.3958603909025442 0.2731429441114199 -1.2080929841441517
Ni 6.5876443574264085 8.49689565756607 11.79653960405061 -1.1712408483128087 -1.118407763672177 1.5298806858464686
Ni 7.117243730658638 1.8754934237101921 7.952995491079394 1.402089659641708 1.289837866723127 0.07507415542701909
Ni 6.494980056976503 0.6626437527803588 9.950868895437 -0.8295990879990423 -0.8363184090007467 -1.7788614308893882
Ni 4.769893934920637 7.110691333358845 2.6057134273359246 -2.9889508766382784 1.9625484969308202 0.44342967758654595
Ni 8.749963388505497 8.466339520726272 1.542425016988612 1.0977602626251546 1.8539080755125816 -1.7638937538359623
Ni 3.8539916498590245 2.203820649771951 0.5946961373721135 0.6317254460445829 1.5449743469547974 -2.0678673101749934
P 3.484516485640473 0.28674091018789133 4.978117766101356 -0.23800444853707395 -1.0385063620598438 -0.044177980068794885
Ni 1.8004573057685351 3.1074930341916205 6.1263416264472275 -1.2287068037397613 0.26938939060625866 -0.7007060869793545
P 5.8768953980494905 2.4637665363996537 -0.25596698059693435 0.36154595543686124 -1.244266091630599 -0.2745513944231723
Ni 2.0654198715788916 9.208314748485012 9.509547253269178 -0.685019015261401 -0.8417645197169826 -0.13796231031080755
P 4.569115079024156 7.933826936762743 13.145310566468012 0.4206615306520949 -0.045655593055585884 -0.22862197888090952
P 0.7548985283990274 2.917920266858989 13.130884123549437 0.18286431302982056 -0.11254104202422553 0.36352030555441267
P 7.134220396389917 5.2265327365149785 9.60439878861319 0.642142527612849 -0.3012245328389844 -0.1459620406868325
Ni 5.454023780267147 8.770225560269202 5.477565873633759 -1.0071286190795108 0.12036310917180561 -0.21698002376660694
