# total energy = -340890.825673673 ev
CRYSTAL
PRIMVEC
9.08089439192305 0.00000000000000 0.00000000000000
0.00000000000000 9.08089439192305 0.00000000000000
0.00000000000000 0.00000000000000 13.29080685345594
PRIMCOORD
 96 1
Ni 6.138911470296777 2.31120561375636 11.421242173036346 0.6249264208448786 -1.573538531745735 -0.13751519547105995
Ni 4.99173119274621 0.2366553663623538 5.983521025716437 -1.2587663421293032 -0.46576896451369465 0.2586745752919158
Ni 2.7914305392897423 1.561541477786714 4.814634686870134 0.2612737034776597 0.15286853799867867 0.5116317884840802
Ni 3.3743331350197083 4.249985596478644 5.027499926728463 0.5422487420389888 0.16164397019846355 -0.3255155441758652
Ni 5.135772335813179 4.5589176155896185 2.43827819800761 -0.44795713314325425 0.05145754444934364 0.7414752984769165
Ni 7.3312964389447695 6.236857994639251 2.5243759716582557 0.5343148319038927 -1.0250342957153378 0.20299296545889556
Ni 5.237015224733469 4.442455148067625 11.436898542646848 0.6900439792798181 2.682812965658077 0.11952518665154253
Ni 5.534450831845781 7.982441954240254 12.35477443765253 -0.30268517654491095 -0.6462033279457838 0.4880673709005788
Ni 1.9731420862001186 6.508667318449647 0.4275929711075942 -0.6046956956203006 -0.747950621788615 0.620452444233925
Ni 2.644819503177259 1.5510076405683506 0.21240302234590236 0.13622655856662344 -0.49762750378518816 1.1580924838563087
Ni 0.587265057281433 0.37946241591382623 4.857205010573553 -0.3000629084307155 0.10186016527161167 0.6701282141924976
Ni 8.679791058990078 2.4358590478050477 1.3407104775767054 -0.5264382573692934 -0.5669848113330881 0.22645505313657774
Ni 7.0887820796744085 0.7043477498741291 4.946399369130631 0.0034882156589165735 -0.4588719802835452 -0.6291214327628327
Ni 0.6379082958875467 7.313461562826781 2.1686746233871625 0.9361204061917491 -0.6602016991074049 0.6395997065863372
Ni 7.770103406242844 3.83802175229909 3.9790680164741477 -0.1333554076664155 -0.6832963761433394 -2.5246194159020585
Ni 7.584971217130103 3.7516533680026614 12.607273240044952 1.1193870968663109 0.6090837973856671 0.45919465373028656
Ni 7.8133829477796715 8.870825829302765 7.159571281960643 0.4570765789460193 0.9549041145571553 0.28468256931990327
Ni 6.677081581425312 0.8010510998069531 0.19840754827612478 0.8590641873376949 -0.42423202161217266 0.5922435858998769
Ni 1.6724736807690674 6.595162835264228 9.349151939868594 2.038578588513205 -0.09002049232420627 0.14760548982752644
Ni 0.27042993598843984 4.727776842378819 1.450505752611008 -0.5395940780249611 1.0578408007223974 0.6024315821764722
Ni 6.223754264375373 2.12218680194581 6.71847592933582 -0.04642049624606844 0.9604777519901911 0.8470915883568508
Ni 3.4889521810284885 4.129236946916074 0.31316099151838106 0.05171748297894964 0.4017916903307854 0.3233074807809529
Ni 6.139692427194 5.775648461463846 4.631898945724571 -0.32447476161617667 -0.42853656252479744 0.33993994713131137
Ni 5.380275410903214 2.9636406160216797 9.068383405886097 -0.32516947369035615 0.5619778450367998 0.48517436562349986
P -0.04509390418875003 5.705943517939571 12.786047895160644 0.6795546497127201 -0.45165257971697054 -0.939669299885272
P 3.868578961126498 6.111078529715497 12.706662718468458 1.5454050067343126 0.07337439912709298 0.5299501271772937
P 2.4407445688597718 8.53719377809356 1.5406172814776162 -0.2689175931761627 0.07193252447424386 -1.364647712745166
P 6.524604287689499 7.7115407198452335 5.807457925595058 -0.22099454424263876 0.5066536185431985 -0.6785287795513668
P 4.555475956705343 0.9985623638301017 12.703831295671316 1.0274670735265468 0.21840955712428192 -0.7131728519877977
P 3.9113318108024084 6.494074321544552 8.364794818763222 0.06957687975787372 -1.8293499265572428 -0.4899177938457562
P 4.667316249103072 1.0118204692945938 3.9334937329846635 0.5557439483119461 -0.19888279994526392 -0.5196610865464599
P 0.5000657711699359 5.719728315264981 3.5420799522750714 -1.1432055394421472 -1.1846113560824436 0.3677893652434117
Ni 1.3605268047990444 1.0683217927192992 2.7220107358418955 0.40098616371035456 0.4117464875506522 -1.4715459546613172
Ni 1.845519199763151 6.406697957997056 5.064806964180362 0.9793581338344617 -0.13666827408973237 0.11293210681505711
Ni 6.052170769340044 5.695545894133514 9.138851144519288 -0.11717776946528852 -0.7145404217592856 1.0264635719626967
Ni 8.36512899566808 2.1472409889160384 10.554721458738433 1.8024739281020055 1.1419284725019367 -0.2712706667893715
Ni 2.342443889645301 5.118064592213344 7.237469008190441 -0.05629430371635467 1.847455120798386 -0.24117539006588787
Ni 0.625493805489939 8.899566859299421 9.406581330675815 -1.7428215065466952 1.2574864469756148 -0.9641742270051716
Ni 1.4742195996041412 1.1126274752955028 11.375135749149452 0.3481556501728843 0.1743231083280288 -0.09343903108745198
Ni 4.345562007446986 6.875789707297927 1.6916143894663664 -0.6920116445291501 0.045636309781876244 0.037920429194857275
Ni 5.771571139988808 7.821573914306365 8.181421598848067 -0.6739401317394199 1.0779650822760982 -0.9317698425325373
Ni 5.452668299097002 3.0313296010438195 4.396479489056545 -0.26272637676378624 -0.14020585492934565 0.32225589958798695
Ni 0.6883090746197551 7.436725620069942 7.279826838970663 0.8149054905426094 0.9932919703067344 -1.9095531756807114
Ni 4.991240824461907 4.661422748797281 7.178896332809263 0.5004474897324864 0.6214418047303878 -0.37956218950862375
Ni 8.247131857034102 7.036276349677357 8.963917707630637 -1.7336547524457628 1.1286556666524306 2.600618140025876
Ni 4.671838534391646 0.5688599010105886 10.510954273185547 -0.3154381053352051 -1.4019811590883018 -0.19553213830547614
Ni 8.366491129791145 7.463487015141078 4.481101617407203 -0.179692085949426 -0.3754024017039793 0.358386326761957
Ni 7.4445896744071 6.171303019743244 6.894938588799964 -0.9600118680973659 -0.7773524719894999 0.3535559952528492
Ni 2.5625193594617164 5.125283903065585 2.5790148036920244 -0.6314410820349446 -0.10353446765024105 -0.08349888915560459
Ni 2.1523989367953753 5.2899568376499 11.676478865016128 -0.24603811747482793 -0.34094653401895475 -1.1487228697159506
Ni 1.2373263138149588 3.2401629238978784 3.8408304728608478 -0.7997943459327839 0.6823602374823151 -0.06939895941911274
Ni 3.7964766615456296 2.39089045995562 2.479333828566182 -0.6821535207881478 0.9286526370597942 -0.14891109601282743
Ni 1.245335662458577 3.307288893482485 8.300374047547022 -1.527740499575014 -0.030389668035450887 1.2070686566446953
Ni 3.4830405189343896 2.9334103193838073 7.229520501537653 0.7778468951274152 -1.169468329793418 0.045215934415006
Ni 4.391683868853942 6.883236040504011 6.094273426994545 -0.9779334855727931 -0.08958803277247797 0.058128271601299894
Ni 0.5477123147053083 7.317820392020587 11.421042393364964 0.06287118560292398 -0.062356450750034556 -0.08537348047049813
P 0.224605019820312 5.536893592373143 8.036259873442523 0.6146718329964059 -2.7079475559421753 -0.4562237440274208
P 8.729899432930535 1.603431642518017 8.331262709011042 -0.07314222851162887 -0.050137797196655585 -0.8465470287072904
P 1.9753396625853288 3.222391614038967 10.68482524545821 -1.4844392656842178 -0.10316268613311912 -1.0388843142245527
P 3.955909920203225 6.091836115003676 3.9365903178910964 0.6902987756031015 0.44610876708060593 -0.24810219909270817
P 7.154564076924258 4.017478382565729 10.30558531145115 -1.1602416689888277 0.6872731014029002 0.4647816608997608
P 6.434757920932181 7.825024654084794 10.221388168946886 -0.7442672593997569 -0.3670434882163227 0.04500073308040637
P 2.1589644232685448 8.342172495247372 5.970070405295885 0.807190638396855 1.05241937259651 -0.18159444517846146
P 7.049352837258774 4.106071585929828 1.6243095262669307 0.3829907555741985 -0.31001693431963384 -0.0735471772595314
Ni 5.547282135285046 2.8476049505249126 0.43550242991552063 -0.6794014119643074 0.5471472077818706 0.7277576917805079
Ni 1.5750447673933576 1.2375805788512642 7.064090220380914 -0.6890019111685489 -0.6200827195993321 -0.13344616760800887
Ni 6.796622472065432 0.9964192728098139 9.38568800940684 -0.43596216556490724 -1.3588802141337692 -1.6573436392878487
Ni 2.813170199893848 1.4978208435097682 9.269685943218441 -0.11451050704577054 0.9190346543540558 0.1517781331479773
Ni 6.477910329950856 1.5485285564643736 2.5690993753655325 -2.132443651394482 0.7879320472775592 -0.5677126906380482
Ni 4.165042912564357 6.737351475923829 10.624179401941726 -0.09989507112544087 0.5508120582279675 -0.6449949094599795
Ni 8.040986478849556 7.4958876454817 0.33357120921837596 -0.6252547507185748 -1.3106208649067492 -1.5667431060904566
Ni 7.672837948961901 3.8193877574955706 8.176902945917153 0.5781930213440816 -0.14243345870828375 -0.34215726649760425
Ni 3.044033771964932 8.274220164294771 12.657765735808113 0.8797667099923687 0.8286542075872696 -1.133621238187822
Ni 0.15270704035790345 4.883595905163216 10.256395923999053 -0.33463627553021075 -0.830116393955093 0.2298229411675461
Ni 8.51880496743219 2.436985078680114 6.04657239809425 0.9521193527231668 -0.04213652415873388 0.13628286572585563
Ni 3.868769659903727 2.7971515026066123 11.493065689166695 -1.70004683458333 -1.8582740657907608 0.47089291600382127
Ni 1.0944566060938257 3.241752080374787 12.685397080539179 -1.044683694515149 0.7304023284922067 -0.3124527974546361
Ni 3.1988811790748772 8.596818929107158 8.008322502578475 0.08242699624766449 -0.9285009419732784 -0.5358945176861867
Ni 5.498054608077504 7.974459848279097 3.785261757265734 -0.239404157098078 0.4427925582231793 -0.5743219684244496
Ni 2.701048399777352 8.270070195666504 3.6116441419399634 1.1019640162938569 -0.26272406277094107 1.1765733162693155
Ni 3.289335965740498 4.291485282761336 9.435860857695788 0.8971044299398679 1.1018241482818831 -0.2553236565418119
Ni 7.171726966874868 6.105439294446011 11.511141208979758 0.5910973881105757 -0.05513730729377601 -0.6073051082186897
Ni 0.7383448014069823 -0.2140130648793643 0.02286024294267979 0.7643748287829094 0.30492717850155227 0.9272734973240804
Ni 4.616535888995237 0.2771016689232086 1.5360314299299667 -0.4658265572245074 -0.505269079490846 0.28385698809481436
Ni 6.0591539769442875 5.651966683089611 0.37351170597486616 -0.5013340061024979 0.3002786239859474 -0.5046622991447826
Ni 7.637967315411457 8.929243221393913 11.540619607581698 1.327195738546295 0.011356562663399796 -0.4213757831103001
Ni -0.1114443654126255 4.94253090822113 5.609344598289516 1.5235105206540667 -0.1532248928968329 0.7915591025071852
Ni 8.252852820350972 8.935091317228936 2.174189450406742 -1.1762434437337226 0.4408989407448923 -0.0336498268439614
P 8.316255623332536 1.5236923109538352 3.383480319700792 2.718788869532053 1.6602423009918825 2.33498487402794
P 1.8153615502785083 3.189028408918046 1.4682089557637663 0.9524610523333017 -0.5842037463145358 1.6074161583297863
P 4.693133231182217 1.1892248174824829 7.953603758676152 0.031113690685668997 -0.23375801455589418 1.1092811187805605
P 8.700486416766502 1.4668640753395943 12.596986403147572 -0.5785025821647005 0.6288704930942911 0.4623301140354747
P 6.3647623887949845 7.867359782629632 1.5332935403426076 -1.392186284485067 0.6792674574896044 -0.014611579265587739
P 1.6836068570015794 3.3303180410564246 6.103098239933171 -0.863911488127667 -0.7494488036006963 -1.3482818697926329
P 6.777062226058229 4.120492045846002 5.908148696150799 0.36122508176233276 -0.3688324617959454 0.8291524873799268
P 2.4511149499833675 8.524135452300449 10.253312052344434 1.501189488559363 -0.18112419041026226 1.3272990968933787
