# total energy = -340872.1991328392 ev
CRYSTAL
PRIMVEC
9.21118352590890 0.00000000000000 0.00000000000000
0.00000000000000 9.21118352590890 0.00000000000000
0.00000000000000 0.00000000000000 13.48149817086517
PRIMCOORD
 96 1
Ni 6.941547812808021 2.359767020201994 9.167742541358859 0.4170257336717205 -0.7456582262100127 0.5127615312131492
Ni 0.4769504710367474 2.770364731592294 6.604706810283826 -0.5835609705242144 0.4345786549538193 -0.8417838029906922
Ni 2.7250641316143356 4.409089526158939 0.3737465299482873 -0.4660029349013716 -0.2804003970047816 -0.3076957423856249
Ni 5.011620666126046 7.1630767736599745 6.458446113494476 1.7746396794985566 -1.0240336223649655 0.22013733844866606
Ni 3.7547178459974546 9.16577226922887 12.418562599272898 0.7952882305323142 -0.47791177052381567 -0.5475375012417538
Ni 1.264400723418964 3.2329503621114273 12.110024799992354 -0.41247179575245096 -2.4472304962989333 -0.06133675123626857
Ni 6.186332096746028 1.4169102870291848 12.651428684657766 -0.3583809274453183 -0.1444890556857318 -0.16958893607715309
Ni 7.834203596432257 3.938711234480523 10.895099184869773 0.25825034327030366 -0.06760407230221906 1.5069644433699272
Ni 8.328309896557851 7.152557602213283 7.719654240745821 0.517202083483006 0.23917918557146547 0.6543406123409377
Ni 5.909646569674469 2.622654194535249 1.4004849047842283 -0.17971291188503244 -2.4640946190441237 -1.3127047440189714
Ni 2.8355154318045965 8.453784636879071 10.00499674128496 1.1056484071239796 -1.0734270851964287 -0.33303242137820066
Ni 1.0312104043782955 6.045907605761079 6.567821547463221 -0.07708347254756401 0.17637767686421238 1.2911352453783118
Ni 8.860347849938679 5.9800937003437316 1.8946354185901588 0.9632188050704378 -1.0916279244751714 2.0789302528573748
Ni 2.4506629780268208 1.6504229974889728 6.856919144170871 2.176036705494085 -0.40207605434042365 -0.34343741876160855
Ni 2.3246263555179936 4.166872247382932 5.700314136766966 0.7839923459035208 -0.407413150282621 -0.44115553684038855
Ni 6.1799579578308705 8.210729140413353 11.858042745690394 -0.9518696986062058 -0.9209820078884139 0.3028049899522269
Ni 6.291265898077649 6.480693884768727 1.4431943988708087 -0.5703056481762049 -0.6140149161386974 -0.33510807296030676
Ni 2.0100460199248147 2.006591826148537 0.9394578064969517 -1.0538355362177463 0.2813617324767864 -0.37335220404316993
Ni 5.306000876515551 0.19495101225976197 2.8554217202577012 -0.20029330713954538 0.3529060203736761 -0.7789509268248714
Ni 1.2172118308433066 1.4307178509508929 9.166717336646059 0.4154568465227039 -2.0321688283321198 -0.46787058423772976
Ni 3.5834358906110895 1.2003369428482638 4.593321484292155 0.36969789512003426 1.1649416455676582 0.9470447664137368
Ni 3.459471784368029 5.553477741014905 9.359246728789067 -0.251498883479083 0.02599642406376168 -0.012901024332384234
Ni 8.267120005209014 5.871632015768605 5.619506267005551 -2.327536388169695 -1.4879897020396375 -1.50939362163671
Ni 0.07958186125042124 7.9988534997681695 5.312694643494807 0.7926523355713639 0.0405043878719496 -0.2872701275414214
P 7.2083313177209165 1.3537215688818083 3.223048339952764 -0.41053498374105424 0.20167784619189785 0.3765223742410354
P 2.319735217130784 7.840706691915063 7.737692501204713 -0.808656424309104 -0.09951840451231247 0.11523735790946604
P 4.498493272272414 6.856445689343937 10.619861655829231 -0.5039706723943965 2.4216547047123584 0.18159727339193885
P 0.48766491957159125 7.754526859992781 3.218491567523098 -0.06427012283297963 -0.18888892195734563 -0.8383542084838528
P 4.114423769083928 1.650386152755359 0.5150783224984729 0.8665802932090818 -1.1459347654478522 0.632043234395318
P 4.774580072422752 1.1751904121569607 6.9714979756442 0.1951937811294509 -1.0279026184020685 -0.5465959632640909
P 7.5370139751047125 8.711449070222594 10.141726626606804 -1.5374482137810812 0.7482460415418468 -2.481033303780992
P 1.4546761389831564 7.444856085153619 12.918713277947807 -0.37582509106369466 -0.3116740103070825 0.2093119656983879
Ni 5.847342125133819 0.026659007006142477 5.142557638205485 -0.41018197127700967 0.26843036912709894 1.5988785531724208
Ni 0.46035191854380686 5.2519680746711614 12.647667758474153 -0.47859594107503384 1.112673175181245 0.7103055577423315
Ni 3.9485487783553626 8.188493343677527 1.045743809552192 1.9235474330772744 0.11496739207753102 0.22962342356223034
Ni 3.6162000699770105 6.618806368719422 12.6196795777029 -0.20939321255828452 0.32269787222141194 0.6702099752730264
Ni 5.134857088880237 3.6968439806738447 9.116323873364356 -0.772715744548437 0.6942436191834624 1.4816815004334223
Ni 2.1460030869591122 3.752212404111728 8.167846476078788 0.7914850547361402 0.8206835306769672 0.38739094152442316
Ni 1.7200134881017177 0.557633068703876 11.350922885652464 -1.3406356661012846 1.1665622118902166 1.7363531252135322
Ni 6.007266691383783 7.288312023212705 3.9535845323220054 -0.0804359339595647 -2.101776818438245 0.22885980592332844
Ni 2.157609178047406 7.115602334398811 1.8613498862436049 -0.6274013647479324 -0.9134890419454785 0.16669490235880968
Ni 3.1398252979029757 5.7943962429310325 7.149130120868875 1.9765388976726412 0.7575207819755534 -0.20769731291310034
Ni 2.6636071159467996 9.675703382441519 2.6103821348868887 -0.503137892080456 -2.304208512077032 -0.4562078031878208
Ni 0.7231211897294981 9.455832434602177 7.174529959103771 0.4000664801095626 -2.5462832740287373 0.06212119481077688
Ni 7.523132721715777 8.317081463989098 2.3675799459647644 1.176638365179296 0.1957547958392435 1.8282173556146966
Ni 8.092218054745109 3.192402732769627 13.262113564173568 0.437605100484969 -0.26933745432240064 -0.3296755890908258
Ni 5.794912069201623 5.28488884415494 11.00572918201806 0.7178262915994089 0.39120131640944883 -0.6768179675078473
Ni 5.187646380965165 4.130064358502914 12.83500664876934 -0.1854061056150678 -0.16320128738325443 2.134366322338492
Ni 5.309795884077755 0.3683552243022727 10.04335210897675 0.8483863959088744 0.2435922270374966 0.8482424141318423
Ni 8.593545922658976 8.526912221918725 11.783072002851718 2.8779535249520887 1.3619313422552675 2.631707405231513
Ni 7.855665653762197 3.651082821525715 2.0920458168186307 1.0314941924080687 0.11985814451092908 0.5221144331829588
Ni 3.801823837922482 2.315378327380972 12.03454191535645 -0.9276061980731508 0.3432988363012152 -1.4858024645803316
Ni 8.11998056152298 6.559348179850426 10.791804053065619 -0.29765429898922285 -1.7402982259042092 -0.1825256987434792
Ni 3.7963523949808575 2.3767616535812808 2.604476845206964 0.4246662809361138 1.9421797034664812 -0.4099767972447391
Ni 5.449409790923205 4.35632786762422 2.5637634145639026 -1.3599536497036062 1.5422374076396084 1.6676977288286632
Ni 0.1890291424497112 3.3091544824078194 9.061413245741623 -3.433452190022448 2.156294489870151 0.8815268872165851
P 0.5131301572086521 4.5207014354580295 4.741793786216663 -0.3453811727515407 -0.019652998344237123 0.12425036004135374
P 0.28282293857325014 1.1745456293187222 13.210682000522302 0.2633899784897141 0.5358433527332771 -1.0749257812291424
P 5.688790025210964 5.145882875414116 7.6451551104974 -0.5699986584587474 0.43709242251460845 -1.7617882774571851
P 0.7657560732305108 3.9086551430352037 1.2427194399240231 -0.5221733114453523 0.7207290670685006 -0.17541762694378824
P 1.2596477527828058 1.1783406368809264 5.128726125206928 -0.4437302395461003 -0.3895948911542774 -0.7520237634167242
P 0.2734533228153038 5.6442171087218735 8.959115685100057 0.48882764610537105 -0.13093137160595517 -0.008199762201972974
P 7.171735286059178 5.364114232607649 3.3005134712570827 0.5199703902567626 0.7542570236226172 0.8945155861667692
P 5.748202158162942 2.903761089640444 11.077072560832473 0.8437504397987597 -0.4942076794703617 -0.44645663733832786
Ni 2.884684728811987 4.884893204861962 2.779925018846691 0.6799752821899064 -0.28543461699457934 -0.16835763477321325
Ni 0.4018894586007187 8.665614221607237 1.1434320940186917 1.7274365394501927 0.7064599587439963 -0.7032982731865629
Ni 6.6471031241346905 -0.042078528023446915 7.722565895819637 -0.4304273517896071 0.2923485705055933 -0.1642595534444397
Ni 4.320901656254714 8.432110722330853 8.26921370719661 0.013938207347646964 0.7874512509863988 -1.0317343334433329
Ni 8.183574571740106 0.8437167662019324 5.738251316732241 -1.1138692523718752 0.750369772753069 -0.7471880325909777
Ni 2.0631300698786537 6.551131804254586 4.381365706351363 -2.0076122220386776 0.12998957651797613 -0.10756107231113089
Ni 2.9310814596149513 4.699416815850946 11.489000367106227 0.5340929457010737 -0.41822849573057 -0.8704192073391978
Ni 8.319679017708859 7.139846169116581 13.629929013128402 -1.8882497862172447 -0.7943060691247029 -2.4464046579635284
Ni 6.272244804349612 7.179509524851653 9.147425434125964 -0.939055577560673 -0.10615519310253976 0.5713682851127643
Ni 3.2656500631935246 8.41401995812656 5.5098204161561135 -1.0947942380182951 -0.3944216231189594 2.1449371558758026
Ni 8.174575245554978 2.9248915443678616 4.405295439715076 0.7222832989294979 0.6204758412726927 -0.0411834162168452
Ni 7.7594364207467965 1.094012252822729 1.0876537729193567 0.37082969473163235 0.8277808038433809 -0.07738532005869898
Ni 0.34497263523272237 0.8368148264777591 3.0843242334240837 -1.144466665542758 -0.0061320810396668585 1.251966031378018
Ni 1.4607094641123883 3.1007514579057207 3.2706112065746 -0.5665109570204631 -0.7590153642432088 0.33324865115406477
Ni 5.95200880214674 2.350307134846694 5.015036172932029 -0.8101312090824176 -0.5313470075248204 0.025282685826188717
Ni 5.952128547530985 4.6390006639079955 5.2535109478912325 1.595828196381871 0.19725400609258933 0.2887755084423543
Ni 1.335170245507345 6.6710890457171645 10.697244807601257 0.6006899168950172 -1.0596215467719041 0.8365318105631335
Ni 3.6461456272214887 1.6954656843316362 8.930966308619244 0.7414146204423103 -0.8184230167775647 0.5724540619777754
Ni 4.142195487045202 5.7150971650110955 4.747307600601943 -0.9381394935043068 0.3567153668174373 -0.7844662002161458
Ni 0.4690730669901532 8.388412868265087 9.423027726029282 -0.5681441217485118 0.1419305509299362 -0.26050211541895785
Ni 7.3583722841790244 5.0490825490277045 8.980767492808107 0.3749385746936833 -0.6076288101066954 -1.195102999642387
Ni 7.460100593686258 3.4577677154383983 6.728237990906926 -0.5457726960318472 0.3227521224981151 1.181129053960798
Ni 8.633780371765061 1.6697388490859184 11.241452576494668 -0.34969934051092033 0.08386989934177815 -0.7096087887856231
Ni 4.16887107418147 3.2559967429867536 7.180758561321156 1.3386893410081913 1.1151236936042668 -2.7045017634854194
P 3.9927164027747026 3.401137359874248 4.5980809027566965 0.8716942173968794 0.8102371385326627 -0.6947120741794487
P 8.313968083998747 1.4328272119502732 7.89138109629057 0.5442842844117788 1.0213211085298088 -0.12313501548998793
P 3.76238155058909 7.724553669198092 3.5974028080056764 0.652513843544844 0.24491583094492655 -1.4225412426278403
P 4.270194091618955 5.595038600531081 1.1547388216463748 0.04452996409157492 1.0520918140537623 -0.00016275083010939715
P 6.525856316995635 8.599901639207328 0.518273682021115 -0.9923136655538652 -0.3855844844433037 -0.9709290292305021
P 2.3696045640768335 2.8122203489773785 10.223532067530806 -0.32953854929232923 1.7352061560932825 1.1460046994538393
P 7.190774802154022 5.156595481712278 12.951702210188772 0.8498604093512396 1.1015238434326446 -0.4316373129373083
P 7.171901087360439 7.694101496866427 5.994574601772229 -0.4561931478998014 1.3070295480110652 -0.5735766056179928
