# total energy = -381179.8116554368 ev
CRYSTAL
PRIMVEC
9.08540978516142 0.00000000000000 0.00000000000000

0.00000000000000 9.08540978516142 0.00000000000000

0.00000000000000 0.00000000000000 13.29741558788859

PRIMCOORD
 96 1
Ni 6.535961914013709 0.12174994019237396 8.113099078990517 -0.5722087787361888 0.650948555940253 -0.7509040479899841
Ni 1.2415393957858818 7.933125291229912 1.6100109026152771 1.0238310194358562 -0.8671981292987387 0.629627940085606
Ni 4.070708696122036 3.290181155420363 5.615990597879101 0.4906562146736776 0.732380792374816 0.24139393383459717
Ni 1.9570517452262217 2.532130918125696 6.332867575844797 0.49689268250169266 0.17681373596036645 -0.2567619316502352
Ni 1.5332809841862012 5.009976513754681 11.61502660816366 -0.18506954821125546 0.5980604496919699 -0.3633457276497613
Ni 8.431305557081325 4.80629071541932 3.734911956460369 0.2592821269689276 0.5299429280884422 -0.11322778367860499
Ni 8.19628418095665 7.0216951686817755 2.2279550381155024 -0.21783363001615386 -0.6821931157768316 0.6084839590181391
Ni 1.8083508459285347 0.5295321973780491 7.8904865553287715 0.5763014607483237 0.7413156329706008 0.09502000242132669
Ni 3.236186566031584 8.809340366079764 0.4682111336693788 -0.12731588634055493 0.24889332753543586 0.34821375710432934
Ni 5.677690523169046 1.6620303239520426 4.555042797708179 -2.310254975381427 -0.41611016383598665 0.47418958447722204
Ni 3.722274151674942 2.239717009413283 0.9066148554480108 0.9220634138780507 0.32108630475991795 -0.12298691994789786
Ni 8.056814057835808 1.7112732441080554 12.985391661156214 0.13932448076565682 0.7920488976594101 1.5205954038898006
Ni 6.738003253207327 8.817081135078459 3.4785244225255654 -0.6568551512326752 -0.5521004380220879 -0.044172066531523925
Ni 3.7969471333653977 4.379885185588663 12.727555004386561 -0.3550022407810725 0.07771030749828552 -1.000617043213238
Ni 6.641180042856289 1.562372465798665 1.8568778358062648 -1.4109360542887441 0.8936046443167255 -0.6955140012554538
Ni 8.748804281762512 6.1446987486043545 8.558176942678116 0.11350160616528195 0.2623795349473288 -1.6927850108145943
Ni 5.688402221114421 2.615444124367511 8.933868624534815 0.19768415165147243 0.4855584884357961 -0.10904691282803801
Ni 2.0608616355772558 5.325703583559404 8.973095789122565 -0.5028625269318824 0.2835325148758601 2.161963001009838
Ni 6.006364301686375 5.558399094820622 9.625281016409502 -0.11857285004060225 -0.18092467280494648 -0.16245078237047506
Ni 4.073734137526456 5.894931752661744 7.972691341596595 -0.21279992424698835 0.015536662183018402 2.6656477667326994
Ni 2.3322337356030767 5.065333914586892 6.721537765347781 -0.34509063809431534 -1.7536255391407347 -1.398224777369663
Ni 2.7005289854857883 8.695109510891287 3.6482925696567876 -0.9678714733511007 -0.5518991206445591 -0.5825849797641902
Ni 4.751605634899202 5.815398076823047 5.940314282268995 -0.5276937270429493 0.7874242544032052 -2.8566146542649964
Ni 4.491226880517066 0.23866008267863945 2.3589884498605356 1.0944000879036702 0.21742662438572233 0.0754420802893991
P 2.42020775698143 1.5065698798949323 12.445077808178693 0.3652174907511775 0.38563462095494877 0.14808680033931915
Ni 1.3130779111564437 3.265141766499704 13.358849240786647 0.19129830272978668 -1.4102770805485068 0.08102574502476369
P 3.560744653989748 3.479384810816852 7.858240619495244 0.3991925621450415 -0.38590227279403866 0.7271830502239606
Ni 1.6768758832758295 7.210253759995039 7.4635204557243835 1.7018316943978946 -0.6501402011063447 2.824149077537123
P 0.41144640288658296 7.823527994949104 3.872885712616321 -0.005955189142170389 0.7327194066611574 0.30295051439115567
P 0.08947038834324142 1.5803252352134771 7.033162772707775 -0.44091976668049865 0.10528975977845093 0.5368818213001205
P 7.901253674272847 5.3515515739365 6.4832083915794145 -1.5754668591166996 -1.4059835953794753 1.1602635233656984
Ni 3.5957870789051984 -0.08238558591931913 11.404302342993454 0.3386952760909328 0.5116243322849123 -0.4380964382990907
Ni 2.1098592496734505 2.701482953496191 10.675191860970548 -0.15088904567480468 0.5583163370248126 0.27762643380407026
Ni 1.7654222854604238 7.555472069435634 12.355452967871862 3.823132698911996 0.42884586623510007 -0.7168716409956234
Ni 3.690466132585237 6.91456910381839 2.174911691114238 -0.07239429460201081 -0.4903319985650394 -0.19807418800103951
Ni 1.5192712825477195 6.047948221530299 3.12777854987041 0.31962900348810114 0.10278087731366815 1.5935080328891267
Ni 5.759540978461577 4.529649077812228 7.273473674314892 1.3441364801656914 -2.3751002539915875 1.6702649753352072
Ni 4.652965342623587 6.817482416588287 13.239811295366703 -0.018791935895522475 0.12045232645150224 -0.4251342217114678
Ni 9.252581159941618 6.671016528057829 13.169667390373254 -3.2820149851536575 -1.222152033340379 0.13247917570904927
Ni 7.029190631620652 5.895940233129884 0.014797406652785658 -1.1601143993823437 1.3527779578907735 0.6296137990182189
Ni 8.064273179136194 1.5471089776322255 9.436258160664508 0.8709198011247002 0.49414597299449087 -1.4951144860098766
Ni 3.1563621570849545 2.3767159011167003 3.5152385628116254 1.604408224741398 -0.9821030435694507 0.6451576602900889
Ni 6.16988350407898 7.795236029383453 11.5178617864108 -1.3882784647902284 -1.6802891923404288 1.1533889077330524
Ni 4.025181708501782 4.163007372480881 10.225127015940949 0.014153408682246592 0.14439803863382228 -0.4638192969864915
Ni 7.683440063973908 8.601248144077308 0.3376783279945661 -0.8467146646334064 -1.6131062667360283 0.33919844097959645
Ni 4.232020143976282 8.012395490189546 7.010184863230547 -0.4585907015977005 1.2617403371559626 -1.044925121101994
Ni 4.9954126021292025 4.794461512090329 1.3579589261525118 0.7019409878277202 -0.4903183717182845 0.3794156366284304
Ni 5.947845178305401 3.0209077850174273 -0.11621874281396426 0.10972851227609488 0.7022618615022487 0.05985271049157434
Ni 7.801586730709847 4.004694109802186 8.440281941788731 0.32027229349905484 -0.620594369128428 0.3998281388465114
Ni 6.405032075938377 4.25138115188264 5.047419303892497 0.680878510730466 -0.5383823171050469 -0.49425061689315525
Ni 5.452290595835 0.5101048659814436 13.2906205401417 0.5081739118424667 -0.5330053690638499 -0.3846606870774537
Ni 0.8617919870735292 8.514964008888809 5.98718772759536 -0.5654154099634391 0.9473486708074007 -1.0253181455043439
Ni 4.829494851596157 1.4532657816374914 6.917249299657139 -0.05167094601173036 -0.12897090544547465 0.6166330704878349
Ni 0.3803497713703495 5.03173606980148 1.4150043960926546 0.3206278770662607 -0.3267442743766437 -0.28974558566510744
Ni 8.298940224285577 4.21788324660308 12.453734386467374 0.9721814135803644 -0.7618518052507396 0.5898809992049712
Ni 6.547727519475339 6.973070056380118 7.280986399532051 -0.19412008844929793 -0.7004448628981678 1.5783531795255592
P 2.7393963678524718 8.31055137778362 9.362337450890827 -0.6127959561299318 -0.20678997060748258 0.1221345992499316
Ni 7.652086315365346 2.2445504473326556 3.9046664754771574 2.3090650688383847 1.3731020141601062 -0.5740633154464242
P 6.109828946471739 7.5241546624655635 1.614120233387706 -1.0483616575873687 0.2766180471442139 0.01194637372859878
Ni 7.790402591464081 0.5674655996355004 5.65048426405333 0.553494490156137 -2.4491775927229757 -1.0665910361112019
P 8.869712913023806 2.2505377322741342 1.7235176506568115 0.1536933478928192 3.3292970580690726 -1.3728058230759261
P 5.98486822251864 8.4769597404363 5.690681750388802 -0.7323239709949517 1.286239093628275 1.1197354813446652
P 9.184349733673786 3.5038518189312695 10.363406950401192 -1.0016244014318296 0.45577225831229895 0.13954328164468224
Ni 4.397674417630264 1.9946108286072104 11.699730790618739 0.4176739087786807 1.8624698490396636 -0.3622411817316729
Ni 4.226014688215558 4.808407615861451 3.6943410597893958 -0.7858080589560209 0.047012107083480324 0.6884259840604208
Ni 0.9732835912607087 0.48762392841058777 10.451967889241184 1.498765966719535 0.5536451568013884 -0.13378298212213735
Ni 6.308590452791498 5.713459780854326 3.0823542273788935 -0.026325525268406272 1.2584997187314777 -0.19164025945023772
Ni 0.4795824323533761 6.273720650658882 5.680257151387509 0.7676362731430005 -1.2352533466090274 -0.9431593153164016
Ni 4.883498526394559 7.411286618720518 4.275025930426187 -0.6408268941252189 0.2616557694074268 -1.058179672119055
Ni 3.56939396395073 6.895262608369769 10.856728339186288 -0.7623133182681904 -3.6151085987870966 0.26913922226866555
Ni 0.9421297216638511 7.20969046459842 10.326732785917473 0.13317954421018352 -0.21500798764190068 -1.3846249271980413
Ni 8.17619634028046 5.7135142933120635 10.703408417636329 -0.20155983255679477 -0.11810336660335144 0.9564598890800498
Ni 7.150044750424209 2.6217584840554133 11.166278238988417 -1.2423071681320155 0.9775707029167356 -0.9862528040717659
Ni 5.887672510373061 0.6952791422101848 10.309060755660006 -0.08288645238258628 0.16478534404092265 0.4704532573632414
Ni 1.8726119481911692 1.2005006005193302 1.8588720832184868 -0.5105740366435272 0.6346004535995329 0.8084710477711753
Ni 1.1488046197651394 3.282213251181097 8.422277385539068 -0.24385962176627035 -1.00364400296502 0.06842451132098538
Ni 8.582314150423224 0.4083182963534252 2.3304121109736893 1.6438641167441754 -2.406977819426474 1.4253290897856228
Ni 3.6505085010638085 1.3178840928469475 9.296342852472149 0.2324866040426383 0.26752045571831995 -0.25825959924168423
Ni 8.997989811489257 3.5328433610378815 5.745840180750273 -0.17194792322763292 0.662669186811291 -0.020274176868003792
Ni 7.092561363740243 2.31571646090868 6.649398704401147 -1.0977101261135094 2.0257061034259114 1.5617903900708716
Ni 7.408261177316099 6.978539472973092 5.09623430125527 0.14622557876086428 -0.17742000208579767 -1.8800561946628587
Ni 0.8827547526964018 1.081481734459594 4.440353129333746 -0.22827359440255524 -0.06035279005644444 -0.4953258522352049
Ni 2.6841025648876204 4.332641055549685 1.8640180592288864 0.3852327575308398 -0.7995809443703972 0.3867206549302759
Ni 4.86435556831915 7.698830747875067 9.25190247984279 0.9417778615878426 1.1430949820062117 -0.3578672210336934
Ni 7.442213353076804 4.094085455081709 1.6191462819910838 -0.8721981536164914 -1.6040593260424116 0.38916474559539427
Ni 0.8903964907302067 0.3440317549438465 13.22070286184786 -1.6305548012297786 0.7167626262215849 -0.9495181676548936
Ni -0.2974817502000554 8.557220249044828 8.340976597528721 0.05217436801071015 -0.1489710027164854 0.3650740231947777
Ni 1.0426143520929108 3.041577091909481 3.388992253396888 -1.956567339646721 0.7941983399022452 -1.5257982882469787
P 7.098557734091345 7.545741595729528 9.645147173090892 1.39382382008849 0.30668067085754924 -1.1998070899862756
Ni 2.734553844523476 6.883297123896434 5.223331005010711 0.22219293542611415 0.41007758448866144 -0.519531502947131
P 1.8990868318322434 4.424748938306449 4.64489386471462 0.9970226409937604 0.9872095115580806 0.8697728320044505
Ni 8.036617192244146 9.043680336482725 11.408504344944037 0.6239864255291124 0.14362722190606877 -0.9947202181128287
P 5.822230304859453 4.960869874743011 11.746577888257196 -0.48520136220669335 -0.4712040194863369 0.15600811206892487
P 5.1287228175257304 2.9642965976572584 2.727911501548188 0.15983905577924085 0.10344756436338959 -0.21614390101855677
P 2.3796414030152677 5.834595547356194 0.4467323167799267 0.036148424896099034 0.9230967402385715 -0.7455453547812322
Ni 3.042076789438739 0.6725638010710587 5.63279860568143 0.4870852094929675 -0.7969597046974662 -0.11347640935430134
