# total energy = -381172.9781958472 ev
CRYSTAL
PRIMVEC
9.15343108156606 0.00000000000000 0.00000000000000
0.00000000000000 9.15343108156606 0.00000000000000
0.00000000000000 0.00000000000000 13.39697163086528
PRIMCOORD
 96 1
Ni 3.554359684619513 5.399691398330227 3.5165843897320492 -0.300467857178618 -0.32481234746125354 -0.7539993990858563
Ni 7.519607738766607 4.387450064538496 12.821397699214074 0.12330882206369087 -0.43562149439603687 2.8090916689833683
Ni 2.600343326179537 0.029940873192201126 12.029019950228834 -1.5948339507894018 0.14912346913394964 -0.8967825278240749
Ni 0.26122244797727734 3.6291615237288575 4.937199645522808 0.406997402901441 -0.41515551323220107 0.10429782817882682
Ni 1.689741691539808 8.035037445111103 9.932112589597784 0.8118692748194468 -0.21462026528517877 0.3119753435975853
Ni 8.63801972011454 6.643322317394246 12.338624689074964 0.2535118001440537 -0.5139591510656761 0.0696864087525445
Ni 0.6435319748632529 6.111983947763892 6.223349167480466 0.3688160067357132 0.805747221082109 -0.4523028117064598
Ni 4.772928509278076 5.196613375510853 10.21421309861575 -1.0637466246838712 1.0503545196476813 0.08438951929067402
Ni 2.8629461115696495 2.865051400727156 3.21998850719309 0.055696008010723434 -0.2536084736229181 1.432708155858513
Ni 9.117339140692227 5.92924484889226 4.038061768017262 -1.409002070490825 1.2173294151407552 0.09089209629588217
Ni 2.553386224536005 7.512129385541896 7.351051881414791 0.33728785422044494 -1.4463774258154898 0.12240225108902145
Ni 1.323879049689524 5.176896884879241 10.508463872101869 0.050705753884983634 -0.46511590431072797 0.13991583449275258
Ni 3.223316694748175 4.611965423039966 12.14077785214044 -1.3471220451565766 -0.9034172595317732 -1.0379054952510511
Ni 7.778942749247023 3.97849306897715 3.121828942552758 0.7328675022032476 0.0024949985077118322 -1.1638921212572213
Ni 8.214636917108711 0.35198054821430347 9.814434248438026 1.1391390826822574 -0.09584018432977687 0.7101646612890932
Ni 1.054932936533531 4.359220882965659 2.7905891539123484 0.11837718909002838 1.1793845604658655 -1.0010677575974114
Ni 6.555513452663954 0.9554900608502314 5.438071735014697 0.6032877595291803 -0.000509849756882993 2.2788332665370366
Ni 6.240461506958551 6.636173487689841 11.526191772506689 0.9999495848325682 -0.7638027583295233 1.7247993589376616
Ni 0.3723231335344954 8.105976536287978 8.162386386248716 -1.6116757049370891 1.0989362852111266 -2.2271970304179836
Ni 8.664344988014502 2.1061404266013857 11.842895912529176 -1.211538519490591 1.1288415574109913 -0.8029640019100172
Ni 5.336972088298751 3.3801149698268684 8.99771386473333 -0.1331314645810675 -0.04757492156548581 -2.328696469916067
Ni 4.750969428022163 2.0915315505345093 4.7011180114586155 -0.6186297892028894 0.1891912836891129 2.9291367326941233
Ni 8.688867029983902 3.3450573286388128 9.60276206914046 0.7519566576242146 -0.0642392695950442 -0.437423323491466
Ni 7.575315520560473 7.535662856950379 2.818361579272317 -0.5515234824726953 -0.1304099518848464 0.8410150431454678
P 5.75375526746735 6.459292584734753 3.7239700172363057 -0.6256008212040839 -0.2868224984810415 0.8694211050919866
Ni 4.190889284676274 1.8797943818759963 7.465864283291006 0.5899313928269324 0.4181845298665121 -0.2639491934272938
P 2.0456728606253294 2.3835717704052457 12.091865577609763 0.18749307005108354 0.495017834076483 -0.12935194293397723
Ni 4.903062839505384 8.351425791759965 13.245157623582033 1.2214742905470641 1.6241735802937833 -1.3632911987172716
P 1.4904257289105878 3.3614053566184126 8.112188054645735 -2.146933103259909 -0.946253380860693 -0.25627625026306833
P 8.291736267429075 0.23304635630493448 1.7077785275609736 0.01902616339351562 1.1829982459590531 0.14521616365974346
P 8.639749718596144 5.7245100550402395 1.2799160353652126 0.1546009473087531 -0.15340461300780675 0.07233258812613994
Ni 7.157131866430573 1.4207040440726189 3.2889431345032363 0.5813577922253085 0.6220156749559868 -0.8190488232870217
Ni 6.701034700603304 5.647712767946822 5.7482256797280025 -0.44159673814286526 -0.46475106477214145 -3.3310852603177468
Ni 5.9554419687565465 7.371853053634075 9.395148521201326 0.47437881766989265 1.157137061921575 -0.4227371822342009
Ni 1.8286083950552112 3.0646419662899644 1.006029815433973 1.9588857033672524 0.24509169440115855 -2.22997665004565
Ni 4.53582718298716 4.205232711240682 5.7321623234562225 -0.3314427082935775 0.1323490778890882 0.9311147254470415
Ni 0.7801753099597059 5.800428612746175 8.418442637702093 0.10006656370629863 -0.6137927728255622 0.3851785072541366
Ni 0.017535227995811586 1.3644379029804574 7.488800035647379 1.459912484187447 -0.1434690990616497 -0.10897157950541234
Ni 6.31066832364586 5.507170986536534 1.855895688565841 -0.4834771804267351 -1.2336926869901268 0.18349731862812912
Ni 8.382263701201888 6.969788591705786 9.983517343422328 0.08037268482179706 -0.0059089092852672425 -0.17359831434686232
Ni 6.1798291792223425 0.7874998855416071 8.83204774558597 -1.243568294232626 -1.9842596633556666 -1.435854414796979
Ni 6.200305404636881 0.7302561580058727 1.2417562963707256 0.7591205223625055 -1.7936090215122078 -0.6433216355226146
Ni 7.262304789994741 9.016349335149716 12.268692475321245 0.5561093020711648 -0.24939957774789304 -0.516154358944782
Ni 4.871172285484708 7.695765520663247 2.027430987747085 -0.376993400340183 -0.35009631883902287 0.6518962645655031
Ni 3.4133327713598853 0.5983497235138111 9.81507681930262 1.6951931060354546 0.18536985306049367 0.21622411943718892
Ni 3.99938119879207 7.421125973350865 11.215851097798542 -0.30676937391661363 -0.3725631324829713 -1.907103171478322
Ni 9.076176160947401 1.2169852810748725 4.9154163101443915 -0.4654761158636242 1.1504953882353413 0.5958757833358254
Ni 0.6970978537751333 1.1653416226981075 0.03133219472237984 1.0513127697958926 -1.1874704227977937 0.9409360824128375
Ni 5.401622772296462 3.882629184861613 3.5310934933997213 0.3671586736379483 0.8315235587152647 -0.5321054829573997
Ni 2.484579882809996 5.41233228670639 0.8427335196034781 1.3905996567242374 -0.03679505734116244 1.1290238486251265
Ni 7.121900310051245 5.050661916308882 9.156910338765357 -1.1436598533707465 1.0040808333921223 -1.0790457169347867
Ni 0.8312349794310406 4.639965768834813 12.808268932959237 -1.1670095838402805 -1.0789593278685676 0.16818408530982648
Ni 2.602219779559054 0.5487774865994107 1.999779387677895 -1.731386011016244 -0.09958602452545431 1.626468289865231
Ni 7.293463069525848 2.4692661925469106 7.730039628147465 -2.343391095813764 -0.6195481872521007 0.028000856088300163
Ni 5.893994985650694 7.864051351797034 6.110412303640657 0.8554229910406816 0.02100565571738963 1.5683765279288215
Ni 4.874037309425142 6.285789297862796 7.656168692982982 0.4239965085625988 -1.2819119270078307 0.8248533457839408
P 1.8936343697288267 5.0385153132131775 4.9126428205151536 1.2097310339682068 -0.2639139693139842 -0.4704969661169832
Ni 4.616002086163708 1.2349626197937609 2.7990560776979754 0.2553244278727603 -0.5918427509170323 -2.041342267301271
P 3.9725524921805317 3.8318551024412097 1.6896391731112685 0.2213940936739026 0.4301298751538463 -0.4612307103237089
Ni 2.4096865093894553 2.302170307458671 5.879702818300554 -0.3783758825100064 0.8608315636507626 0.22515124672348963
P 7.503653308325149 -0.07313774533180233 7.06008352832816 0.49570174751738494 0.09521694892348116 2.0138216932834996
P 0.35344143582099113 8.469505053202765 11.52227959604617 -0.7226591942116779 0.8351418721941423 0.912418434589119
P 7.99444197809569 4.882028254792551 10.999731266319966 1.9144824946615289 0.9419218433648747 -1.0420894514254115
Ni 3.099187015335323 3.019405709696917 9.457190477329952 -0.6892433377553936 0.07240612167655272 -0.19573962633059191
Ni 5.342207850899159 4.379276050548696 12.902154760609829 -0.7753169296167098 0.5940024775725125 0.5432614995742192
Ni 2.993895097166601 7.818888322652944 3.82667059905507 0.8081319192642017 1.9386521499291967 -0.022405107168077542
Ni 4.098769153888652 6.672036630816421 5.54791382379297 -1.0092646915859071 -0.697775800706437 -1.0271050622014375
Ni 7.128957605444454 3.1061893901418145 5.125855522270145 -0.47658148174816634 0.7694897814119714 1.3314977083557586
Ni 1.1638221531322546 1.7596739052935275 10.075058977363192 0.6970193821563866 -0.9043860512029457 -0.05310536446541176
Ni 3.6989472825846637 9.25256277862203 5.602211977194418 -0.3401304658755626 0.020415844652190648 0.6038937685442953
Ni 2.9865540454086843 4.8153088953618095 7.799461995787824 0.4388078625438185 0.3262598785410575 -0.5143389030025981
Ni 2.003457236301749 6.721776375520311 12.189288291044965 -1.2966404914672571 0.20528047594149165 -0.55793529953631
Ni 6.593472731516922 2.1914229443426696 10.340640289239623 2.4417676734121496 0.5776291784208116 2.158987206210966
Ni 8.16994071295172 2.7397592355621154 0.9070006748372792 1.1492746284543627 -0.7715412646243616 -0.2684005443304281
Ni 8.580215802594287 4.166403856431353 7.125956195380338 0.9565390790574172 0.6794080968325267 -0.18300186704894933
Ni 7.771409475435595 6.581637345079283 7.356826781108144 0.20757389996135864 1.5521634085040688 2.204160974534126
Ni 4.621045626710607 2.9162648478413007 11.06328628461266 -1.4079831423080071 -0.24663821295267196 1.8243324187379937
Ni 1.635306236671566 6.730746738017515 2.5951002408342316 -1.3499705703489653 -0.9112074450001533 -1.469198023254431
Ni 0.445455386807626 8.564883805468963 3.4258070672896714 0.4312434199329993 0.4960994971764359 -1.5481578868891013
Ni 0.62021360908608 2.1442278534900283 2.5203450842235964 -1.6930549766465293 -2.737883424269659 2.3279914734292424
Ni 5.849280474631463 1.7980633954091165 12.577157611992986 0.7054212330668367 -0.14189969769200078 0.5040439488344933
Ni 2.249281782449641 0.5718185034136598 7.787070080738112 -0.23052485233057718 0.6112175558992183 0.00547387863037767
Ni 3.6004105965822046 1.2884003506699668 0.12411777995239669 0.9723043123114739 1.6972505027851155 0.2778442062418312
Ni 4.616789281239994 8.666560118345444 7.7736328438545454 -1.0868988944306186 0.29886837390198207 0.46778419517151054
Ni 8.074085982267302 8.022561318495091 5.254935377232476 -0.33024226022757325 -0.7211838952177321 -0.6046954385099844
Ni 9.648174071611004 8.039348711168431 0.711952957139127 -1.6024878677902337 -0.9920336724196012 0.281065027171974
Ni 1.0763519653533875 8.428159004835544 5.641304450819993 2.056895384544522 0.09842182901402403 1.3142643751966077
Ni 5.587629646077789 8.660326631752998 4.1173048519058355 -0.8103821487509593 -0.544800819036881 -2.478102246177126
P 4.231448137967208 6.377552444836753 -0.24538518145415095 0.15217742546892501 -1.0809262217869513 0.1510484540708044
Ni 2.682953042033898 7.88661455950684 0.5971963911927419 1.905139105773416 -0.14309011845567615 1.4032661964483124
P 6.203463338373141 4.330524876405724 7.275091217925706 -0.45417046104281783 -0.8118417640156211 -0.7861844684588332
Ni 6.031287299013526 3.0372365935178918 1.4001710673851395 -1.5152346537985195 0.22769946706664013 -0.06469024108953375
P 3.0911869165367953 6.495109960705736 9.26562655551592 0.44405676964758367 -0.7369972081009049 0.2102308779682315
P 5.429284441139883 -0.13524560616449052 10.911056487005759 0.6197417913201455 0.8554772413173847 -0.02227243824495519
P 2.0172972241545795 0.8603932342625163 4.309309969099834 0.20292148879101182 -0.27845818567674624 -1.0072142368147814
Ni 7.05572100305656 7.194139188447103 0.6296178442183538 -0.14769573554848756 1.4789473893317109 -1.614637101558258
