# total energy = -340886.9367396999 ev
CRYSTAL
PRIMVEC
9.14296035030582 0.00000000000000 0.00000000000000
0.00000000000000 9.14296035030582 0.00000000000000
0.00000000000000 0.00000000000000 13.38164665726684
PRIMCOORD
 96 1
Ni 6.2891589518424595 2.029398894888137 11.293092889991035 0.8596403715561389 0.44792422302278984 1.207197983133708
Ni 4.944915215179464 0.5130124161777542 5.909576155251434 -1.9651062303556674 -0.6244175995292601 0.19720566935315714
Ni 2.7514367549238457 1.8705216739257642 4.486651759515308 0.6675535114867859 -0.6695787694469307 0.4386924200118767
Ni 3.8621784287360583 4.487657485147228 4.788768996455767 -1.0466462175581586 0.2970040669997337 0.13962504272521115
Ni 3.9139550128593203 2.6109825989461757 2.2771146038060253 -0.724030877748224 -0.21048001786456008 -0.07188290218323105
Ni 5.146864922068852 4.65483651405308 2.337773573851192 0.006780513256943161 0.06565183367185468 0.18137847251291345
Ni 4.926729867162306 4.583228849060427 11.168429540730527 0.76180064029783 0.05200596075364592 0.8480853197286877
Ni 6.102724848565499 8.163877244541414 12.1362036587813 -0.7228376287710713 0.5348251958814079 0.9095940777664463
Ni 2.064937581536048 6.359486602394487 0.4544032978296447 -1.0391895041697974 0.5233837868136857 -1.5828580093744482
Ni 2.6207381375757923 1.7737891540557116 13.482811764975333 0.39859015267435227 -0.647821323165181 0.6018163171899764
Ni 7.852422302256599 8.932260770288021 7.2818238649872065 0.689429999844903 1.6185366937229804 -0.11715308687494017
Ni 8.834440238143436 2.662283749134348 1.4833822206549088 0.044839267801877615 0.1485807092566022 0.17560146081982014
Ni 7.014817424153077 0.98371852650081 4.811638283029582 0.6314143425620674 -0.207674687205281 -0.4132567535475915
Ni 0.8617432075656132 7.70522978454507 2.8925236037535953 0.8427579939785034 0.061338808118797584 -0.8668286617744619
Ni 7.68431983436144 4.205615446115906 3.766304432837253 0.5982712801511955 -0.8291663713369978 -0.596065016528496
Ni 7.952601718156048 3.9323689348837325 12.904617356296862 -0.8835958539304718 -0.5775175925436118 -1.8105037403850173
Ni 8.94268374501882 7.37314832384562 9.154772080573983 -2.0899140055623877 -0.11876414011580191 0.6229111901870628
Ni 6.987223969997329 1.2198629048754528 0.14804921309071845 -0.0052987865050941 -1.3108854314220457 0.09760447531905125
Ni 2.4003562227414115 6.753237330251168 9.093725449012513 -1.2130742394088267 -1.322229138569639 0.24156234109166144
Ni 0.11604062341084441 5.121941212317835 1.0666552335890176 0.13582572358377898 0.44841864616070515 1.169617967997405
Ni 6.364176941023346 2.273497648715232 6.818163319863759 0.7237897082716954 -0.3820929263502775 1.67552930905794
Ni 3.556529266235504 4.203366277884522 0.11677388882611646 -1.429986386051976 1.7095264919389912 0.2287227661248319
Ni 6.218547869521438 5.877433164055295 4.630197150367087 -0.7974338161204072 -0.545296527726377 0.4175651511149583
Ni 5.109982220258286 2.84408237154419 9.423154536931783 0.3424735121864424 0.40301450699429303 -1.3041242014388121
P 0.3429112971631624 5.932226925074314 11.977657412981431 0.19768852252684663 -1.77394676719659 1.8128092485897425
P 4.148535945024343 6.211288359051038 12.687781081463012 0.008281009061869609 0.4009663662160127 -0.683677670742158
P 2.423506198196135 8.482481981773146 1.3438652181069817 -0.9238127924689896 0.5231634432727634 0.30352978393339336
P 6.477028499884978 8.140818698689593 5.795136464187399 0.3982772494196238 -1.3974573030760191 -0.15402039221493471
P 4.639394054122973 1.1070479178549821 12.624405737915636 1.2710346179736949 -0.2622288683020774 0.7018908513160751
P 4.168696172464179 6.166570140271792 8.025133736434036 1.487343069594574 1.9327918344936776 0.4916504602661468
P 4.950117559584575 1.100355270922574 3.524912909552079 0.18779028957652819 -0.09355730183287113 -0.43861888646146396
P 0.36248180366428223 5.674093727201799 3.4933459248542205 0.6650641694060287 -0.07016977614686624 0.4966854515868929
Ni 0.5537022466531495 9.296470593447147 4.731710524172872 -0.13530276120077345 -0.17604626166672263 -1.1472647971131855
Ni 1.9977276804429704 6.512164896280121 4.947141526010123 -0.13272368761968753 -0.022114829621168366 -1.4555624347488676
Ni 6.147653355431419 5.5927488095001126 9.244429777771499 0.005170745567662063 1.2300751448421976 -0.3052331397777453
Ni 8.786192836692184 2.282229175792349 10.483248782216572 -0.41335085592329457 2.0043350939493028 -1.0653687336683266
Ni 2.5844222993032164 5.242683145909888 6.97609333014007 -1.194409316009472 0.8176527142704434 -0.792256642794842
Ni 0.7322112319505862 0.260651169136428 8.98526708257031 -0.013463838814389716 0.9356678920353627 -0.04348712464935736
Ni 1.3268263973102112 0.9662280434657051 11.41532055463024 1.8210730312604317 0.3606195869678499 -0.2280905318574717
Ni 4.0090966576388825 7.037793683362288 1.4541832626722055 1.5747047841396944 -0.9789832669935463 0.5789211577593578
Ni 5.678628635505727 7.88532781634094 7.860940798358955 -0.9457101067627133 0.24606511405802137 1.1566087002219305
Ni 5.294203727145025 2.735390859614588 4.814783461369403 0.2531006807485641 0.8668276333331973 -0.6495912705814102
Ni 0.6910313388036377 7.758743531123465 6.560968189717017 0.8148029035264742 0.18308774189453628 1.348679619451684
Ni 5.20152153868352 4.436027188388609 7.450820514398745 0.7700358837234287 -0.4943213222300906 -1.8482292799602493
Ni 1.079628179944747 7.656278375151473 11.110152311840949 -0.11052221182198385 0.4759147946984449 0.9263250173678821
Ni 4.72850134511102 0.4094464477868247 10.388974804368546 -0.30009967520592185 -0.7494966261194963 -0.273694959960148
Ni 8.307540579580936 7.056756183004111 4.940343735034378 0.5991482834395101 1.0053856682464748 -1.491908063257437
Ni 7.607345251678455 6.624120445033315 7.065643140406161 -0.8060927773469859 -2.1803548732534646 0.759461193531376
Ni 2.432457156320216 5.148940374054722 2.6527110697105343 0.024404139875977327 0.4604097570843103 -0.2670954523657593
Ni 2.6522904935371865 5.4443311351096995 11.22198260203817 -1.0694120504997648 -0.006071660115376639 0.676961177953931
Ni 1.0862933979962848 3.5671533860926883 3.9752722760453794 -0.5747608557340811 -0.4807641523709462 -1.9640487356254304
Ni 1.3966511850462786 1.1110708203826591 2.187337133828709 1.381955350785678 0.6513429631651944 1.5892508002746695
Ni 1.4138216644712274 3.254180712399704 8.080386474059623 -1.3773240226612538 0.27585340106404754 -0.3352587396055581
Ni 3.751630895867551 2.6038419469595486 7.032456937440912 -0.26949891960092937 0.013171504384951509 -0.6563486439099018
Ni 4.220399612905119 6.986940538228334 5.587479721484884 0.8847749618402375 0.9469074695049241 1.0949392482365916
Ni 0.5338830516321369 9.199372355165487 13.606190528315073 0.6401301251685104 0.19879358266556732 0.12107864718159148
P 0.41238773811217405 5.941708174895225 7.766787507586761 0.9331831779402961 -1.1638584398058083 -0.13039735347935605
P 8.851565002766936 1.8077461085734219 7.821277722324147 -1.3127487098830295 -1.04238178585485 2.1805808732213414
P 1.8086146898009885 3.2569693152882073 10.406211113107585 -0.06506536504076536 0.12225904064293783 0.12334378906668435
P 4.219540174637842 6.250292227648925 3.4962360146019447 0.2501256572806402 0.4698148524482941 0.984877263880478
P 7.042447450149987 3.904674908164792 10.323431664936368 -0.02542589627227234 0.06262076015501472 0.19673335770242892
P 6.859423671061262 7.994705050292305 10.10924501999461 -0.39453449454773987 -0.38770178789662263 -0.8333528986145197
P 2.562406050924475 8.58393226915293 5.6458639230098555 -0.21434464302628894 0.38056697662405425 -0.5523963719959518
P 7.06301911080288 4.449549626657777 1.4540900044772456 0.6245111876843309 -0.5097507694112834 0.20217432621234213
Ni 5.386492768314052 3.1655031405452956 0.19088123916210176 2.3412987320611096 -1.2820415106071599 -0.20575638713664565
Ni 1.5004969280220877 1.1398437164158404 6.626671330954274 0.8593968880867651 0.6569181432601268 1.0159500740258827
Ni 6.958972222700687 1.1520129965620634 9.065556902654512 0.025066198940008444 -0.6140717375185618 0.2646966131162796
Ni 2.8142123202761877 1.6556803930272295 9.137135310174235 0.3229968915190696 -0.7260029138729304 0.4949378727681669
Ni 6.5918457952089975 2.248016218386514 2.2553022434417547 -0.8345137516918403 0.34827752046272925 1.2249301103061485
Ni 4.556622834616018 7.061245376506586 10.516448699622254 -0.2534521505507119 0.025709231840646045 -0.12105653569440442
Ni 8.245368449607746 7.469094549130717 -0.15947974204549537 -0.16146193609464451 -0.9050275414416864 0.2724469464856598
Ni 7.883325508037392 4.1240968121687045 8.18280957241428 0.1508381378322112 -0.5397583715169672 -0.6194170609908752
Ni 3.1454251997480713 8.515341781056035 12.605684612425472 0.5424657431458012 -0.43019543828445916 -0.33166125206228686
Ni 0.4982456210130924 5.091641441916195 9.781461664927571 0.18151988318678416 -0.8050157422327232 0.9910990764204738
Ni 8.77348412188884 2.6600528668235452 5.975748330351576 -0.14188864194840725 0.38473344929691805 -1.4965584175452549
Ni 3.6889376171578205 2.4937881339467114 11.356708693394044 -0.8430354160096062 1.0058299548727452 0.01967845226553385
Ni 1.3527924045343087 3.7870598669919797 12.757071920318133 -1.3413206079834512 0.1997621172264237 -1.8343602352876407
Ni 3.048619536195697 8.569824681425189 7.826349322397107 1.1093142860113412 0.7908625906607928 -1.110144238111804
Ni 6.1944744550774065 8.12447108569076 3.6297854069684745 -1.2602904920833133 0.4681647184393808 -0.8655533946064642
Ni 3.480011831567029 8.60748453486042 3.5853981633517327 -0.37487352578370275 -0.44813016838600883 -0.27578732371280246
Ni 3.244836606983145 4.418134415100736 9.041777891531826 0.7278026860858304 -0.9731733451799887 1.4346423967667485
Ni 7.401601216268645 6.004410596565246 11.297910315767927 0.3617372455120609 -0.1308534671801682 -0.5590401025647147
Ni 8.312176060448055 0.27942623809230255 2.4232017376184722 -1.1301070543869762 -0.853750231323949 -0.18682381189820083
Ni 4.734535698902536 0.11367168239966004 1.2592004915239312 0.3598569977702125 1.4767352121717405 0.12800956997346985
Ni 6.249780221872675 5.939257861537459 -0.02918707213432599 -0.7583818444242681 -0.29500709117436286 1.0857920345196848
Ni 8.21644926620992 9.240881394882882 11.456080785899868 -0.44699502634030114 -0.5005639607056929 -0.5453281522952609
Ni 9.40326036963639 4.96608116825122 5.7659109916198545 -0.84369464686016 0.9545503307621626 0.6550659205427363
Ni 7.787516427156646 6.563575761991776 2.600013789486052 -1.033923884895484 -0.36319557522514223 -1.2590486492564121
P 8.720555524769015 1.8814932262739743 3.832771011258739 0.13415424941862703 0.6427271964717254 -1.2048796194131766
P 1.818818233484824 3.440340526867959 1.4582646801457395 0.5475323590354312 -0.8681383817248209 0.701470733059521
P 4.808520533570633 0.9620954254145461 8.177042193063238 0.5102711606911275 0.528265026165387 -0.4994239335639786
P 8.900690128406046 1.8823435215809607 12.67977916261705 -0.20349407346503018 0.3696055925165441 0.033538498077077726
P 6.689364609664004 8.163886387501705 1.372140737100377 0.44245240127494123 -0.01997952844572043 -0.9671124836978893
P 1.9429247764636608 3.5215391572050043 5.909388724565485 1.3002528914088638 -1.8274197994140657 -0.299224214579504
P 7.017249451590264 4.1397769890663545 5.932110809478629 -0.6868941207969266 0.9384559963034611 0.13575064737146944
P 2.595092133961851 8.657624529091741 10.002138897379323 1.0973198326536262 1.1523545529312669 1.1025309445409204
