# total energy = -381167.2276077003 ev
CRYSTAL
PRIMVEC
9.25337386865445 0.00000000000000 0.00000000000000
0.00000000000000 9.25337386865445 0.00000000000000
0.00000000000000 0.00000000000000 13.54324800214446
PRIMCOORD
 96 1
Ni 0.326523795771427 7.5638926839765315 13.037597241117302 0.34803403699335544 0.47702319727127523 0.7540551920244561
Ni 2.503500239350457 3.6952514843187982 2.1599446840501133 -1.9672011652114831 2.337319178588071 -0.8903174889250215
Ni 1.5195705130499109 3.040825140103007 13.41495259432663 0.3656118979761187 -0.35694805165353366 -0.017423080572453863
Ni 3.304259434370492 3.478296885864498 4.709352760722564 -0.30332152457732925 0.8575485220241167 2.0564922355688324
Ni 3.503567849285922 7.789869321733609 5.590558010190358 -0.4862778831003238 -0.9782435606140442 0.1571589378439164
Ni 8.085301782061615 2.3243271654841 3.255607046425725 -0.6430457561534088 1.9002529813257083 -0.12981782682680224
Ni 9.239521343530399 4.599565183787441 7.063047358140231 0.9577989196064473 2.5836604291256147 0.9544089200882917
Ni 5.507857833922951 0.8584123395082001 11.280835001453937 -0.1129570465157216 0.2690068104558593 -0.6635438761067606
Ni 3.196152270089097 1.6420944334684633 11.496619048142287 -0.7056048098325525 1.7330739402416282 -2.1228616641330023
Ni 0.4856771957592599 0.5233245464293664 7.746737496504778 -2.0236728750459663 0.07641627127721033 -0.47723222795828774
Ni 1.9102664550416129 8.933947185688705 9.884593452329597 -0.8658837813626895 1.2404030091307672 -3.117552314559476
Ni 0.9086266969240537 0.8145319163515791 11.902131492012561 0.4846948548839201 0.11267525360924466 -1.1214501500429266
Ni 5.311825113277454 2.051361896363423 1.2227195105422985 0.32567675234407784 -1.3462085322033719 -0.7896891391779819
Ni 3.1314434281974775 0.6833292567924358 13.426585935671712 -0.6211646398096012 0.06098836675791432 0.062346166337389396
Ni 7.605440331637531 6.307108729039035 6.7709738724449515 -0.5040825153819125 0.885875651103584 -0.15377896562809001
Ni 1.8835242052108134 7.2986262217275595 11.386946213040348 -0.573567092536296 -1.986101601660412 -0.9802652190297634
Ni 1.0705227968599311 1.8284203651615358 3.0915845212264847 0.7707125980754792 -0.29822662655292514 -0.9619684776031047
Ni 0.07536225096781345 7.806812248875545 6.112176234519794 0.17869064126810513 0.11345764030122395 0.4723201353686511
Ni 3.3513961197123927 6.656136729512366 8.432689159387888 0.4863593870705365 -0.51620629522864 0.16355198585445382
Ni 0.4729676870593972 5.160847068903985 11.927510719905618 0.7733330664174617 -0.34048527811182006 -1.264662395898764
Ni 3.4912978758341433 2.0862748751217643 3.0320214804182237 2.293852365653688 -3.9057350443952608 -0.38616632508870263
Ni 8.392578560653781 2.8333645030073233 8.131392836181758 -1.655390115105904 -1.4412128508954147 1.1368196905204615
Ni 2.5906577657021184 4.298580699273111 7.721804281221356 -2.037946868466477 3.1796611680750786 -2.7952113114568506
Ni 4.58719342322558 8.89964492959086 9.206997585846906 -0.20824752898961557 -0.49144914288861813 0.15006166467750284
P 1.1388867213408818 3.432529699821891 4.45610735617435 0.31971770654716547 -0.06915084796404863 -0.05751712037986223
Ni 8.817465718259603 9.102099491545207 9.741644560266916 -0.35921807863463295 -0.5673249682813262 1.6771185079219308
P 7.342672280272406 1.3529542672182926 9.626743569056192 -0.5964856490056824 0.11977355521692273 -0.1858457642556477
Ni 5.014541978220673 5.483206846535667 12.760786269910232 1.4074393539893955 -0.10403017633973698 0.514616582144017
P 4.6512730357094165 3.301224327815301 6.659187566802752 -0.4109630724174083 0.5880172065233551 0.48156736499853187
P 1.021720504262133 0.7564910555077359 0.44418229232802997 -1.3180577808007687 0.6168744970746796 0.7625449746630222
P 5.745539989339532 3.195772881769698 3.045497168455799 0.49400096277619443 0.8483833105850809 -0.3384623341445203
Ni 3.617088237148984 2.8902357374225804 8.792045775522514 0.16752125491484698 -3.873899645052219 2.664347559864037
Ni 7.643804818765038 5.218615880562698 8.990346498048124 -0.7773383309221129 0.9309118654076162 -1.496356585947094
Ni 0.34795460913064213 4.379103556722113 9.539498135654913 1.5163641394172724 0.72960117274715 -0.9961093851508714
Ni 1.1227858512005386 2.6527386494788776 6.929741406751835 1.0394417293899196 -1.0320955734374935 -1.369568547085551
Ni 8.476812020933979 3.175248899027583 5.461612248462956 -0.4974655242860271 -0.3753059853354311 -0.4228893915413491
Ni 8.485223337576262 5.172099171254938 2.614781310791701 0.08592421076764557 -0.33154400975813225 0.444971311042053
Ni 7.4232784180842035 3.4210740232507737 1.136091277163067 -0.7107009934085373 0.5599425597743259 1.0566789192038124
Ni 6.143805190971924 5.948799594800896 1.8765388334470519 1.079045974045103 -0.47242529348794765 1.174036923000707
Ni 6.352144898563775 5.233023383326211 10.847193227043647 -0.5201359693003494 0.3606344993661853 0.853786226768207
Ni 2.1343646579489843 8.286266550859299 7.455124828816964 1.0424807733265595 1.46191794465325 -0.914866124798663
Ni 1.473044550368506 8.238917037923589 4.150355533558694 -0.4708507499119762 -0.6181106834746257 -0.19207991809081756
Ni 1.0739650518554527 2.0659267064788827 9.545647002441267 0.7736724520347514 -0.8315184165089422 -0.9615074788062861
Ni 5.68529127354426 7.105952475714788 4.93645923540156 0.949872465670519 0.48937734796125393 -0.8321632491817926
Ni 4.833990151681378 4.737366424092032 8.6308677373814 1.6152515952138053 1.7479308027488025 0.20701597057535961
Ni 7.610039258338538 1.077583120950208 6.450771056209656 -0.3538359883871132 0.04531132234228971 -0.1922735221588624
Ni 4.943411295020203 4.96943178170678 3.9871047397213535 0.6202716956816866 0.3108314598011292 -1.3937076062255997
Ni 4.791193298578454 7.363381330487398 0.5290274006060868 4.072306533802329 -1.7003250279453814 -1.4091645642106183
Ni 6.2686887216696645 2.6923153285537325 12.5725624712828 -0.9404622281002126 0.2848795158220577 -0.30831537824749483
Ni 7.303132614692126 5.332941311932776 4.5888044355769795 -1.1895090504943773 -1.2749902601873333 0.5295796312117526
Ni 2.5455198090672946 4.781421736010523 10.010112689796673 1.153426188728891 0.49757068240532365 1.413194511305618
Ni 8.40879047127785 2.421728176459531 12.76945390500245 2.6605670097756824 -0.1836058191815354 0.6733179247743888
Ni 7.263778016584724 7.02510575018825 13.688295401091978 0.4988302658440377 -1.2970531535246435 -2.387276484342805
Ni 8.457990658942336 6.797148890471381 11.097106491742702 -0.8902131021366734 0.9459271078695256 -1.2353214808428017
Ni 5.251280289525577 0.2671245396766628 5.798514628113353 0.07684076040913863 -0.5833131161794664 -0.8414287336441186
Ni -0.0067799468688674175 5.00403014576123 0.48129017131469864 -0.1259470310174863 0.34990425743287484 0.8746635844378484
P 0.8041190949901261 3.10752345732806 11.281172749591938 0.508054355545467 0.05122023162755695 1.559939967125694
Ni 5.964280488907099 2.3595917724409086 5.2085842981953725 0.0431654796438805 2.6001291162045996 0.7683117019434703
P 3.483423254863205 8.872097636253043 3.7677859043010433 0.7761340262013666 1.2557530092242761 -0.7986340070760956
Ni 0.3881281308055267 5.410012661012614 4.923241716488649 0.19478728971965165 0.3651812381966033 0.16613080232522354
P 7.235074051541424 4.665856352572164 12.880278785123052 0.5005230801654283 0.8872067112101817 0.03864290918317861
P 1.9962210428195704 6.223652552144924 6.621361626021319 -0.2943185497477705 -0.24434401760185662 -0.8144480912902167
P 7.238636600394315 8.79479495283211 4.880444863385725 0.012850373600106902 0.29258639754801224 0.1731951653711727
Ni 5.285656572612575 7.686490631384235 7.194538722957063 0.4682264249152517 -1.1609021853909622 1.4816732729033062
Ni 4.656084790004232 4.298821286987851 1.3999789867391024 -0.16432691634726537 1.100158330543686 1.6150042550896895
Ni 2.808426661037079 5.146458072887758 12.504995262272587 -0.9648622542111319 0.11647123031656716 0.045723984399676086
Ni 2.506618626268443 5.830837587588774 4.081041287604518 0.5531821011220409 -0.2869523391906864 0.38335122423741075
Ni 9.096371653259649 7.3682486050240765 1.7710096590628406 1.73887229209096 -0.45937077429683465 -0.6242486780515637
Ni 7.912309961789367 3.4390533282408233 10.751253323766583 0.5841867770336713 -0.1707050519594673 0.28646434381067437
Ni 6.206876185728578 7.892202380861226 11.520753697280242 -0.08672459518175386 -1.1400762497845462 0.29923449899214916
Ni 2.1156635898147123 6.2648578249811 1.686987175701724 -0.891066194165588 -0.7704012374826473 -0.16632672038611354
Ni 8.471935493023656 7.192739867120693 3.9172084565649774 -0.9168420175781113 0.4111013977674856 0.5877510973461619
Ni 5.316784921550571 1.6294080582027102 7.801750653492346 1.4218172199776222 -0.6980961601603333 -0.07070225161156855
Ni 5.918550316359068 3.025057391413843 9.906953304402656 -1.2593211861915083 -0.8827625593958991 -0.5678548726428673
Ni 6.047847706284937 1.1432265535798594 3.3729860910982827 -0.03850406961246917 -3.0763982089186697 -1.1128852911920513
Ni 0.7900002974843013 6.778179474501437 8.508504825664252 -1.0093634219473002 -0.8363099243603145 0.7214746869852736
Ni 2.087551840684619 8.877760700923096 1.8862354436884687 -1.4442493237288934 -0.5066441054615016 0.2986506014642212
Ni 7.984051367650332 0.10190000124108335 12.155822909170412 -0.6551168283853298 -0.2599159038981846 -0.12133575749772006
Ni 4.32009479299512 6.7143959699742055 10.727565612575626 -1.013935357588699 -0.062064373430912465 -0.026191313683387153
Ni 4.280462593678402 9.099823161628814 1.534382388241662 2.086154024299323 2.540968032463411 3.038193929934806
Ni 8.58297597675016 0.163714387856899 3.146922471628952 0.43864639726528976 -0.9217206858266513 0.7584564064159454
Ni 2.738702490630479 1.1455306436171842 5.1992661509359905 0.32146220004209797 -0.4687707274544959 0.6731353764499375
Ni 4.419596319787711 5.3690017090229585 6.193868718397383 -0.6477328772164328 1.0926329687009182 0.6269215968980365
Ni 7.044907969786142 8.21146227832221 1.9489002153421564 -2.8072618148634816 0.4056714850011659 1.5559529574534878
Ni 0.39360427732797204 0.8611874262639981 5.222682738279181 -0.4969070806793959 0.5217020282358886 0.37471771693212885
Ni 4.1238770048767455 3.2548834326067735 13.131140520620603 -2.125759297395771 -1.6788876840072116 0.36310327262165204
Ni 7.628721819725522 8.488674845945427 7.836678437648517 -0.903291018366554 -0.9877872384384213 0.6270606935790619
Ni 6.7653357918837385 4.169338829589105 6.89744065537316 -1.1345735747987622 -0.6554281889781616 -0.08184772670542678
P 2.4907675972164847 1.1811098652778846 7.843625870580339 1.4091352536345796 0.020659585231880547 0.25858355824000623
Ni 2.86251262998553 7.453388895921373 13.396411609556397 -2.171984389801582 0.5497661334619564 -0.5997486360276704
P 6.190951129687468 7.025179777177401 9.48436375947261 0.16473829285307112 0.2600740267426037 -1.1363373515674042
Ni 4.092600601960447 7.042576119627887 2.674344351599962 0.24772681803116042 -0.48317713268781304 1.50147128146584
P 4.1814329889416495 3.532345841318374 11.112614220632471 0.12411126336032817 1.426255458254634 -1.8663753547416566
P 3.4484269957420692 8.825997328759257 11.164322072554446 2.1897149743121256 -0.9169957695471562 1.5508284917427289
P 6.041185277261347 0.0958362654922519 13.33183786691998 0.11778557825261651 -0.1363006063376685 1.1491812974096078
Ni 7.875731375775128 0.8420856870509466 1.035966072986879 0.4366748753612157 1.1668337203840484 -0.7440795688689831
