# total energy = -340876.32266418 ev
CRYSTAL
PRIMVEC
9.18217853192226 0.00000000000000 0.00000000000000

0.00000000000000 9.18217853192226 0.00000000000000

0.00000000000000 0.00000000000000 13.43904643029604

PRIMCOORD
 96 1
Ni 2.343209357343599 2.769289994234457 5.060526383861967 1.4216526693753 0.2353654682523301 -0.09068075161602447
Ni 3.1389736897253275 6.298506277496011 10.251385530004232 -0.48237237739833055 -0.16019078269170478 -0.20825035720309296
Ni 5.24784466519509 9.185576077549037 7.1653498549733605 -0.8250482354035662 -0.33850141491257185 0.4250462899833518
Ni 0.6445577233276474 2.322365811759429 11.213755903289913 0.08754297731799117 -0.1114992310232725 0.7167860232603527
Ni 3.8522177823868193 4.981818584726113 6.530932929770453 -0.9817577444148898 -1.2006858930468032 0.5147222544839458
Ni 7.564058417244654 7.952666582977364 10.074191518874239 1.455673249295119 -0.5288586938853279 -0.32764030382835185
Ni 3.8816283006714434 0.1424431377300581 13.376192036257393 -0.04035937765365308 0.018527883600858417 0.9265397044818494
Ni 3.8064538038883593 4.39960418170608 12.039410063682917 1.2100395663475614 0.5445527075818171 0.2888904367536637
Ni 7.435186539590986 5.322229494612431 9.14279814355453 -0.6694070197557568 -0.6286072121305755 -0.10273074080202307
Ni 5.860360257830879 4.0627008640722515 0.42834404393336845 1.4007578282041617 -0.5222861828741329 0.12683406160812996
Ni 7.293101506829113 3.2601233551163147 3.944776898048542 -0.13826518626320705 1.051869670740627 -1.2353057971135177
Ni 0.5448438540451381 3.8028819363851687 3.6696797432700485 -0.030574273242431213 1.347582272622447 0.5260109400238876
Ni 2.793182023137546 2.6090426120604757 7.9242394760284505 1.4755085388534912 -0.1158626501982908 -0.7318871405678492
Ni 8.139909570445381 8.688388649026543 1.6740213579476793 -0.4804419931448371 0.2963057553811284 -1.3049533822083266
Ni 1.7908921280777752 7.425159600481772 7.115021415457327 0.18491991000726862 -1.4426359564951863 0.9099077523521234
Ni 6.5469393036305075 7.608812356089255 3.3889649315803676 -0.12958025689469943 -0.772475860623489 1.2936153314876881
Ni 7.075841977284157 8.73446482159983 5.762824401329236 -0.46141685819258593 -0.5037685836859195 -1.049177982841077
Ni 2.6781293243843947 2.6405742136182027 2.7361634482415007 0.9085923759748095 -1.0362229653423056 0.03024002983146405
Ni 4.405691966165244 9.191177206538615 4.9221986986124495 0.14557560388169125 -0.23933962240872975 0.6496753456547844
Ni 8.111720281924057 6.090291193942424 11.677093230140141 -1.2602874067595198 -0.8802575335858582 -0.22915831100035372
Ni 4.231129567442487 2.2729932370430923 0.6220154746892608 -1.5192080366239706 0.18160267270857755 -0.29480885912062776
Ni 1.2070892081475817 5.650896397977975 11.5143602321998 0.18733289032413544 -0.66740181640027 0.29138157860663366
Ni 5.738228099322048 6.488761019568259 5.748121896840525 -0.6114787799804049 0.36129090200326164 0.05794443772526795
Ni 0.8424410194401296 1.0190014602417925 8.103355317154374 0.47546870829996174 -2.5235655207162475 0.4556678715239508
P 5.856760843791674 5.604572306580558 12.409467473845712 -0.08455741232710598 0.7076938311510973 -0.698127784729217
P 1.7172694194901643 3.7252649800754813 12.76368103471094 1.918172027697974 0.7804568219464365 -0.9237870814373768
P 7.845942120279209 2.8851231781746804 1.2601217992823541 0.17868267084830516 0.024919388949499018 0.3416404747621858
P 4.332895653658063 1.8857807624684424 6.3054121940748 -1.0795152003720376 0.02192379665628482 -0.8390486634477162
P 5.878559335957674 8.69787383959414 0.6774436962394119 0.24154614314174527 0.4048803565584382 0.5958145910805868
P 2.480841033449822 7.4587204635258875 12.048306676597674 -1.2307541731870932 -0.3006632610188757 0.06678723282787853
P 4.801939704552591 3.525828059331791 2.2964243205768744 -0.528147012530284 0.26142822677765304 1.1312391111088906
P 5.92403866691732 4.608241645478552 7.509308758698323 -1.584901265056722 1.0950189524345917 0.8444017002295136
Ni 4.805291199767668 8.979316798052466 2.6469677646271266 1.228424496612652 0.38235646442430926 -1.4615929572136634
Ni 1.5459850585531114 5.731837302966725 0.6287203015551467 0.9466246481571826 0.01401174089805974 -0.47945134709679366
Ni 3.4199667214287524 4.5420932303294945 0.89282179737459 0.2063019752274705 -0.1564446853857112 0.6038004374995408
Ni 4.640737375796781 4.760408710421666 4.366816458106099 0.9304380110949911 -0.3623769359785888 -0.6223409195058895
Ni 8.695596659283622 8.627951549011119 3.7633499025510155 0.841535434425312 0.7236418698399215 2.3009131291552114
Ni 6.213699675286585 1.3139330391684645 12.791647196290546 0.14800966724448059 0.34891721092925715 0.29083110541980234
Ni 6.129407275082761 7.785624388586516 12.031171812978899 1.1235129461092264 0.643080466046086 1.130536428614911
Ni 1.6412317979119648 8.161377504179208 0.670617664615063 -0.4314658203564505 -0.19181200914141158 -1.040880261608659
Ni 3.0634135414380426 8.798611521798515 8.49771060851754 0.06618919423256342 1.0341131180881546 1.0060803803206544
Ni 4.0560529667141285 1.9416910483988443 11.642944707661053 -0.021988845566265357 -0.11560939653690411 -1.0238559591365206
Ni 1.8852481961054988 0.43232910947677367 12.077416019421875 -0.1698874411541784 0.2395003163563101 -0.20064734804485443
Ni 4.531974469433567 4.32178521746562 9.443618253663194 1.0556016269792337 0.22889708691916708 -1.275121643558875
Ni 6.107590418559417 1.5572240452469548 1.820426605774464 1.8555476679985332 0.3363108350191563 1.0057613064183388
Ni 0.20881376160296503 8.752645535369282 6.185509468547395 -0.9503314075848083 1.8852184555900888 -0.3208052831843894
Ni 4.030352048612767 8.588018253969025 11.098153192034344 -0.23740409594891373 0.4806569373691205 -0.9649411870781833
Ni 8.823587047784834 6.500110192406161 6.256212244317488 -0.5707116253653719 -0.08921342304187861 0.30140990937691314
Ni 2.524640025712594 3.6615957531677124 10.325905337448043 -1.7114159956522204 -0.8859689821483385 -0.07937406835395361
Ni 5.704162216451003 2.3661556218435287 7.946508095742428 -0.796413345275693 0.8202310165205808 3.0678400349360135
Ni 7.965255349935909 4.958844773690169 2.2022298588937685 -0.07584754325793389 -0.5686069203175432 0.1096125555235209
Ni 8.695697663249009 8.165683945976115 12.570306188326136 0.328052451665106 0.8788151447123767 -0.5383452932195245
Ni 2.5415444166467163 5.023441400643754 3.306072813623938 -0.3606779510096111 0.6344700986692556 -0.34108100271429
Ni 4.306046963222771 6.5265456848012375 8.178547260076936 -0.40828758246777425 0.4281601530219852 -1.1404701427888553
Ni 5.129477199941549 5.757832050785574 2.157343696676298 -0.10858617114153557 -0.2742886276800889 0.5839232389596395
Ni 8.972760722481057 2.217771614513049 5.195320766758716 0.2027574524093218 -1.161811841689425 1.4072357226190215
P 7.050214516612167 5.540260327165788 4.3485531047286035 -0.0653823820605519 -0.6642815256037333 -0.8016257427145678
P 8.23959130210254 2.159189314589258 7.329373867234906 0.08115969949946668 0.8527079061023638 -1.3140198632859692
P 0.6767219769958367 5.919346573616213 4.489192862567591 0.2991658505377428 -1.1804646809039216 0.2368389674740631
P 3.2226967948515224 6.833561010859525 1.8505698619170692 -1.7411767718544207 -0.5823756919668615 -1.7014776534925857
P 8.83995887235601 6.410299302820799 0.42068243404991834 -1.321123821320602 0.0794062071434697 -0.40024054379358165
P 2.399202282882044 1.4416938732028892 9.862324682863019 -0.3045299430631336 -0.9708454683777603 0.5481625364202624
P 2.0885783606058794 1.3037040921284797 0.9554249733386048 0.7608565312170057 -0.19709151237279604 -0.10598884272800456
P 3.5381046322155076 7.220589841860747 5.951871686906189 1.4263878700674402 0.2866366077224805 0.3253448229259558
Ni 0.9912712806540417 4.099200024291228 6.33401100776487 0.23033690468948717 1.547259029223916 -0.06327536301987811
Ni 6.515297515928723 2.2240246781883 5.9211361802392775 1.4517489745400483 -0.7725733054333017 -1.2069370161628374
Ni 9.21293896998993 1.0507993449809911 0.33261799484786586 -0.30965106633978284 1.4291690323570032 -1.0710773540173295
Ni 0.49934707694601715 6.7540984366368795 2.5307066911608147 0.20101835823102798 0.5175543246161023 0.10071191059978139
Ni 2.361647172115852 0.7282193078567442 6.159787431435089 0.7494837706036899 -1.2097462034768585 1.3517757418785041
Ni 1.8517332439547407 7.786129408413445 4.570619504808059 -1.811582832381809 0.4148734632154081 1.0621702813356868
Ni 4.961278051038101 2.4087425665216706 4.145368018651232 -0.7150898665048523 -1.081851304704382 -0.37035095532300083
Ni 0.6059595170643797 3.161773039366514 8.454571814901243 0.502466062824412 3.3945578269500953 0.27164193408586124
Ni 3.7785491629058514 7.127776379849825 3.7614813291913776 2.718379035688144 -0.7298611112767558 0.9930366597628189
Ni 1.0553904343167115 3.5124588071861735 1.3654074145826933 -0.5723550745060659 -0.7409363952543111 -0.11031369535560356
Ni 9.161050478317618 1.7219431484339278 2.7171196096769332 -0.42291433124201366 -0.9129874197187116 -0.3108314598011292
Ni 6.676949771439435 7.216127303026427 7.749854293354052 1.0057692768381388 -0.08177419315501401 0.9800729005132992
Ni 8.78028389317032 3.908945282218979 12.967618141221502 -0.8815384571808108 1.0259593786327685 -0.044296765034846294
Ni 0.5555117092256179 5.739871709304236 8.963292978052936 0.669671586271053 0.8699610367558566 -0.38002138853322937
Ni 7.438620674414104 0.3697516436130388 8.053886329561989 0.05658278149105095 -1.3787710395204253 -0.05514193527946632
Ni 4.29227369521561 7.049378938353065 13.346263643095698 -0.2042548628904547 -1.6214307274413238 0.28055029231908457
Ni 2.575050186618803 9.027743608365643 2.6191622911742707 -1.0240611331687912 1.0046151086290376 0.8577218143771873
Ni 8.177510592104928 1.9969034887502166 9.542582857166115 -2.1565616274886086 0.10594950484963689 1.601936366162138
Ni 6.909993466120597 6.830898179044808 1.2387759885248562 -0.5961244090115217 -0.05268858864296732 -2.114690441176119
Ni 7.748519204575224 4.491352510991113 6.5785204889530595 0.10393555974340166 -1.0666779393980532 -0.7550157561655125
Ni 6.171186188037814 0.5411158895045334 10.505934805351774 -0.7003039664449294 1.4940852734144139 -0.7901529661882778
Ni 0.9601069662431724 8.312699808684549 10.143362707241934 0.625736832561316 -0.19673284348179665 0.2677739664900227
Ni 6.877001898154111 3.8450556830230957 11.520972319061107 0.3345259752045916 0.31320638779120896 -0.5598250603598552
Ni 5.596087973488147 6.449608209713237 10.178572689575441 0.25926130103332123 -1.1125291934042132 0.9777887324648129
P 9.055482970132067 7.867263139154295 8.336348509852844 -0.7749225223917686 0.08882261536136316 -0.9509556714323687
P 2.4438368534039165 4.797927092473173 8.474434703803304 0.785108461785835 0.624429426603802 -1.331386379588875
P 6.874513527734151 0.8620670081324667 4.0072680514327645 -0.3849183116142145 0.2504113068418591 -0.4870276167821548
P 1.3296804755899851 0.8474893812736876 4.306636459093478 -0.2176333410798897 -0.09301608461742045 -0.5335139332691522
P 8.9843853606791 4.099218388648572 10.238389992530541 -1.3304628393333409 0.8399493208851148 1.4957495484907144
P 5.6702524306173725 2.7070440050207614 10.237476365752732 -0.5602878589288867 -1.3124324641941914 -0.07141444718724475
P 5.132874606049983 8.286466324220244 9.199000422766682 0.3783468290442839 0.5885519959809025 -0.416514855473573
P 8.045654506383043 0.880827117376087 11.585439477295424 1.2115634591912554 -0.4018803933898499 0.11819464076557709
