# total energy = -340891.09189692733 ev
CRYSTAL
PRIMVEC
9.03986560917737 0.00000000000000 0.00000000000000
0.00000000000000 9.03986560917737 0.00000000000000
0.00000000000000 0.00000000000000 13.23075708264836
PRIMCOORD
 96 1
Ni 6.5202199178244085 1.7032281703999455 11.133735141644353 0.5268617180599571 0.9703800987055676 0.9399451792544781
Ni 4.66808708361237 0.5212332183467098 6.10152227741329 -0.45524646771581595 -1.1612647109367034 -1.0358820370631194
Ni 2.5775458776958433 1.5149910519832859 4.644498458688179 0.4149297703746402 -0.4947586668778253 1.1669460775921967
Ni 3.3492701519172234 4.2946592814381495 5.02048996670608 0.4274754682501347 1.7925134744551838 -1.654624183474157
Ni 4.998033132937139 4.628637110756859 2.537063552205112 0.2937248820278296 0.03118773845671403 0.3945450360707012
Ni 7.347720161917123 6.1235415816940995 2.460683016997031 -1.184014088818077 0.6979863740553464 0.2021756117639228
Ni 4.874982484332827 4.45352587698415 11.4405960865509 1.89997324530176 0.8168721273506769 0.17589456658020675
Ni 5.607952855338906 7.645294453039421 12.625991835989158 -0.21948376402506717 1.2991560588002593 -1.28086600224182
Ni 2.056478992873547 6.583001783425124 0.44748238000014706 -1.3035091935626324 -0.6651415596111836 -0.4064962948953063
Ni 2.764888049432233 1.8765495108121153 0.2625421005157526 0.1771042706175918 -1.538267624358583 0.42818355006075287
Ni 0.4867687312908814 0.004678130374135393 4.690686747255537 -0.19554036583559226 0.4439804078836935 0.5587346555091538
Ni 8.675721596916851 2.0151758475992967 1.1863621110556413 0.08536473871974976 1.5569770278426283 1.0749116401617553
Ni 7.0169334051048295 0.6643487523199694 4.825495548860114 -1.0542831652781262 0.19457748770169073 -1.1491802689683435
Ni 0.9732499948602216 7.611476316363787 2.6549895010816993 -0.5524899601510227 -2.700353545645001 -1.1160053248782715
Ni 7.268115106700435 4.122070170128018 3.8696391591262183 1.5226355742482809 -0.8804506234332709 0.1283983207714563
Ni 7.4118037681436855 3.652485319084855 12.760112703832437 1.0678657890585674 -0.029544289316020083 -1.5065674650418246
Ni 7.835077388449272 8.74144141879118 6.880470308121572 1.2292953292533797 -0.1282085733581534 0.9717229858867072
Ni 6.7212755654594725 0.8332947978508223 0.4422844573622188 0.3094232665996929 -0.7523991444782719 -0.7576377671693919
Ni 2.0042195306650896 6.344530132662435 9.26539292468089 -0.07527135903948971 0.08660272489190891 0.020809480546183513
Ni 0.06299068649277842 4.678148453866307 1.5494410752543828 0.35959294547554843 0.2345321737177574 0.08689248821818583
Ni 6.508947205599197 2.06807714025522 6.715072409782695 0.004409184811289181 0.0911188675947076 1.3135742911081185
Ni 3.52243781461662 4.182962703848165 0.44434193074029266 -0.4361542269710553 0.8357008300214058 0.2415163183450744
Ni 5.9206870008330394 5.776139552171348 4.819197474596037 -0.7913181901409727 0.9914945120866795 0.47344499300171367
Ni 5.567969530421417 2.9101677271959625 9.033683093280237 0.6123411279807003 -0.49757762438385916 0.4093553616106563
P 0.3950809919040106 5.593941063880144 12.59266366002131 -1.3202450182600745 -0.6568219840018946 -0.07719480131444771
P 3.961612558261539 6.077890261134904 12.57060819627867 0.4203861655035212 0.2831622760206349 1.1953817072250703
P 2.5210467185879275 8.560707388704051 1.3353933329841363 -1.0626181675063828 0.21246259551222763 -0.6587256287825107
P 6.202070892921373 7.843014390320753 5.890227174174781 -0.8750106833646221 -0.8877787816635678 -0.5813783610505987
P 4.831618249734321 1.2300273731738753 12.437030624349372 -0.34237452471473295 -1.0316502583699587 1.1933839600687512
P 4.000755175691503 6.269209973672491 8.397058704331156 -1.0879862139575263 -0.10560317725381169 -0.37811234443597463
P 4.626684499818089 1.0189826742085326 3.9171246683866934 -0.06177178189115813 0.745173059043478 -0.8061884223845858
P 0.040221977365561386 5.727532195607627 3.678706352830202 0.3640674363071343 -1.1257600902721903 -0.5747559706380747
Ni 1.3069295086188413 0.8736849167138888 2.510734944060824 0.5918244960845872 2.293453587553373 -0.08070898511529326
Ni 1.7453358636998926 6.454174660793621 4.684547774623507 0.8434251952488572 0.5090059208254588 1.3631616151179426
Ni 5.86251546661553 5.493833593806375 9.36838139987589 1.224231798687543 0.3011106329689395 0.6273712828409453
Ni 8.851058827325993 2.3826463784371783 10.271407007904427 -1.5891335579705148 0.32022344253899043 -0.8154315382494085
Ni 2.424428636580664 5.081118536354874 6.999890546758244 0.249603466228583 0.7620986311542229 1.6020214696767765
Ni 0.5665102884759745 9.240550470417775 9.139369968314229 -0.34605377333853304 -0.7558837605927627 -0.8089585289305552
Ni 1.3461354051070058 1.0896021031606982 11.238337232823474 1.1459147108431942 0.8280463987999416 2.3351581663810106
Ni 3.9367258086576844 6.85779561359511 1.7191247738065485 1.7545981874666494 -0.3322109539181698 0.29897713156570443
Ni 5.483247911355916 7.959520176334003 8.048719240760489 0.1300260861828664 -0.06157792071279717 -0.15797654864920535
Ni 5.077502590171968 2.9630599799864283 4.796414301684088 1.6849112644934723 -0.6448056762673088 0.06610589049013778
Ni 0.9600065919653262 7.370916456680469 7.245228879322274 -0.4195155899731098 0.19963047674456588 -0.7069322703947244
Ni 5.049469967388985 4.782106906624872 7.312626500225469 0.4844331165821012 -0.5981548091779891 -1.6895055687323741
Ni 8.256479756605206 7.115721054821837 9.137756352330108 0.05190517350972351 -0.33055464926166944 0.0087782604132623
Ni 4.544710999851597 0.28837442004643726 10.357724163223136 -0.053570991247920634 0.3653380754894418 -0.4192330257356844
Ni 8.02474280560818 7.25810797563924 4.827440023919971 -0.0362893213493375 -0.5613427825559623 0.030608211804160186
Ni 7.108760358419742 6.160514631414318 7.197928687303672 0.5349241833531174 0.3585593620047115 -1.0968382650315174
Ni 2.3517209987078695 5.203979347784583 2.6184458449706995 -0.2693407967565103 -0.12887191797376513 0.016232402698462368
Ni 2.2859017383135125 5.082492595904379 11.58098700507534 0.7189614336451166 -0.1447525937597636 -1.0647503833580374
Ni 1.1601040138619194 3.3116371920186234 3.8534180245496996 -0.697971975877643 0.326082986643561 -1.2979548394033067
Ni 3.6290178283577914 2.6111380177350454 2.715044039273957 0.14685729880759224 0.03574733280293844 -0.5053582967705426
Ni 1.221086946236639 3.4639227655117337 8.370742751998508 -1.3506015190647451 -0.09184520423777086 -1.8244941411268383
Ni 3.852022269323098 2.845388051329191 6.958451803502135 -0.6711481708165796 -1.0973799964676003 0.35071415492867986
Ni 3.8121022234638087 6.812994040388898 6.183632279348187 0.7177609855791123 1.0688039846021204 -0.8873198397492783
Ni 1.0422422480300793 7.25533273694386 11.345546421200472 -0.6189774023502953 0.192108714446224 0.10891115858112212
P 0.3076013098874973 5.3664438097825755 7.891365918692034 -0.13407068856588525 2.2003835097695656 0.8200027025598589
P 8.439582231442138 1.5789390602279891 7.827726169859424 -0.2773086454533353 1.0408792331673944 0.2826349427622552
P 1.8970971249964819 3.2399600988079573 10.34350174289922 -1.2673427709444045 0.8500095333345941 1.7745571470870791
P 3.9811477075146917 6.124834282454488 3.8692025336246325 -0.4948627965558574 0.7474122327866418 -0.33612108760585335
P 7.224190400443577 3.8977187892095797 10.432623968469317 -2.096582418721499 0.22449947207210372 0.03148830041626835
P 6.202296889557804 7.644218709050006 10.131782669970764 1.9602517304768436 0.4717673481889746 0.8483321456321713
P 2.2487750108805193 8.514947589759368 5.741817894989746 0.7211566415242224 -0.16170336268148924 1.2586043626301422
P 7.041151204664846 3.8977639885368656 1.6440803307130512 -0.1501007454455544 1.4967533071648802 0.3581888660391702
Ni 5.469471156399042 2.8786185967501026 13.88911958052136 -2.017922859936067 -0.1225770861039889 -1.641353948727812
Ni 1.3852418630751406 1.2767544377224858 6.996397542745556 0.4697924838507909 -0.6416226505536369 -0.5898483461948227
Ni 6.969654908763325 0.5637106421438591 9.144848126781334 -0.33033430572074723 0.08370097786408165 -0.6938263291403858
Ni 2.617872717500709 1.782082916783681 9.013849628466993 1.741453422554575 -2.3758235053108567 0.3892436784624458
Ni 6.161075103072669 2.1851976371195643 2.680141118743452 1.1559864932568995 -1.6175871853255173 1.2335340499250755
Ni 4.239009869683217 6.898574446672839 10.581483432954125 -1.0379234929731802 -0.1312735854367223 -0.3864578881871925
Ni 8.227154433061834 7.131604098430254 0.38370251325294924 -0.415549149126194 -0.1609382023806906 -0.19846499568155498
Ni 7.672902202145912 3.987837207953069 8.050465742766832 0.3128351204947193 -1.238202144824706 0.4527614965104331
Ni 3.0630047324819665 8.37455847920802 12.351970010329223 0.7484355318448336 0.8378209616882022 0.05768295653376518
Ni 0.14369498934907046 4.798197867138806 10.141348655597643 0.186440203306537 1.0819086403048788 0.6059439662051048
Ni 8.680820081034751 2.3818147108151098 5.544560798819825 -0.3199095108429974 -0.12382792779195448 0.17543433911433656
Ni 3.6465370876139738 2.632002027210416 11.300667105151327 -0.003094579764923703 -1.1123129636283489 -0.13174949663187635
Ni 0.9622123191368992 3.4423536465306963 12.748231608661953 -0.25156856037475384 -0.635760278235589 -0.4842099448277016
Ni 3.099046676060088 8.419640288243409 8.046033496733134 -0.5772237154522769 0.45212720536054385 0.1995713413718563
Ni 5.377933478778762 8.134278855353879 3.5269098360583295 0.9956697265102917 -1.1406892007781968 0.3654362916302029
Ni 2.8786457163464747 8.356297950984342 3.5693538123532873 2.191105941122381 -0.10532087012670248 0.7771660670103067
Ni 3.614662522011652 4.141424522072026 9.229444995703522 -0.7752477669416713 1.0240835017662944 0.20907568131786572
Ni 7.31128950412434 6.131514743027408 11.38220849954896 0.3744798898897099 -0.8866243563441505 0.2799537963856663
Ni 0.5898457971673622 8.991972250073863 0.23791027511779297 0.899157712924471 -0.6234763186619133 0.2067999979098116
Ni 4.510097355015724 0.16667884727417043 1.3208038941226539 0.6449956807909278 1.4108589211939058 -0.15240728209154397
Ni 5.9469387701209415 5.5595443758152445 0.3612628552283767 -0.05059185401493868 -0.5370913662077653 0.5396848379665544
Ni 8.117989017799884 -0.45265951094752355 11.093751816726863 -0.5162397195697368 0.6137925157152462 0.9733774907709947
Ni 9.493576304566663 4.667038459219327 5.816558598603878 -2.582809136868913 1.3833195781230563 -0.586599500240222
Ni 8.089314564569435 8.69031193976488 2.7285396544151106 -2.291211842707048 0.3413496829946444 -1.2355523659066852
P 8.462995482976458 1.6811437790878436 3.404352764107985 -0.7282603424485394 0.3408174646402582 1.0770803656783
P 1.8154309804555369 3.2668084992160384 1.6970566542522696 -0.3039905256198958 -0.4037552418150595 -1.0034673681778397
P 4.663431552901878 1.1130967134841339 8.143491382241377 0.47382243094579035 0.3857024980784067 0.9384593387375708
P 8.519811037375378 1.400564435025207 12.381844957692397 -0.9704508040425028 0.6696147648911887 -1.35674234185516
P 6.321532714939149 7.923234156388535 1.40285694490517 0.6255843661438517 -1.006891306257724 1.1179763325617134
P 1.8871713527244034 3.1844914843621703 5.966912352848772 -0.3209505505130021 -2.0561963015949685 0.8685412735901945
P 6.794028402659553 4.125830754158241 6.02758883378449 0.012649056222578215 -0.18216291608742177 -0.2615603814801431
P 2.3442179103783385 8.668046751143633 10.23405699579464 1.474822054309428 -1.8340910407866542 -1.2279508994103434
