# total energy = -340891.54486184096 ev
CRYSTAL
PRIMVEC
9.06530099493625 0.00000000000000 0.00000000000000
0.00000000000000 9.06530099493625 0.00000000000000
0.00000000000000 0.00000000000000 13.26798434075985
PRIMCOORD
 96 1
Ni 6.421940737449518 1.9845666053109305 11.543783160968559 0.1023677010356495 0.09164208708802926 -0.16010902161117588
Ni 4.640164913024694 0.5573446704844341 5.9280685841993375 -0.5000052599887453 -1.1828678910287758 0.2660814092789482
Ni 2.6466055292319117 1.6078217656665097 4.744551852761105 0.5049294367632401 -0.9614727689136088 0.7929822081069569
Ni 3.913553850871628 4.2320541323044605 5.34003152449514 -1.5511146555245803 1.646792860355196 -0.8285655045282053
Ni 5.247213721753225 4.677658997501446 2.835049564931145 -0.6987157960222031 0.11547389940030435 0.24761188971985096
Ni 7.353436664994041 6.316148676075318 2.9127736416929375 0.22506562898821883 -0.9635394216346502 -2.0378933895207227
Ni 5.290554925303358 4.614111238269814 11.725607713958672 -0.451181553617823 -1.089813239863936 -0.9463816789084413
Ni 5.60843876627574 7.9213052432804725 12.359127201282973 -0.2525499504514167 0.36506733832655835 0.8585785059505278
Ni 1.8179645055735651 6.625955333955634 0.420381572003534 -0.3377583660989602 -1.535675952372007 -0.9590975838132128
Ni 2.8981948248033067 1.7532745184299239 0.18406186924950843 0.07659753405008099 -1.0903835105451094 1.1142004104590488
Ni 0.3002690548150385 9.192033795390888 4.636908656945378 1.113756638053411 -0.39685542937143264 0.06517772224891355
Ni 8.801727265616577 2.3525543642966134 1.1825195483404465 -0.5086894180263045 -1.1563683020763504 0.30843184922070105
Ni 6.784906319742715 0.5796806653447506 4.690908841280754 -0.11266599763786403 0.2144318034234565 -0.8154508215231182
Ni 0.7012037433515688 7.541659507351584 2.6989730528771854 0.6584996288146336 -0.8019216766884318 0.4065117215142741
Ni 7.578337714748328 3.807181610240534 3.681825723017862 0.5485569436452036 0.4269167675331874 -0.15861521067446877
Ni 7.48389541008711 3.7016796384947805 12.815930432668097 1.0833996230281084 0.490503234035581 -1.2442933453241087
Ni 8.049026267505074 9.081437124545534 6.672615344161217 -0.06691784486847185 -0.7981164440097287 0.8666818517839524
Ni 6.830649828028423 0.8400016587323951 0.45711779732596836 -0.07576706772898563 0.6481319124270644 -1.8914664933823293
Ni 2.065945811391153 6.389496025567919 9.483676309879987 -0.008726581239720454 0.4561787497220982 -1.6023294878354983
Ni -0.05127243529788686 4.721598510910249 1.4898486594878095 0.25018273577082073 0.48172291673978973 0.1821739718310153
Ni 6.396104629915974 2.0035946718768645 6.956828844571812 -0.5986322630350399 0.5714572452821449 0.3188494450095993
Ni 3.389389088170888 4.30664342801885 0.49789714684488035 -0.05322980585841801 0.6446586091664832 0.33343299925072895
Ni 5.984539969557045 5.837401070828283 5.01858864639375 -0.1598647668108537 -0.538684164616182 -1.0135520061073513
Ni 5.289711852320684 2.7896922384633065 9.357218988599307 -0.1282013742693018 0.8048205955027815 0.27608762856204067
P 0.03207031495488504 5.3296807639401225 12.504464824725098 1.3746019957444005 0.5362087064924959 0.4692265840449919
P 4.117414337262632 6.140599124360546 12.628241536532913 -1.8451447274976545 0.9012446773604866 0.39645947948459465
P 2.281137923893361 8.390171670558537 1.4343354764340657 0.6383210969842298 1.1589795144469524 0.23955945172901968
P 6.4915441176749775 7.823191491759224 5.924367221846373 -1.3550436139964988 -0.13092083008299388 -0.38316481925821755
P 4.643818229282946 1.0339972846960293 12.357216235855581 0.39578096536033125 -0.10418315697783347 1.395713838022351
P 4.036660636943748 6.128551339479114 8.437177068727989 0.3789530951697151 -0.11392506685594574 -0.32246852981942525
P 4.670270777276941 1.0609756201415839 3.7054163555212107 -0.2090700248909109 -1.2551048341173159 -0.05445056563939655
P 9.395912412383668 5.503371928972657 3.589175628342392 -0.0435406035951121 -0.13290443617192596 0.07587299717923061
Ni 1.408793084649323 1.1053321373912806 2.5946341592354862 0.6023161396445303 -0.8471355542209087 -0.5956328140870838
Ni 1.8927894991110674 6.516428368615181 4.888668380173486 0.40146747422214724 0.6372440618699671 0.19734605158576335
Ni 6.058258996386093 5.709145193851232 9.299490246008299 -0.17713512385552718 0.8345523182392595 0.6752467663659855
Ni 8.40631697144178 2.434268986509727 10.054160227472885 1.6816978997624974 0.9279790080315373 0.6468926407033246
Ni 2.5313674243314117 5.251936743516374 7.039621331060624 -0.9715273249361333 0.2014014526020596 0.49034588252211037
Ni 0.21129040699959825 0.0015945864263686234 9.00612169822994 0.8033064728511005 0.47613770934252836 0.2436634465950642
Ni 1.6186366696270427 1.2580643267685325 11.3168877450187 -1.2183432011172501 -0.06610460493855712 0.33787792239596004
Ni 3.920244042927683 6.717859354367944 1.7196504109026707 0.07153786013898648 -0.2693135430630007 0.4093972705921852
Ni 5.524593798353719 7.983719839900983 8.079259952499855 1.0715152128856966 0.2531281915523899 0.32300846148329526
Ni 5.425365014823129 2.8101707531714744 4.845879253447491 0.8938429855797767 -0.95310999877121 -0.8001000500986608
Ni 0.6945443733185364 7.42556926416752 7.022452557707017 0.920758064803066 0.9600419500043531 -0.26588703387995505
Ni 5.210626167365368 4.384731929876378 7.446152029835912 0.31729804136207934 0.6837249790403257 -0.7440042355463574
Ni 8.330204705178046 6.9471570750533775 9.116272356271555 -1.1092047570166703 0.6886920932376139 0.2757171325964993
Ni 4.4813589720518365 0.39039174360266604 10.281440918710524 0.23768845995855195 -0.5842878213879099 -0.12059707955948264
Ni 8.354681017578246 6.9521973823476415 4.876912497980679 0.25282634404125487 1.0641240626279482 0.6870740980182166
Ni 7.353110314162039 6.108009367664724 6.965956696036909 -0.0951074199288104 0.3572038764180816 0.2971652751679463
Ni 2.345084556364107 4.969244400594946 2.7903503793078452 0.5472140564640641 0.8934552632230547 -0.3526396540861669
Ni 2.500880817441829 4.93668183980179 11.477363514415304 -0.08522178538398226 1.5416272848594355 0.5958580427240124
Ni 1.1259285010110052 3.2132049653938886 3.8727790340031607 -1.2809382502406519 0.5994246770293483 -0.008887018076984695
Ni 3.726482301726984 2.7224458364689776 2.663985524096232 0.018336079305026485 0.009379384332370943 0.13265015406927477
Ni 1.1865119068519459 3.4551850420229826 8.07668631357748 -1.0375344850648778 -0.3804836728816286 -0.007649289015141666
Ni 3.6044542864606504 2.675333467749036 7.211905561395192 -0.5312752737466205 0.03667807214732392 -0.48378776968861836
Ni 4.2001080119717535 6.85324055784372 6.28650332910823 -0.21367692753530299 0.8793995564609373 -0.2553326554028764
Ni 0.74228768698035 7.24310288787447 11.3181614197936 0.24385293689805104 -1.2144970878982826 0.9696151955150849
P 0.35443966680712696 5.543948215751656 7.811910631332998 0.1394401804079147 -0.4643957383152518 1.4911693853191996
P 8.223723680936285 1.730366503083514 7.968406733639347 1.8109269439653652 0.475175345429259 0.2947669501390988
P 1.5448995121962161 3.2595649141400465 10.418830086333207 0.4662849849181648 -0.12321806212209749 -0.7972127012485366
P 3.9489266549403625 6.16460404111452 4.125308401276741 0.025581705123846266 -0.08889563469114369 -1.3828099854764895
P 6.911856793391755 4.0122387163488815 10.443216652254605 0.33655663248137524 0.2550089535148705 -0.2744665480188499
P 6.429383349479357 7.956079737490535 10.317370332253843 -0.31330691792481524 -0.9295836335144958 -1.0457378468112764
P 2.444159229779586 8.60401305322829 6.009017188487334 -0.2696688695198904 -0.3483808788098129 -0.9248972837824201
P 6.844673848503649 4.025691622868102 1.5304086287252088 0.43692478658849265 -0.1471159517856176 1.1135195823419404
Ni 5.2930660136496 2.9248558747177476 0.41694672949670586 -0.7084268526623798 -0.35466645470820857 -0.8725020580101555
Ni 1.2477026878524475 1.0127300888105217 7.137591850827827 0.568582237727195 0.9372630044366244 -0.9675295166306498
Ni 6.792212952259219 0.9238176176915709 9.465977216424376 -0.9154163408751783 -1.6961765529946464 -1.759135156105054
Ni 2.6373407917233913 1.6338029180142781 9.202023756970524 -0.06394410695212857 -0.3784974956895353 -0.7488705624997232
Ni 6.084910980999645 2.0491387435430153 2.412305575515947 1.4693186079926954 -0.43191139253430133 1.0963399852388602
Ni 4.124349292442688 6.949106114744505 10.541240657297054 0.7944605924246962 -0.07832968624983928 -0.05726206694626267
Ni 8.262541299342825 6.991849008435966 0.5564064118424266 0.1328267888564551 0.22534716478437966 -0.181607557804584
Ni 7.5936762038524535 4.167064990231483 8.20900797800323 0.7235737356061475 -1.8467827773217098 0.2139641197584186
Ni 2.9369217902009574 8.438507854898488 12.1450347097786 0.681925978158374 -0.35483717595811787 1.5281148521952972
Ni 9.35838206670336 5.081853568237648 10.021016580892747 -1.0349422988576693 -2.0015930124277914 1.080891511894274
Ni 8.361878866484084 2.1532899854563134 5.586909583194542 0.9216654071086837 1.8374123918504033 0.22430303979058147
Ni 3.5902580252685343 2.6784700618566175 11.275132969124137 1.0373881892950005 0.47409085411582863 0.27910867477655155
Ni 1.2945159016430534 3.302951444194624 12.718609894974632 -1.63794312327405 0.7447076893712852 0.12715622083423905
Ni 3.117121841271768 8.269322144407768 8.202971394141269 -0.4782043620635701 0.6895464708181092 -0.363215115609168
Ni 5.744871544654636 7.880765217705029 3.447765093245366 -1.1825184781091571 0.33066109293254664 0.018557451287213204
Ni 3.2249717259477624 8.37581223395042 3.695173472046772 -0.250935040555813 0.03669169899407875 0.012620002756855684
Ni 3.3057254262666467 4.156395131085174 9.317852919488983 0.45579102736537624 0.44394286977753866 -0.5878909653581359
Ni 7.389580019638338 6.269988163948717 11.547113752515164 -0.38048778664668664 -0.5842757372030518 -0.6256627847902709
Ni 0.6274049418746972 8.97673289927801 -0.04100688857122495 0.007334328877884143 -0.12987284843445376 0.9099602028566134
Ni 4.461913901645011 -0.020026156193808563 1.24625495930048 0.030748594036766403 0.9420542551776808 0.21941357290876404
Ni 5.851814899241735 5.67410780591539 0.5554908164526413 1.030834961557515 1.2894264902173214 0.4201444818063603
Ni 8.256431286543664 8.870578225868252 11.101216078099466 -0.9599486189595984 0.09146802340401022 0.7647386398802314
Ni 0.1883524761602547 4.788971827117025 5.801426330780521 -0.30907565345228705 -1.0380584758891478 -0.5285493901750252
Ni 8.057348213721143 9.03715312970295 2.27471606474362 0.43662422462893835 0.311906695143179 0.9762424710236155
P 8.466972899689834 1.7706527002340664 3.418337313499614 -0.5393076571327938 -0.655559058129071 0.11215949031509072
P 1.850563327570277 3.048887321480542 1.7118887002815404 -0.2797511934565569 0.9151962544445722 -1.0812956893112282
P 4.722550367503591 1.1048970029486105 8.116928090753676 -0.2255291988881987 -1.1930381466935582 0.7866434103731226
P 8.70647814917624 1.5773804852813713 12.202790648272272 -1.214552109505934 1.1481045194056614 1.5224265435612683
P 6.464565782229424 8.034177304648953 1.3332202037884815 -0.963268684471767 -2.071617521246045 -0.006323628225182657
P 1.9314076808980505 3.3209641970609938 5.927949828757692 -0.0716162787854057 -0.26362626287023627 0.27595161720480865
P 6.950692542400073 4.036198306598411 5.842702458788149 0.12201761405609308 0.15098751892588191 1.2916759483731302
P 2.088899153242008 8.540601273509992 10.197786322107172 0.4321494766870364 -0.14931501631946542 -1.3980358012873084
