# total energy = -340884.96506010497 ev
CRYSTAL
PRIMVEC
9.10660722220764 0.00000000000000 0.00000000000000

0.00000000000000 9.10660722220764 0.00000000000000

0.00000000000000 0.00000000000000 13.32844017966973

PRIMCOORD
 96 1
Ni 6.619875226428456 2.3513533514040628 11.168419815145812 -0.26392862460200356 -0.9448189624070116 0.44055415581096385
Ni 4.765806385506927 0.48875981529212403 5.930702659364703 1.7699934389757968 -1.045604920777838 -0.27708753058146474
Ni 3.212683599448626 1.7648149817598955 4.833425677460082 -1.3329532098553625 0.5717274682243959 -0.8215641335097076
Ni 3.9774473825865515 4.664322352602403 4.865706779383983 -0.2693271699097555 0.0281288970257322 -0.5897316181113005
Ni 3.6561753799987278 2.652363152519115 2.295597236915437 0.872872811086013 1.233604498151695 0.08318727145245673
Ni 5.087497292035312 4.706841102569311 2.132950496706834 0.6670344057585222 -0.11245131052389665 0.19106330390084514
Ni 5.644812558521671 3.323456371904713 0.1096872648535906 0.07445889044052338 -0.6718801638865977 -0.16145396567484452
Ni 5.8484271934563665 8.138848234723659 12.342961807565368 -0.44076884292493124 0.25866300532769 -0.7939039485902779
Ni 2.4476739379108063 6.200288290312523 0.46453715025957343 -0.3466929495844287 0.05880781416682776 -1.3408922621967811
Ni 1.1367140559261872 8.772012434273709 13.04566406124849 -1.1581372210513152 0.787943617241785 1.4827369382811302
Ni 8.002768200293264 0.14289815139338863 6.902199179812282 0.08905221487366599 0.6447856216626507 0.8161740728423879
Ni 8.986363759337124 2.664875631091514 1.405977312971923 -0.21886541371477788 -0.37063454800169077 0.14504004309319538
Ni 7.229589911914513 0.9081764578496114 4.770422524799757 -0.6617983541705634 0.866468707331882 -0.8210103178887667
Ni 0.7765003787595471 7.332139417885245 1.7377355739848692 -1.0923570893317123 0.7651268764575855 -0.20100627404616994
Ni 8.24373813879709 4.355581041801785 3.7254593597852415 0.3182223529485616 0.11986868603389035 -1.1340889218528598
Ni 7.914907652064366 3.899849980901389 12.52140304765459 -1.0428831509713008 -0.18273858608523366 0.3129767882789062
Ni 8.718319877022715 7.70162180006716 8.991512635163058 -1.2589617459695608 -0.2654825993526847 0.5837779716310268
Ni 6.815958697040464 1.0989671682387092 13.25484101198524 1.1297332159873252 -0.24379123042218012 -1.1706325253048484
Ni 1.9875443856345234 6.808409319502968 8.87624848393557 0.957192653481016 -0.1993466269555599 1.2615963553789304
Ni 9.309957946812839 5.168136300593241 1.266360272226013 -0.8034959631540871 -0.6840371109641058 0.7398907275986161
Ni 6.372029799334994 2.377461994829877 6.594339388608322 0.37152157859233437 -0.7752914756954132 0.7378086482586067
Ni 3.4555386056849735 4.074469177863365 13.165539798465108 0.8728195892505743 0.3622149564794278 -1.1581266795283538
Ni 6.615986705067165 5.958972300727366 4.643628497938706 -0.6670770860709995 0.8046588731139368 -0.017905676635827227
Ni 5.609624627514574 3.18398867952022 9.205486946679969 -1.449281229725846 -0.5029280900624952 -1.1218563843424099
P 0.42296002349818645 6.368378049766194 12.588711804295285 0.5677443152069319 -1.3745127784647038 0.06080813242630817
P 4.345336108472855 6.2897607080518405 12.433155468611043 -0.6454034577523079 -0.40071234122367766 1.3795431417997595
P 2.4516899517757467 8.506044858447297 1.5255998865027245 1.025234327541286 -1.0370588309800397 -1.227914389745453
P 6.421041560380593 8.021618877618495 5.66757270240522 0.6579560976063378 -0.4322165824795459 1.638355014000488
P 4.621676110131846 1.0766832999223623 12.738083842891818 0.9269909330866553 1.0956660991002871 -0.6554559568923034
P 4.267720493572886 6.362440541739117 8.14774265817465 -0.7801552315456177 0.10270425843946183 -0.6195420166045136
P 4.911967434332987 1.427806761578836 3.640196926648559 0.8909466378685882 -0.43083538586130316 0.308761721756294
P 0.28540562932916747 6.427097454303916 3.5806989071778386 -1.0171471796577773 -1.4350607152510897 -0.22382815703669193
Ni 0.995078990979663 0.38869003851736217 4.7578135161888815 0.7465583694267788 0.3205108918724222 1.0756801428966636
Ni 1.616950997349382 7.044252238038625 5.119974186018387 1.7336735214988401 -1.6553037260396848 -0.5844464584529613
Ni 6.225304140849918 5.688724619421313 9.016902767264737 -0.1612318223617094 0.9305719655696942 0.9054193775634665
Ni 8.982857715486778 2.3231775080976553 10.265738284203469 0.20351104274589465 1.2087604425248215 1.2893287882971924
Ni 2.4919229432843784 5.265522360166193 7.059968421095574 0.39712436676210316 0.39677443962185216 -1.2908403398457124
Ni 1.1297292880477081 0.34024288713078027 9.287270655788516 -1.5134029999064194 0.7477909562822992 -1.7175161950126874
Ni 1.8225964057350577 1.2847055328403494 11.368106770307381 1.2248619760723745 0.5149600815263647 -0.2810632273997611
Ni 4.521785733522933 6.974058508172503 1.368510908792473 0.28410869909430425 1.195683297625889 0.8138310265315081
Ni 5.799278833299716 8.234239947275247 7.941831336852793 -0.2993483988621941 -0.29411774659087414 -0.6484558714253864
Ni 6.027745399838544 3.298194642967424 4.285853570234721 -0.9397297208095623 -0.47496271519782074 -1.1808935409112242
Ni 0.891134352754715 7.973517777313246 7.007227504318245 0.5634546866926425 0.4928187695426351 0.9171994009175299
Ni 5.499452891147118 5.041508924647673 6.75757259433371 0.5777909008096566 0.26958453733620025 0.08254166744865785
Ni 0.8487075795225821 7.783198789187649 11.043519051963946 0.16989438313271385 -1.195151079271503 -0.7477639596991057
Ni 4.979210623400378 0.33308327239015423 9.939258212841587 -0.3210037723484407 -0.34949236670643685 -0.031605542720422986
Ni 8.551568788857358 7.7781081956490965 5.127224866833049 -1.5666526032591794 -1.3083271837765662 -0.03083369755140496
Ni 7.622576447804842 6.497773834362424 7.184628769841987 -0.49020730006171703 -0.33591488513231826 -1.5745572028182366
Ni 2.435307165056863 5.981310808688134 2.8969365755725014 0.37955576175072053 -0.7193802663500902 0.29709071317626895
Ni 2.347337337539122 5.567051237903245 11.115346507198256 1.040052623501041 0.6453746613969015 1.200495888523184
Ni 1.4756437702693836 3.305844193186358 3.4115473173009203 0.008866963472326664 0.990325945699875 0.7636199528947558
Ni 1.8706428663958858 1.1086748117308327 2.5125840141614226 -1.1992591879026056 -0.1223397732822022 0.6128514919582155
Ni 1.2625309438128445 3.7011711271793857 8.444073484405788 -0.5328040516863211 -0.6663378939121298 -1.1596675416529125
Ni 4.1281344152921475 3.2233474367181163 6.88715142173875 -1.707056433131944 -0.596966702407159 0.19216399316419164
Ni 4.18899387256969 6.984285228286626 5.853504127083815 0.45909283804509965 0.3815578797824138 0.0725094800236364
Ni 7.998469881598816 7.595930514542222 0.17521932238986543 0.008053466432095807 1.3316879699896937 -0.5628124251229533
P 0.2859392765230121 5.765384040543915 8.062213401441046 0.9090281779606474 -0.5153701724805899 -0.4753149563309169
P 8.897428631434613 1.9802590997117293 8.161510937907991 1.2631125349131407 -1.0516231019474598 -2.1866121670170857
P 2.233878115899005 3.410406259393263 10.48769635843102 -1.3029808318629885 0.31828380231411635 1.7493816762627161
P 4.601896558851459 6.315259208781621 3.5641048471671937 -0.004650097177501669 0.37417727104762655 -0.29153533057567854
P 7.329953832108407 4.174833098057259 10.265724624292364 -0.08093215686969286 0.7186248762413043 1.280692195668117
P 6.723981962265186 7.900828837018565 9.937031647331434 -0.6518731246370516 -0.3835204028254234 0.5189306361383386
P 2.8222013805942563 8.781255640788254 5.6825539822447055 -1.677812705775478 0.2605334828775255 1.9123471934860807
P 7.192963136937664 4.035538431213432 1.512325184890653 -0.05788093147718419 0.9817968251829414 0.17572461666124575
Ni 2.1717983732293944 1.9901306621371155 0.27444855930128487 0.39448204404324966 -1.0911458426324305 -0.10415410351211095
Ni 1.8977077035990664 1.6972803812555926 7.084692860196057 -0.7944004286107221 -0.013986544087079137 -1.287420772641202
Ni 7.358630538822006 0.9149135260067155 9.182268740444023 -1.3630299746360848 -0.03673232242402706 -1.2058473826430844
Ni 3.0580442991299144 1.971534969819183 9.100405803851064 -0.08046575875623561 -0.6414437017736113 -0.6803509203617701
Ni 6.2907533282588215 1.849433577753151 1.9652122522989381 0.5915177634774458 1.517360699002587 2.081876222859576
Ni 4.458394639387219 6.959232951319617 10.402234490592202 -0.2615740083268979 0.8455720663885309 -0.9022602631091945
Ni 7.47056895702574 6.237324862622528 11.37250526168327 0.8579724969354128 0.5123637815540982 -1.2961980046131998
Ni 7.594282218602189 3.7399834879330727 8.190753164941347 2.0396707931361195 0.8500077335623812 -1.385276444739111
Ni 3.4176642254938465 8.41149095377683 12.731766589336015 0.06766680721935443 -0.37191881403075305 -0.6050134839710355
Ni 0.3242507738695065 4.878910449458308 10.18204856216537 -1.1805677821406892 0.7695432603577262 0.6777857307377553
Ni 8.930057605761327 2.3636108449691635 5.715355071451347 -0.1357413914000888 0.7968661165423954 1.1524612537124603
Ni 4.234536016194558 2.2755226315551775 10.97785039531662 -0.12566626655227392 1.5086672849936469 2.6841849063049383
Ni 1.02669713188459 4.081881956289807 12.655847535395315 1.47531004968944 -0.44815048010098296 -1.0650373184708366
Ni 3.0794721463503327 8.758844279968258 7.943976853557055 1.698781080497029 -0.01742205213118935 -0.3620120964400024
Ni 5.772678433074113 8.47745011120033 3.6444888707178253 -0.21780791898454105 -0.981457953786284 -1.2555660900244505
Ni 3.281402058915383 8.360676084465341 3.650926331491354 0.6396357020305952 -0.20638322208736712 -0.9557204398108639
Ni 3.3925846287046273 4.5308559144968115 9.134739535083714 1.9219978292019673 0.38065850789659605 -0.0160699089786691
Ni 5.428485099651698 4.676170048834346 11.434588646995842 -0.3966127172330073 -0.49819957423857425 -0.8232469205287692
Ni 8.620487593686992 8.821525058726499 3.100528443988689 -1.143173400652631 0.3625160326596144 -1.860535608131428
Ni 4.314501135804629 0.495037910436092 1.531478201581679 0.6370638275383609 -0.651800105307271 0.02743341362060437
Ni 6.320541041075646 5.992384443290781 13.337637375837057 -0.7176781960573189 -2.1568889289210404 0.6565741296571467
Ni 7.956688766831592 9.178003205536228 11.222906468562389 0.5954780336767744 -0.10191030178325673 1.5468677073227681
Ni 0.42418941549765804 4.782061679722162 5.869885092481217 -0.6373376500250378 0.6170719577974663 0.19503694383661246
Ni 7.226420812538096 6.46081922151905 2.1255659487633416 0.1519640239065383 0.12105293614997861 1.6660694491966208
P 8.947469439116805 1.8893387313952565 3.623776802839321 -0.36989072785713073 -0.5827721560743317 -1.4365735523511902
P 2.0586305630261887 3.8267785630957625 1.367205021290812 -0.9367153594632707 1.502923183421018 0.5252198115811599
P 4.763302068470966 1.4107682991269008 7.878308196909728 0.7491053042183486 -0.38661395414908256 1.149719172190949
P -0.004493200092883369 1.6888931958369757 12.483044195949597 -0.7480310973175633 0.1809084748550304 1.1121265586491555
P 6.806205520511322 8.823956522903233 1.6265366123022988 0.29576556660694225 -1.3730688469293255 0.16414796756723987
P 2.2145721082036003 3.5314968180375073 5.503926056703714 -0.6146083267483221 0.6287907888962913 1.6161738499177585
P 7.317222794958323 4.137769205925043 5.767629729929617 0.7078743225930196 0.8512341497703145 0.6869681685679717
P 2.74154415882152 8.648317385912065 10.316599597212717 1.6945621573196752 -0.887619116157252 0.3564736831202764
