# total energy = -340863.05775618996 ev
CRYSTAL
PRIMVEC
9.34451654575205 0.00000000000000 0.00000000000000
0.00000000000000 9.34451654575205 0.00000000000000
0.00000000000000 0.00000000000000 13.67664452291634
PRIMCOORD
 96 1
Ni 9.008702591601496 2.2614477443780077 5.6076976036056045 -0.4690005840771148 0.046509713525765065 1.3902047352786637
Ni 3.853977621026208 4.202546774776449 12.292746004619366 -0.3552002157244915 0.7342967784506064 -0.61866295643367
Ni 7.996775557427259 8.458245159293163 7.199946210307746 -0.4120329084428194 -1.967356716952741 -0.7627378074001187
Ni 7.085096496054282 1.7748974602788286 0.46119674198467686 1.268671259947841 -0.4146119820239053 0.29647519107945713
Ni 8.18075974240899 1.0850759091824644 2.9595027489452135 0.396934105128168 -0.5991616531759487 -1.5564507230255131
Ni 6.056592289643894 9.087869335223074 0.80692049046665 -1.8101098473807085 -0.6665988608830004 -1.6896945448147285
Ni 0.9330340848855352 8.622736682896871 6.743543205277492 1.381299205258918 -0.30599804296822786 -0.0562397963293354
Ni 7.623649014366642 3.136571057279832 3.686471556405937 0.28476767283454185 2.3985127193782563 0.8244016029585028
Ni 7.579384039799195 7.5590877500038625 10.114630789309874 -1.2797874244656604 -1.2359349460570843 -0.8833945365529431
Ni 6.488523874915391 3.735003237198314 1.6159771374007093 1.2542900515255044 -0.12154247419188743 0.00359260244726478
Ni 5.008614110888442 1.4364110398108911 12.186354946683918 0.10744203023476334 -0.3321608174065247 0.7090662860185917
Ni 6.541516627875491 5.834977736795769 11.684818861505192 -0.6611573781524549 -0.49473784094221895 -1.2793076566157644
Ni 9.165008318768413 1.9781967608254547 9.975224620197684 0.06999468402158268 -1.111245698706099 -1.6491904140530953
Ni 4.131528449525743 6.616235381652418 7.450694162186677 -1.5300730043629327 -1.815455427963338 -1.1364437952382813
Ni 6.722800247594398 3.1846112165053424 5.765786264516972 -2.122732080533673 0.4507046139814044 1.1804636524626573
Ni 4.885322560446624 2.6549546778822815 0.552899154464651 -2.071669714640219 1.3652048708002167 -3.2551181607628132
Ni 0.007422349440346812 6.792211316010483 12.223241491038475 0.6305699922839011 0.25256229174659084 -0.47375969602865503
Ni 2.066913600289955 1.0789178728219098 9.449904871673155 0.6316840512836863 1.3790849712164184 0.7063172625185449
Ni 8.782481192128557 6.3347505117146525 8.230809907129425 -0.18609001905596984 0.592072093319019 -2.127692766973058
Ni 5.483418337771814 8.226351638316647 7.987885184447849 1.786765002007181 1.6311189012633653 1.3914882299767777
Ni 1.836711436796384 6.039547891583724 8.601624616812803 -1.1817363485274939 2.842307236503389 -0.006986972840794419
Ni 2.131708477564744 2.8233241758253365 2.4433733323791156 -1.5078784705437644 -0.3560612781732061 0.07676516997619683
Ni 0.8709883643592671 4.73060540108137 11.342575010960505 1.4974714162778275 -1.8118353147122475 0.7065800292616283
Ni 6.474778091172787 5.9237599878756315 6.647136763201307 -0.7233595627128123 0.4464399251677795 3.362492828094751
P 8.42406291800802 4.528081695402612 0.17649175166778083 -0.845700364436279 0.9074410359791856 0.26705662870802394
P 3.306790769485998 1.1626540850023803 0.0004915215668667283 0.5443845574350689 -0.8724956302522522 -0.018835901759580467
P 2.3258781855100628 0.896754934102201 5.757046338252896 0.5057699303866644 -0.7465969359741981 -0.22719167419228614
P 2.5331862836267613 6.787782015198794 5.87809894254602 -1.4663435845247714 -0.5176365999172633 0.2884101546831356
P 9.158467157232163 0.8959139276189688 7.590906763071122 -0.14212338366703264 1.5602767816398224 0.6021148222670019
P 6.704849431435633 8.62246569191894 12.10655184149003 -0.5560144283645133 -0.3668969353361294 0.9450087098203144
P 7.141518686562672 5.1621445166606925 5.00074229020539 2.456416533673576 -2.078392892296666 -3.5751749958169525
P 1.647569078717497 2.7087604037761714 10.864219867814596 0.41070081989495716 0.5391796161953617 -0.08612475681422588
Ni 1.9796451608799102 0.8667011001980798 11.96882861979595 -0.24736609225763204 1.1851893400731008 -0.7419321835086771
Ni 3.9250520133757956 2.9829098282768576 9.367789933102028 -0.25416871700176225 -1.2484279363177726 0.15857021636914628
Ni 5.303676563272165 4.745023990010559 3.48152668650712 0.6040742599862177 0.3603480784740181 0.2675484807427779
Ni 9.11138948320413 3.6321855223649564 2.0826656517208915 0.6742214104252646 -0.3101022949445885 -1.238167692042345
Ni -0.03928247838012077 6.740769752786123 1.0649992155244195 0.36722449387887723 -0.5121655495003632 -0.4557151798221184
Ni 3.948581505873332 8.765932053441846 11.806541467629957 0.16235899398761713 -0.14643923743356713 0.008134713291992442
Ni 0.869570801209197 8.63639836599115 9.096979304339772 -1.6042459881319209 -1.3317422202663967 0.060738455530637336
Ni 3.8875711577730874 8.445891708506132 5.722444528177785 0.14592553102194222 0.5523130682535262 0.883428475114672
Ni 2.0064358896290906 2.777928514763767 13.175572936907594 -1.6777270880402073 0.8463428831162844 -0.44209398949425793
Ni 2.8706448072818596 4.214956292662362 0.9045230306523209 1.751420818179932 2.6296551506881745 1.3047052707532625
Ni 7.385083508623152 6.966019322545105 13.519951075016396 -1.6639835132018697 0.31551446709909536 0.5998964744594443
Ni 3.6748619291307425 0.46740056647598527 7.957714544087723 -1.7999930706616805 -0.31880445070427677 -2.1067421328633205
Ni 4.578841108923907 6.787361511957177 13.218805342403963 0.3724242929122618 -0.2217134246865343 -0.4463404234754378
Ni 3.0880543277138237 0.5080660332951987 3.528451110464876 0.2898458586883976 0.12200295876807374 0.5051245834931817
Ni 8.330272006094686 8.759624504817607 4.6599748732645985 1.32207101572522 -1.2122039209887316 -0.5136562751132766
Ni 7.85687880119985 2.8401629945229385 7.759636024898672 0.08041407958269375 -1.1384227733415233 0.14881442253396307
Ni 7.466240634255044 0.5107609918481335 8.872667924035417 -0.37430402643347793 0.10932382063850848 0.6040128106206629
Ni 7.335464126112462 5.7472514160781865 2.1654917079961753 2.062715590770725 -0.36972154926911804 0.22222995931163658
Ni 1.1140439102715682 4.670370647848994 6.3234100065140915 0.3604784334042953 -0.47407182795243513 -0.17371812775417825
Ni 5.180777482522522 8.935647161758073 3.784176886272892 2.281258845259394 -0.32063070527973814 -0.10637347976093293
Ni 7.586289637478179 3.696961710606785 10.066024352385655 -0.019322097367379627 0.6274756696292935 1.1531395107264075
Ni 3.6104595215481288 7.017217928340975 3.6472460795763464 0.45278257955635576 0.7988461230869017 0.9734793064561815
Ni 1.517783089321832 8.475411036067577 13.423489500292977 0.3301903239437152 -1.609094317363158 -0.27609868430563417
Ni 2.1480146588229654 7.164711776466915 1.7316276767165397 0.5895333860575653 -0.2960062218628386 -0.06576496221095125
P 6.186023187413305 7.9087595566987865 6.026093656755307 -0.3923649977002468 1.9964081257927424 -2.095580459819546
P 6.1673808770349945 1.6641649399866094 3.596040932618939 -0.05092815430843487 -0.2703152448546377 2.001856036281191
P 5.343736505423451 3.2347819254883743 11.092825053441675 0.791822897691533 0.8699726067200824 -2.1763215837243552
P 0.21047495475189168 7.923785539199198 2.8240633270789326 0.0731486562695321 0.51464692116132 0.3847205937811116
P 1.9099444124529341 5.537756701105083 13.226094999710288 -1.2148711834082497 0.44392204384193223 0.7720598561319929
P 2.3849168406329517 4.173662874335668 8.30169554024611 0.14280061223971535 -1.929313903247406 -0.43048648716231663
P 5.781788748989582 6.5152211584997675 9.332313476284355 -0.17610513992911606 -0.9350351435473704 0.38632161971964435
P 0.7554658449192173 3.5947981119270516 4.203954058958391 -0.3406058628500844 0.10843910404071001 0.05176427705648504
Ni 6.980867759232391 1.2689573044829108 10.967246899817114 -1.0084645642821148 1.0468665610990808 0.2848324646342062
Ni 2.7248796947047853 6.704998943699319 11.734533558083982 -0.30283044387352365 -0.051850666122704246 -1.3998597418699246
Ni 7.495619794069284 8.230369780403201 2.2153839503880923 0.976887303696466 -0.5377343991084029 0.5939402568760094
Ni 1.7182229678254692 0.6070020359826165 1.5134986285155887 0.0008613195590307747 -0.2219736203264564 0.7428017305978238
Ni 4.795624546751688 1.365224513263539 2.135977052692971 -1.0438527139734217 -1.6894585175445227 1.0562122639800389
Ni 3.5192663852163335 7.7539956747511285 9.601975663971174 -0.1454125959412657 0.9602224414462753 -0.2650686517437177
Ni 7.027375417755123 3.406945297122454 12.445992337090612 -1.610340788175749 1.7459184003044639 0.8061966499147019
Ni 3.9018122008891503 5.4142128487182966 9.508537040329148 0.5103017568187469 -0.49665228435611236 1.5162204147505565
Ni 6.923726040955014 0.7755098327695812 5.696172420093265 -0.7732621039702101 0.48053866662370137 0.3357318225872347
Ni 8.638930729957327 9.088710341706305 11.200283255159178 2.656087119627458 1.1655304281915926 0.9761722799073123
Ni 3.5041656465840787 4.95342539655546 5.259066776046594 -0.22246007304457172 0.14466774735544116 0.37697745950058303
Ni 2.9447748565205245 2.729430474230719 6.769309775020426 -0.5591416611395854 0.2011111750551504 0.3647251244957912
Ni 3.6580978665649835 2.9226657305280015 3.9892170702398086 0.9703099075892644 0.2864959683795582 0.09154104273379074
Ni 9.095559872286406 6.497700190099101 5.605003579504318 -0.5998303971081992 0.17849189499373774 0.10548079274333447
Ni 1.010375844438498 1.313913773269904 4.0486014724724715 -0.3806921893480089 0.2547749831271935 -0.7324741234195709
Ni 8.839865867834424 2.2276953508509614 12.227823107468796 1.8724153902881495 -0.7298019759040463 0.4358042998308043
Ni 5.938608424562918 4.283003061672314 8.563329853824655 -0.32361652738093943 0.47023574203579666 -0.5334758809423651
Ni 8.543261570231442 9.18145466777384 0.11864171904119258 0.0519689368681234 -0.3617624423230415 -0.27140102171964875
Ni 5.398981286855316 6.725902627065876 1.708376650810118 -0.9657906795626721 0.30523339688806145 0.8397773140836247
Ni 4.5962312540938495 1.502196435832598 5.529740974868235 0.42462848571964285 -0.24114299416605567 0.01861992909403245
Ni 6.715212500212348 6.994034182953213 4.044388964443127 -0.7512277498779901 0.017982809730665805 0.8366369686824301
Ni 1.4876189901232426 8.33878486060829 4.530347740649099 0.2896933922709333 -1.2820883046846951 -0.6268956287561074
Ni 0.2752857177046972 3.9605518314846684 8.701122224940688 0.4363709709675517 1.0492854549532187 0.7126534891492178
Ni 5.660954806382098 1.6358697440840912 7.840915563696457 0.27166481690399663 1.4004436393978525 -0.28968439340986885
P 1.4793958156205294 8.430576045994828 11.175842672304807 0.00881322741625579 -2.151851623607449 -1.1369834697918355
P 4.714364631438511 3.8879823164982232 6.7561667125908045 1.7759563414274508 -0.4579548677859145 -0.28082102948196797
P 0.18246196324708033 1.7593949074379178 0.521640812386212 -0.61912652633365 0.544936573283797 1.1203093515702642
P 8.944113293689275 5.79197427195317 10.158464047215931 -1.261529763807053 -0.23375364368052 0.45132219296074527
P 4.878884188591659 0.5055775885564799 9.618906993381932 0.6568530943501462 0.03664284803401431 1.7243332179345208
P 3.9527865382894922 8.502304554498041 1.8326157352230439 0.29271880936081845 -0.197373305279273 0.5019114758725227
P 5.119384009246583 4.747453564295451 0.27666029607895753 0.3442843401429361 1.9163470586740932 0.2276400745836144
P 3.1584932929427474 5.098545737495389 3.0619952746050543 0.08288490972068951 -1.7195098284039485 -1.1481605694545776
