# total energy = -340870.03951006633 ev
CRYSTAL
PRIMVEC
9.18072432839868 0.00000000000000 0.00000000000000
0.00000000000000 9.18072432839868 0.00000000000000
0.00000000000000 0.00000000000000 13.43691805644924
PRIMCOORD
 96 1
Ni 1.686939764042754 5.271691352995852 0.42767303361241943 -0.4265187607638203 -0.7673349398524978 0.7392011577307592
Ni 0.43965755136489243 6.630980240626772 11.08040551288906 0.5400391359821796 1.3605051513317021 0.2797236826527312
Ni 3.84777016493793 4.208499191696141 0.5688119835249892 0.8998423976963212 1.4442074147473645 -0.408263156987742
Ni 6.645889737202546 1.8795238217213401 7.884232678442087 1.8834960735823434 1.603249685656923 -2.48456857062776
Ni 2.3459138066634124 7.736669975602135 10.611497255218703 2.240090341440884 -1.5378999566065192 -0.9370305767108443
Ni 6.457638981484407 8.57389696496863 6.338517245049684 -1.0749913443597552 -0.29275789012887 -0.8100682170549662
Ni 3.8683900721480224 2.5751014128934853 4.990887877524203 -0.622968011566927 -0.5125000500216464 -0.7324538117045967
Ni 3.6280111627616267 6.549051455255951 1.3100847947135152 0.1070396525900221 0.38548986784696837 -3.2851015944987805
Ni 6.760566166838014 7.362289211523618 4.014400314476298 -1.3732989606622608 1.670246720502762 -0.6499075162702483
Ni 8.553607563840268 7.744170627512484 1.5074345664761435 -0.7709933625406915 1.1707988756793835 -2.5126666144155565
Ni 1.7393249779967996 2.377366968774622 3.517731382085603 0.2606540676157898 -1.1679359523092918 1.0499431431418755
Ni 4.913220784462788 7.805268349009887 10.486936857594639 -1.762631599294087 -0.46404452562342013 0.08680789892417953
Ni 8.747036248172162 0.03870960675005915 7.0519899044025545 -1.977378619965117 0.411688123508891 -0.04111631042433564
Ni 6.325207030680497 3.4915580546300147 4.504713431300854 -0.45855676303597154 -0.7220326163712727 0.43206334473113334
Ni 6.148863674629094 2.3478968431537868 2.3277717769938384 -1.3208404857522285 1.285490902608341 -1.0118738470739799
Ni 7.470658483432758 4.117674284292116 7.428734705037884 -1.2285327400557424 0.7968018389633632 -1.546563545818788
Ni 2.802498777847525 4.320669283545166 8.209621424338977 -1.7115478932443942 -0.7651181347068372 -0.9315605547352085
Ni 1.9284662639907086 8.68898652720626 3.122739891521486 -0.755582684412576 1.1607036962269106 -0.9528711432875268
Ni 5.205828835486858 5.018367622075071 2.369856218067331 0.6835336889651261 0.18813430317950827 1.1792053545755241
Ni 3.7090310564076923 9.094737826875555 4.967185083029539 0.18511814206100377 -0.62071443964606 0.8396636713238959
Ni 3.028913805280871 6.062555683675364 12.121094800385274 2.1443715131803196 0.5681713754420215 1.1489547832210987
Ni 8.632855577659287 4.3011877861721395 5.034907615320709 -0.5072380302917586 0.4679798561220843 -1.8128205614436521
Ni 7.514422997088372 2.7790787496672285 11.529991099720112 -0.47277650617977934 -0.13735450152347956 1.079342165129283
Ni 0.1760321294911083 2.8724467177556696 6.679761102145073 -0.7042716928434257 -2.172536662760626 0.4130374384479338
P 8.492656733934746 7.801283914580154 12.671685800010053 -0.3805523213360349 -0.22558164939268893 -0.02394545507200392
P 1.2134163561700309 6.851482881486965 1.9308716138077364 1.4124946570251158 -0.5391325650075102 0.07199011718505667
P 4.699328265237175 7.092109670434657 5.14460625613636 0.25937083002799205 -0.09395582282287045 -0.2996188789147614
P 6.272941166144855 7.244344443968829 1.834300490943872 0.20104484059358926 -0.13631449029473944 0.029912985509348483
P 5.748180134879644 2.5599623982053985 0.20728882409817864 0.42903278543492557 -0.535454859045607 -0.792724583570196
P 3.903992921729829 7.958017243115636 12.77137469691156 0.19629395617216516 0.22526206126974108 -0.6102258814099103
P 7.409927990915055 4.143977059963048 2.6398705061154257 -0.09040744334997979 1.148331804925119 -0.3663276930962207
P 0.06772161421872007 1.0230448530941303 2.4719495467134167 2.5664970299724508 -0.3068123113394071 -0.038152856920637516
Ni 4.549241781234242 4.874891259706718 4.89549923197497 -1.1102082585805202 0.8095532250917605 -0.21388390133978646
Ni 2.7115086174026346 3.0489002425009826 12.490488594919478 -1.5904270799709577 -0.8463493108741876 -0.9772122911360526
Ni 0.5550032558158621 2.5652045918906 10.710769347228252 0.5284421751731995 1.2725109454089054 0.42315498649791
Ni 1.9380142174628796 2.1140637903305235 8.447145128408215 -1.1512011560531141 0.05965319288625855 -0.435761876628643
Ni 0.3705882067906775 4.117600838496176 2.6235719659239405 0.15159944147826795 0.39192559616998307 0.41914792222104585
Ni 7.948992590939536 6.829678660817344 7.22589118773896 -0.6574112808464614 0.3813660754865819 -0.2860761072333202
Ni 8.673342572671087 9.040332853533167 4.3819405207354745 -0.10282330051582936 -0.6528308605646305 -0.43232611147421673
Ni 1.4185504642298263 7.809877072705108 7.474487763618567 -0.018616072439290518 0.26506273820644677 0.3216807438108073
Ni 8.144468576833251 5.149064415949903 11.567130802581959 -1.0735782660623125 -1.5469990906943099 0.7490307422266713
Ni 1.9808239357712767 4.623412854408924 10.92172862497852 -2.636549306704846 -1.0932564612175302 -1.3771885255246539
Ni 3.863487565269042 2.109601958227182 1.3154518462518143 0.8058577785180443 -0.7223848575043688 0.6560437110749733
Ni 8.521888160718778 6.279744082993776 3.0595186684489755 0.5817205748813659 -2.413701768413869 2.432255877266972
Ni 1.6129523053579218 7.674819434696351 5.082904442967353 -0.8150767260131511 -0.6228073176193467 0.4027702521939708
Ni 8.64041131391659 0.07438131176555929 11.078725440306938 -1.4691789970910376 0.6551037157592072 0.7956882941842103
Ni 6.116703596731965 4.8467156162393215 0.14644265445187088 0.3593834005679037 -0.6543861208668924 0.0012127893611785564
Ni 1.4561363503020066 0.41536260014046367 10.215080916213354 0.9726964055435698 1.7432508807746299 -0.5415468308759577
Ni 5.009691837429686 3.2557786882143476 8.795256167423972 0.3103038694324334 -1.2063544041864902 0.7794972862466447
Ni 3.857070238848804 7.97389071576312 7.991741716466283 2.240372134347361 0.16278374022986158 -0.2941532278144999
Ni 6.071736408167836 7.33158886882079 13.073597720696595 0.5839389226889233 -1.6459937614926683 -0.0567758713384635
Ni 3.9904478042754383 5.128270074974454 10.07508221228275 2.226670211380236 1.0593523522709176 0.5469736583184839
Ni 7.361490488492773 0.48770395492379565 1.77149607276332 -1.600572910155708 -0.23333558230649493 0.46851078892488984
Ni -0.007258280783748402 0.6328640621640682 0.34230973920896507 1.4865182597004334 -0.3126309749037132 -1.644069804997078
Ni 0.1356213344925941 6.093357014347608 8.806113292208769 1.1417320402204143 -0.964566577347584 1.7470468574819524
Ni 8.073575022302382 2.2356992091312855 3.726648866708746 1.528521857825729 -0.03992254722655059 0.06480414095957872
P 5.876361410243539 5.466322712236259 11.559256495184766 -0.2518819778501146 0.31602997328293314 -1.4811842490820297
P 0.465830878820481 3.825846594849907 12.697927982899335 -0.44525978881674927 -0.2158525950303831 -0.4266167197942653
P 2.8501650994124397 4.286939301759823 2.459816301224166 -0.24659193309576888 0.16994117721024926 0.5669858397743526
P 3.619427185361165 1.0043528980274572 3.1641789276631567 0.21300586961020734 1.0685317047773406 -0.5452757017907706
P 8.965234527184744 6.525392728238851 5.415561568444933 -0.5324451256850056 0.6172984719859755 -2.3651670540382748
P 2.8940122395884864 0.4623137432674149 7.056370946130363 -1.5042760979044867 0.26812157963742855 0.47422789391432524
P 1.9000519216865077 1.0573348590735132 12.682408886217258 -0.5450669282140742 -0.3052575652577775 -0.5803527479995617
P 5.338986063525673 3.441348672380685 6.534198879172029 0.2715498885926872 0.22566983823112105 0.3157463806042433
Ni 1.576357937530928 7.58965903430418 13.031015684355612 -0.9767422934781694 0.7856453081259114 1.0771914373348674
Ni 1.1908501353675343 0.8351815239495732 5.746500062297522 2.0293897229250857 0.7426487499597274 -0.5236426969020271
Ni 3.7874803471958662 0.9042839191319612 9.239117572533967 0.6776026681926717 -0.2814954298411733 -0.14868561026558264
Ni 7.090420417128042 7.3338932306684015 10.898550049852378 1.297301522090024 -0.8185410304126677 -0.6835303465310164
Ni 2.8768901884100258 0.04753320105977403 0.8966969684113821 -0.3801023782828099 -0.5892179116996755 -0.06898526892046183
Ni 6.660349378278189 5.6448510807168715 5.418813381060166 0.2743660178852436 0.23146227654318202 1.5297935254493007
Ni 6.179031535311357 0.241327278226468 11.794026899978709 1.9725755421495188 1.1742634371892164 -0.47663676046613396
Ni 4.489603794931144 8.224882542662813 2.6747526688245737 0.496337581329171 0.3221391715044646 1.82147360913296
Ni 0.7649361285678726 5.204268112323137 6.715382313175865 0.7542577949535656 -0.04849331961469713 1.2890634504509477
Ni 8.589026798932226 1.4214332117204622 9.023629443391563 0.735087906893334 0.26475446293740856 -0.14171560670565272
Ni 4.888800057312813 3.01268228437818 11.68090109471002 2.171401520714918 0.9544487721872917 -0.4675916195447301
Ni 4.841611133421507 5.267119352198601 7.753155802573267 -0.05247595841152898 0.42890551582844194 -1.752942139920465
Ni 2.970955891559895 6.4542329326977 3.3611917668369116 -0.21921919750977087 -0.4620604053138559 2.144115945526088
Ni 6.0869029650294 0.6418272034860686 3.9054269508955533 -1.1286446109088368 -0.3660181322756019 0.5866169837417188
Ni 8.14401872133312 2.805051019256432 0.5462466807949421 -0.5774854537540958 0.05085179254454468 0.6447164589876122
Ni 4.039968632187833 0.7668383746827129 11.640993403413692 -2.554426471961162 -0.6137765748756462 0.6511575866272657
Ni 8.434414217754503 5.228698020197606 0.680964631997477 -0.13850121353341308 0.6163355938520739 -0.052664677383567365
Ni 1.5902300122390536 2.7402534657885647 1.2180067184162668 -0.8032522225743973 -0.6167824515815055 -1.5453330158457965
Ni 4.787169437181148 1.2849892843133428 6.786530173775175 0.12478540660921734 -0.597712579434248 0.02038062053888103
Ni 2.9429271396843775 6.056119995806142 6.214803310223825 1.0504414229345327 0.9422069787054612 0.8093570499205545
Ni 1.9431095195562016 4.6634040902981315 4.605168000625034 -0.4583793569178428 0.8043295147989761 -2.899716884771109
Ni 5.313289215671244 9.168495767448075 0.6701745265014746 -0.15341258342760675 1.743108955880127 0.01908118500116714
Ni 6.911148409963541 5.187017531001783 9.369684000121007 -0.40701565773388615 0.21441303437037912 1.484021975641141
Ni 6.036307992351388 9.140687352960379 8.671757061551238 -0.08417637483860341 -2.47042004704152 1.3826834872009541
P 7.3256030364516995 1.2846128746091514 5.507066767533851 0.5680245654515121 -0.03989657908462162 1.705686806477927
P 9.10552517815421 3.670205772529028 8.688324596970354 0.8106906811303135 0.18089304823606264 1.4987158302078898
P 6.626160360268224 1.6641348444034534 10.004363091517236 -0.8554186201653075 -0.3539051510621518 0.6324898350144333
P 2.11776362230099 3.412254956464041 6.111070304183384 1.1240973578577864 -1.776246361864044 2.4703434281673133
P 9.022733404681096 8.413491346636158 9.07106165648192 0.49877190180227643 -1.1948877983077875 0.35391749235732595
P 2.681992588159337 6.410798925123815 8.515122884840276 -1.1351338181776063 -1.6491510761747277 1.5785172159072491
P 3.3252125075509134 2.882527153248404 10.177699760297356 -1.3432561344432672 0.07521839431436722 -0.37240218142507475
P 6.059764743429653 6.781590025925776 8.241641037151373 0.6615312165521059 3.4678738620354275 0.8253511113559656
