# total energy = -381164.0410897504 ev
CRYSTAL
PRIMVEC
9.35071284566672 0.00000000000000 0.00000000000000
0.00000000000000 9.35071284566672 0.00000000000000
0.00000000000000 0.00000000000000 13.68571343417731
PRIMCOORD
 96 1
Ni 1.344277147142891 1.477506100499772 3.2934668545736816 -0.27538520317837734 -1.2910822806531894 1.247653262935277
Ni 5.476609521521492 5.971841963105372 9.022607331438234 0.020630788876474147 0.5883023418639417 1.2508319177735747
Ni 0.7046407155544033 8.221688873572738 13.614177514255575 -1.34840425430311 -0.3133997347489377 1.1948975684998002
Ni 8.162059379218666 3.2421725854457684 4.844755688043541 -0.4977732853344331 -1.5798539324408016 0.6094542933512084
Ni 7.930330019161801 6.37723275787195 9.572047724201264 0.12541969775910658 0.5666184291326049 -0.042973675348048565
Ni 3.7006380250224016 6.619855698126793 10.95082900089826 -0.548537403261178 0.4315604369527858 -0.23457948201592504
Ni 5.734567630467048 7.927478051813832 3.3756081895514694 0.7795893317398187 1.175418633839582 1.7934830374573048
Ni 2.539653546584001 4.4176600191520325 5.030977935010714 -0.5294991556828043 0.32219599288432893 -0.5928642502030113
Ni 3.5131001327901163 5.731809170245242 3.010664837277909 -0.5098970651811605 2.0937760596209554 1.626753425205818
Ni 3.076506010022982 1.156140809303163 8.7466350746374 -0.08868069046686018 0.21026738763312178 -0.75050784099283
Ni 1.0225658795794794 5.010373639760722 10.457595741671742 0.09694704424071046 -0.48604751225707254 -0.051733680928865745
Ni 0.7307479051790812 5.473972620563698 8.079374767837871 0.260636584114293 2.217664151226884 2.059974023469846
Ni 7.638961814038245 0.6433617554948171 0.42946139918342907 -1.09342049759922 -0.6521322918357091 -0.35921473620052324
Ni 9.071977223909716 8.588311613832184 9.535274176695186 -1.0655929338639907 0.7485597161275237 -1.2629906646232958
Ni 4.980273695848889 6.294750121883668 5.1303629191242 -0.49569531975948183 0.6700384826921686 -0.524602232601819
Ni 1.1435266979837897 8.429891840687022 2.931589600967002 -0.409288770038779 -1.0518272475384658 0.29092906445024735
Ni 5.8681893137538115 2.4693361877095104 0.8803920345338568 -1.0174040328635896 -1.6890751660631749 -1.007888894284303
Ni 4.618167349783111 3.4828786296142717 5.7053681601801625 1.2593348130382636 -2.045141586442704 -0.3642679823537146
Ni 3.964870462133487 3.083042158141768 12.921065292285792 1.1767406950851151 -2.0304343621395162 0.6762363839727644
Ni 0.9682475899914587 7.301728363531794 10.946407983973279 0.9431410604839564 -0.6811736733733817 0.8185202044770613
Ni 3.768729914294216 8.399810598200421 2.5374954021121616 -2.0184404230024335 1.0729318907275651 -0.7250688320944352
Ni 7.722501080552168 7.518440479126901 13.56013320054721 -1.0422226345691663 -0.1478536012825905 -0.6688909993512867
Ni 5.333552969204891 1.197929143985357 2.9013849290738665 -0.6021860418245694 0.9089896114132281 1.1538465640957614
Ni 5.700540387256372 8.53864062841446 5.942363841582521 1.5223139292428038 0.10160279784516695 -1.7692347064329015
P 3.9714066102522727 3.0061886511484914 7.861538696586288 -0.3677549124610505 0.31595541129125587 0.5508665656149868
Ni 1.0602305499978901 1.1576369233217692 7.448887073473161 -0.2850047285460124 -0.07784657596583368 -0.30697377661793585
P 0.8024744164448466 2.3151522873795267 9.42157325156616 0.23918561332936872 -0.5872469040162338 -0.9132658701910787
Ni 7.6975066257288285 8.858406947753682 4.682361862036456 0.2149388249668621 -0.2083622001906089 -1.3203622605642291
P 1.1770490027131844 3.4442134329459178 0.5063532440984323 -0.7809342758034873 -0.5835221468664789 0.8872342220140074
P 0.8996367361694406 2.1844106235785787 5.208645215005246 -0.4202552963526118 0.5655969298466259 1.4648677713101932
P 5.432184285881504 1.160741359910377 5.132074099532981 -0.09404324033035416 0.34976721763437824 -0.7402679084323767
Ni 8.152792823015924 -0.19750855709503407 6.914282521347135 -0.42351802626428353 0.5630327686638755 0.7186305326682592
Ni 7.919352282550277 2.438656499615467 10.000465583856716 0.45466668395294596 -0.08627388079758044 0.5689630181053813
Ni 0.712431729306295 7.891197286862632 7.364720374142685 -0.2570979748334153 0.45518064747488707 1.136807092114971
Ni 9.00877575733622 5.503231000340064 13.218304809861115 1.7273473221704962 -0.11129354277036962 -0.5113893334559708
Ni 2.370433700367025 7.332641819441244 8.809835606139632 0.5940711260269188 -0.507630637744487 0.79547180729803
Ni 3.381348592026609 6.798416906247441 0.9302126313534428 -0.9845185949894787 1.901174721809029 -1.3380239395100504
Ni 8.66559525360581 0.11722988407041098 11.817845776105777 1.0715936315321157 4.122681129600139 0.7782557005300598
Ni 0.8402176328492342 5.833189596431043 1.7070324326642399 0.9943013854078553 0.7648648810454505 -0.7797631383135216
Ni 5.661949996288949 6.7581807898595505 1.3909886320175608 -0.07365336382009251 -0.2377182847552229 -0.4170123639352818
Ni 7.786039172779849 1.0495333347648559 2.7794450910586312 0.13192536008810826 -0.015551317471037733 0.49845899854754794
Ni 2.184868808496777 4.295408802406675 12.515434184204976 -1.0627904314181889 1.5827312539885967 -1.1826907420209631
Ni 5.389301917823204 8.062745460521064 12.773628866179722 -0.7753213004920841 -0.3584472619068795 0.5889476887574244
Ni 6.014153937694077 3.931441664530255 8.103694101210316 1.422030621540009 1.7831528591758903 -1.059463166817169
Ni 1.7443193342929524 3.6901932790300074 2.9109918512158415 -0.20784180891076465 0.9736628832218972 -0.36627781369489176
Ni 8.557061532268548 2.6098493461944803 7.732386653930108 0.9991371162336017 1.0369459595512591 -0.12063333211405675
Ni 6.820746407975138 3.2401341300954174 2.947929971263967 -0.6224494200592958 1.3355405109665646 0.19310475981090616
Ni 8.96131154009594 6.98340205393548 5.652924688471707 0.24898871546271956 -0.2864517454051841 -1.8345898347999436
Ni 5.307230713190039 3.943681747344977 11.264190082095325 0.16426906652613646 -0.2050920140797694 -1.8124703771930848
Ni 0.2941042236350808 1.2795421637003244 1.3621557096652348 0.25871828404565766 0.06716158544816175 -1.0963271297230537
Ni 6.463006844701166 9.388302481006145 10.55648887830161 1.0820991590491298 -1.1279298442299992 -2.108959709339929
Ni 7.958989953330725 4.774791786105946 11.306137378891997 1.0008353298716313 -1.1557797765627322 -1.9897340562066765
Ni 6.692650995844599 4.500217460841245 13.022557927022989 -0.7063771692222028 0.05215148519257469 1.8342370794462153
Ni 0.6993893553490955 2.667085058118783 11.462564515178627 -1.1569491142804849 0.40120522169969614 0.12824071214766947
Ni 7.0783491898412745 6.65274215439828 7.045884450708782 -0.5193468977401507 -0.3005550175757856 0.5014034258878526
Ni 7.979898146740746 7.911142356873175 2.141827478324 0.5345652573518019 2.0485117884665174 -0.1883253361443918
P 8.272079863861917 7.623916517438636 11.507426429097796 -1.9567902542908042 -3.875503499204229 -1.3724934340418298
Ni 0.008976684111637118 4.7063726218925614 6.055982480440522 -0.0008206961290824575 0.10661953433346798 -0.4682935307077612
P 5.727872520233784 9.089771630018513 1.4855018948579604 1.827166802862995 -1.2119267560679452 -1.2196277242566287
Ni 5.685981327712811 0.8958356714909191 12.325750303427252 0.14717817248212073 2.601787220633313 1.8834767903086336
P 6.569978997031509 8.587563556822882 8.261407895552948 -0.618289118034019 -0.41787574037684166 0.5093615043926647
P 2.708041179378127 8.909415085075537 7.158750357201171 0.15598805746426683 -0.6752927891125725 -0.43838491607378693
P 6.31769677064404 4.731152010325726 4.860426547317179 1.2743773091936825 -1.33196847734459 -0.8212031506258631
Ni 4.408702036465628 8.53465722483992 9.262024847408213 1.0759575649277662 0.20802152902173854 1.1227274740934534
Ni 3.0832478738193267 2.4683356614595677 10.568873897161884 -0.49889505764370207 2.228467926710607 0.9105515565837092
Ni 8.078968946910324 3.1006401992856234 0.8326454257725637 1.7591652380120415 0.6160951957064937 0.21988305634601488
Ni 1.8632884509099932 3.8164372500625205 7.242889939465059 1.4538014861937028 -2.1342393098423247 0.1889424009031004
Ni 4.262325981170245 5.169139389272688 6.995479434350678 -0.9807686410287431 0.7966917957480603 1.5295461853251853
Ni 6.689957990611108 1.9868394167090153 6.726034910027273 -0.07837776587895534 -0.10862190947547745 -1.3231753045329921
Ni 4.475428721695464 5.500687606508435 12.859451576714543 -0.5284755995142962 0.0721433549334693 1.1719815831335751
Ni 3.444325641497313 1.8253619605383264 4.322919533995058 -0.6078740933482821 -1.3083423532852176 0.8009225459999562
Ni 0.8201136007242137 9.135524666850014 5.415929007069348 0.36755359508352187 1.0615311050897913 -1.0654664355884553
Ni 1.7043637392835511 1.4044396321160921 13.080379928628334 0.6891384367464132 0.37932667645904994 0.1436187372656365
Ni 3.1013508534444614 4.629874441978704 1.0877702687953834 0.3012911244108618 -2.101736195008296 -0.531612088260749
Ni 6.097197616439337 6.356838853655825 11.482655456305986 1.4923392372575845 -0.04874245951102573 -1.338520933751127
Ni 7.731730233904445 5.690114342689211 1.4658906452878182 -0.11674582413419249 -1.5804452861678977 -0.18282728914429802
Ni 4.225381315623289 3.635042776019137 3.3730629255773157 1.5264971140862162 0.34450545501480667 -1.756374048420149
Ni 3.2305870525141867 8.318440697013477 4.8262253808518425 0.083187785673089 0.017175740448338164 1.0920287594580163
Ni 3.930506593268626 0.44234855131119805 10.983934263844967 1.2316404324467884 0.1126001773969351 0.806609054861772
Ni 1.7003522835711633 9.654049733561068 10.361521844895684 -1.6659699475042793 0.8383130708332723 -0.23476485855385376
Ni 4.08947805845815 0.3261369598447009 0.2755196823102071 -0.906787975776219 0.6591799427111099 -0.006179132227518391
Ni 2.4462118754094284 8.7309754362189 12.252997083916219 1.5281073959961295 -1.8720153266362536 0.675395633239024
Ni 4.564971145709045 7.446009859201129 7.426770767993114 -1.3813385431372855 -1.2476735746502512 -1.2346319109749446
Ni 3.3204661021819537 4.816944798580175 9.280747779279807 -0.2524751313494233 -0.44883593620378187 -0.04067099535680093
Ni 7.53426188487366 2.3524242278680534 12.27492169978763 -0.058645834667666735 0.20759806833107472 0.20608266012781282
Ni 8.98816678672992 4.798785714679342 3.3451304768499384 0.14504004309319538 -0.25225530202913327 0.8049987729518587
Ni 5.766322650511963 2.1018064283262845 9.108581523517438 -1.0699753792024025 -2.431996967178631 1.637837193823805
Ni 2.9250151149264894 2.150374029655288 1.5690944604337962 0.6036695683486314 -0.45814410097858516 -0.42776960245178586
P 5.716109323762493 4.483619945947333 1.2856650103214704 -0.623469633793694 1.2809634470516325 0.8277458368403873
Ni 4.787069271771133 0.8439457619693485 7.249445724080339 -0.9734052586851365 -0.1607073173168071 0.1937804457216921
P 2.075904954379165 -0.029436978387338344 1.2051665955503645 0.7930246313091182 0.4572043627731352 0.10628786202566211
Ni 2.2371018891713654 6.3439816238084275 6.453772080921319 0.33752928080728967 0.3505791720127123 -0.8177385891160304
P 8.122262746323742 4.779055711058974 8.09897199133909 -1.1324549857938624 -0.2921724499390452 -0.6120914738637394
P 1.3213024462446696 6.241123785029252 3.8646944077326633 0.25686040490131246 -0.14559385871413633 0.6674324125278893
P 1.9556828422715415 6.52848053444042 13.01115753820121 -0.04708975439895116 -0.7068944751782535 -0.933258768373238
Ni 7.35996460170604 6.403779430989594 3.638688618868228 -0.5940065913375705 -1.1373403389106218 2.399152152734468
