# total energy = -381169.67799526633 ev
CRYSTAL
PRIMVEC
9.20577809311797 0.00000000000000 0.00000000000000

0.00000000000000 9.20577809311797 0.00000000000000

0.00000000000000 0.00000000000000 13.47358677358524

PRIMCOORD
 96 1
Ni 3.037105790540366 5.556073580108433 5.383681581046395 1.4811611091535781 -0.1905755656311492 3.150333622755555
Ni 3.35219194929381 8.393036554233143 12.196923802807518 -1.4298598877764408 -0.6970612911379156 -1.2857181881277986
Ni 1.2660706288415933 8.761295285895692 7.712011519837424 2.3350324394364237 1.3314347163283071 -1.0224508512588777
Ni 4.027141170303103 2.187532169338416 10.778289499832717 -0.04800455290373668 0.1370968769867187 0.5798588390822788
Ni 0.41630828919355006 3.728487325026588 2.4750847670956975 0.4223492027671629 -0.4539938262556375 -0.08924556183139469
Ni 4.886877970260532 0.00813974878224196 10.227556601197803 1.316448784442436 -0.1471923135495078 -0.2765409140493753
Ni 5.272287066072951 4.031283770339304 6.0115506129331555 -0.0723079055357916 0.6712258181320504 0.4190893010689685
Ni 0.7741819828542355 7.000487743397406 4.687352861539162 -1.1087023634589552 0.4118812133563035 0.08557325518613004
Ni 1.8542185704256877 7.744305388564074 9.989370907783034 0.36759241874125725 -1.1665146464817329 -0.331923504584738
Ni 8.33068582079939 1.8528377037469541 13.105433734435605 -1.7011714351060765 -0.14332640283619832 -0.5171591460602125
Ni 8.506764733893647 7.3557295051684255 10.249370612410651 0.5362012502933282 1.0862550901990324 0.45642968939063977
Ni 6.930643506787058 2.576282962513372 4.634670956589902 0.5356420353557485 0.04216506340382416 0.2799537963856663
Ni 1.9465709338993944 4.925321298596476 3.703875677922625 -2.343796558782299 -0.5558437071146041 -1.411209876775421
Ni 5.482188007018324 8.512177731274283 6.886902253293705 1.984198213990112 0.21437523915390824 -0.6557050967886321
Ni 6.383415247782771 0.667753064457518 3.10706325821837 -0.1257480276328028 0.34142347365537323 0.4926097388556226
Ni 1.878475795082109 2.8858364487740236 9.863487419038531 -0.9251240550812455 -0.012288844669682062 -0.7181067989543052
Ni 1.1981688113593303 4.86634908563669 13.044290799056853 -0.9091371927346859 0.04757723555833096 1.6762821280635647
Ni 8.700270184473522 7.946593151220696 6.566716093606804 -0.8877900945174774 0.547009910873058 -1.2249095414808582
Ni 6.248808363939814 3.0051249182608943 10.883006143547805 1.84004057350187 0.23846750421642157 -0.04673545638332596
Ni 7.877071116835386 5.350250798754254 9.618631218987696 -0.7146075275517951 -0.356874775213437 1.0002298350771484
Ni 9.148149688831852 1.8369485311636589 3.8205837678758363 -0.6717300114619786 -2.8817237906277984 -0.4373809002893048
Ni 8.544637304002382 8.611130637472337 3.0939800067262615 -0.27869678405011356 -0.34744756836226615 0.5794042680433634
Ni 1.2454865095506034 2.0037664317325423 7.768937288379326 0.016414179691965278 -0.4466137317414824 -0.27494528742748137
Ni 6.371438530789221 4.8262118941748335 3.966960238710532 -2.4961974131159397 -0.5094862028959871 0.4426971702958956
P 0.46163017474516016 6.941957407774815 8.214333994449293 -0.5742425213367659 -2.1393218665715543 1.4432933875735272
Ni 9.02161627217056 7.245711253984786 0.9654421442144899 -0.12445527696330824 -0.21980232370675049 -0.10878286053337394
P 5.498003533378754 2.1203852256405282 9.129014558975747 1.2987981612402082 -1.7126231285864442 -0.4586061282166682
Ni 1.0098646252693517 7.063482881281235 12.118844077325203 0.481161644919681 -0.48646351674856864 0.25684317851013183
P 1.1793429956392616 5.717303573517374 1.7066720452252115 -1.286010779667553 0.09599290785755725 0.3466129882761127
P 6.722335165411158 7.463584398555382 2.0319784585568565 0.6781418285255933 0.3907729706227786 1.2035495877478433
P 5.146085057414554 6.254884177326242 5.413498174951397 -0.05698541624610831 -0.5273011195902209 0.7708691782580015
Ni 1.1114043550455661 2.390510365334405 12.40309640372031 0.41979275489389634 0.02137743723451157 1.445482424805046
Ni 7.450558222885994 8.869831406844156 8.691110435504589 0.22037105172602692 1.1786988472527506 -1.1126317804203483
Ni 0.6966803802214163 3.3255320166163926 5.131428538486475 0.4897617278838662 1.3193371617338248 1.63000149982947
Ni 4.034726731258279 2.9721314104170182 7.977872543227371 0.09719335592356165 -0.5710931770745068 -0.9629277561925804
Ni 5.6063371272143385 8.17235564741579 4.519040863223889 -0.18321912526607798 -0.9062498438845619 -0.5385563807890661
Ni 6.380230048643825 5.941436647031561 0.50521124770378 3.885160305567702 -1.132805684265062 -0.7241478629420626
Ni 4.134646244131446 3.0151408045706427 -0.09021386127724104 -0.24829786004328203 0.4870301878853161 -0.2928921017138891
Ni 4.1135005723911044 4.460843776759767 3.4140455707232196 0.23584215077843254 -2.6529074363478955 0.9772567712207427
Ni 2.70766782410595 3.7943454598243247 11.75860081644381 2.072940868043159 1.453700184729148 -0.29534879078449777
Ni 6.216735433881761 7.12826394006956 9.349200194944329 -0.9471728073511688 0.0381896236958439 1.5921484335374387
Ni 1.277228031605761 5.2619950064274565 10.617414849449101 -0.3853001204336655 0.1546081463976047 -0.9746411879747665
Ni 6.033973126062433 1.2396592521663474 12.399862413958717 -0.7924713299088094 -0.08002507167439121 -0.18499447199894592
Ni 1.497715617088092 0.9593064932719835 5.4651969028254 0.5485872826625068 -0.5396866377387672 -0.05047229771793888
Ni 2.747050141783433 7.097074764685896 3.740038735083088 1.6093689111807832 1.2753563852775003 -3.1494062258452793
Ni 8.74056387415897 3.211711779177307 10.727911801081369 0.0452915248479478 0.21729729789670965 0.539997741221283
Ni 2.6100681672530555 6.356350260879592 7.672817000028247 -2.0324123118014934 -0.12659392057286586 0.2917165933485492
Ni 5.001020409924655 6.287113605607886 2.578682908801011 0.2687021347312469 1.4564461229054015 0.6437049870039623
Ni 4.044144242007243 6.796708644727752 10.158181859258224 -0.33601335838339547 0.058283309121925427 0.5791576992501962
Ni 1.237477482813948 8.99750633995987 13.414558231448064 0.9062544718702521 -0.7408919151696207 -3.5362891173850324
Ni 8.10303614014336 2.194611412511391 8.674011623710722 -0.7965424146543895 -0.5059409087468899 1.3620982068504348
Ni 7.380152433826295 6.668389307161963 4.953092368661381 0.8566782036040214 1.2496913764112283 0.7907785155874187
Ni 7.696453755257024 0.6325639785944556 10.93761481780279 0.3610592456084298 -0.431064985373606 -0.010729213492046037
Ni 5.885796925656454 7.399291245993543 11.789401508001857 1.0313787498761269 1.3597762435854774 0.594729328436208
Ni 3.6238728654457266 4.607169615816243 9.554578337227957 -0.11196485780578137 0.005263305281468356 0.25052263560874277
Ni 0.49533528921747694 5.370595567820929 6.3725349389321355 -0.6175118735483623 1.5305147198860414 0.3061381680905179
P 8.286286354189174 7.904900183300798 12.478386778511583 -1.1584398398933984 0.7099036943182226 -0.8540772756460646
Ni 0.2264952761126083 4.281662516527288 8.590610038048569 1.34322605253628 -0.36548051460457703 -0.2778575759782699
P 4.925210829262177 2.3108067406378985 3.8357005756968263 -0.18840221212891423 0.5168493281292776 -0.310031332497337
Ni 5.985992611865368 4.085680711703551 1.8124132920159193 -0.2818929223899081 -0.31487606218414804 0.21903742051626793
P 2.243981999165048 2.9540696742591823 1.1386543780836957 -0.7660992676731838 0.2750923545283068 -0.11868752124159558
P 7.376488534238721 0.05620127382445958 5.278843421063579 -0.2924331597995996 0.23783141329431942 -0.30204265786490564
P 3.1631144778637403 5.934872927418648 12.184298999052748 -0.005109810422739587 0.3586496077256726 -0.562177876862748
Ni 3.0925245732468762 0.996461012707777 0.9124610514848374 0.0583954092197575 -0.4172244799460879 -0.15471124763437225
Ni 8.252547178338782 4.045755253132431 0.7017417168878681 -0.9642063657946878 0.7140871362719509 -1.398034515735728
Ni 2.810146543223703 0.7005026191881512 9.338839091964898 -0.20403914733522277 1.042909890444178 -1.0428476697476747
Ni 7.838250351607254 5.345988523605896 12.072481938875612 1.0787356418935357 0.346161759671307 -0.05942667869774926
Ni 6.290317216302548 4.164942459062862 8.584560921417928 -1.009290916838152 -0.51976135956975 -0.3833052014908237
Ni 3.3210488027994374 7.9825693310906365 5.701186097643195 -0.13659936852500992 -0.39005229040667017 2.041836690439187
Ni 6.1744256788453615 1.9049332006466457 6.830502134667508 -0.6845521029273114 -0.7483141757756209 1.18114088103534
Ni 3.268759984564723 2.875038071346326 5.298515247768819 0.7601427929794329 0.3289965607459302 1.8784821653075194
Ni 4.548851013084392 6.804975433244437 0.38351914961812666 -2.9684090479311847 1.3426192721902168 -2.221917012965967
Ni 2.562824115284648 7.4010035206751725 1.291703196710033 -1.6597275661389932 1.0903079201121675 0.113245781400734
Ni 7.049582156715316 6.4230185041288514 7.45341293459983 1.9653890517034085 -0.7706976856771436 -1.2829203136676874
Ni 3.1645966080989147 5.07451013456686 1.3572078296380141 0.5765328600328393 -1.2578669702434853 -0.7269441947402772
Ni 4.451196121564348 8.655474869415404 2.055934654277314 1.205618297351414 -0.3862686549945219 -0.24848735034626881
Ni 8.032961759086557 5.69643407511278 2.6119489076694906 0.8193457857021501 0.9063632295339745 -1.28433339196513
Ni 5.655090926751494 5.181591742613725 11.213998965862475 -1.1929646131431455 0.026651798259573454 0.0886449521329183
Ni 0.44850917956383296 0.87534703747162 1.437119504914116 0.6152436463394758 1.2207798355832007 3.202896998674568
Ni 5.710877940572333 1.9339221951221943 1.1246993394284135 -0.37471180339485793 -1.8450585955417513 0.8609709174421043
Ni 2.3287027727942866 2.369060902924742 3.4403317488195935 -0.6592889574851484 -1.0100900157006798 -2.529755708687359
Ni 0.5074942806126196 0.306197059653543 9.74351864256794 -1.0604748959111348 2.0702692347482667 0.6385000457642551
Ni 4.865225980737987 6.109092273385543 7.752472754679891 -0.6062841231533429 -0.8376636101747316 -0.6233379933118361
Ni 3.8668777835692745 0.33165655889824824 4.101925227312173 -1.6390638671420548 2.1944997972952787 0.015182621277709338
Ni 3.5731122063354777 0.9403057677726084 6.792465701712897 -0.21437626759517275 0.19209663026136592 -0.16410991524045285
Ni 8.489209315518012 1.4944659775041391 6.515085488488953 0.5972803769928359 -1.7610868805147863 -1.2560214323943142
Ni 8.010812657559669 3.69239147004449 6.855670731331894 -0.9246525147614656 0.9579056203876407 -1.30076119850385
Ni 7.33704177611623 -0.09173373520163387 0.8469131514009225 -0.15759782515354795 0.191462853332109 -0.9697105834423686
P 1.6089858540604496 -0.13856536832199273 3.3877308547154854 -0.24005413197725112 0.28174816928192764 0.26854349766619556
Ni 3.7614808328704643 8.298612890741335 8.175085160550752 -0.14127749072696957 -1.1471904922318243 1.0313818351999207
P 6.214130198747883 3.671429913861314 13.06564636253236 0.9716558800941976 0.22489310796609654 -0.21064713957004366
Ni 7.893963719205227 2.079704893285035 1.9351704985997693 -1.0657991363375259 1.2064749889247544 0.381220293937337
P 4.91047237891116 8.955527992926367 -0.0921820565833294 1.062124515699416 0.7800266763875534 1.1846607212631406
P 2.1243713274531393 0.9477992709492031 11.326502777067834 0.059984093863116046 -1.154276452544328 -0.05842677667832519
P 8.30771740504312 4.806971818451144 4.499949000523719 3.256473903459759 -1.6229957579355985 2.1508576351252957
Ni 2.2053453494940802 4.033760124583165 7.286515864341366 0.08950807146416198 0.6527894658037339 -0.4109345331723181
