# total energy = -340893.3666016767 ev
CRYSTAL
PRIMVEC
9.01800471913903 0.00000000000000 0.00000000000000

0.00000000000000 9.01800471913903 0.00000000000000

0.00000000000000 0.00000000000000 13.19876146035052

PRIMCOORD
 96 1
Ni 6.181120725003732 1.967836823618386 11.489811727485348 1.3040334414972188 0.2042345511754805 -0.3821371493246516
Ni 4.6556621179023105 0.4460169813801714 5.869885037037468 0.08083136962577046 -0.8179903001155202 0.9190356827953204
Ni 2.7764452256611984 1.6103631205762399 4.959197331725595 -0.8174868781165404 -0.3464731202641388 -0.2577698040894593
Ni 3.435453949102443 4.137189978421934 4.6410412270157755 0.11951875889363932 1.436726275878971 1.189842522574396
Ni 5.225834477855457 4.594285578474842 2.495556025033662 -0.3285448179204923 0.7264631413388005 0.6171712023794919
Ni 7.445444972392957 6.352264416636775 2.6668358885364314 -0.6448848662446766 -1.003421859651885 -0.35410158334367403
Ni 5.060606597251566 4.531141510142321 11.539518968937625 -0.4740810839238158 0.19012947923266607 -0.05473595809029928
Ni 5.400774749432515 7.784936774227585 12.350648805071522 -0.15119757805415895 0.2521115773624174 0.10148221310690264
Ni 1.8909944062717128 6.4043163392896325 0.4815740717869544 -0.7282228043423845 -0.020376249663506842 -0.06816405857074713
Ni 2.6673003157742388 1.531744156319897 0.38319665941342324 0.4771193565295073 -0.1466377265976184 -1.407705977387221
Ni 0.683498016780832 9.128565354224092 4.627763117016804 -0.3540059383060742 0.1427065098640123 -0.061977470144061006
Ni 8.55996212707441 2.123559727355313 1.2079364681162204 0.695010579256474 0.416856812194024 1.1696650191852564
Ni 6.909982912213 0.7128967118342476 4.762099822803063 -0.01131053991681278 1.1063500611766945 -0.9470707345556657
Ni 0.8183388290252162 7.421520206142432 2.720211654267154 -0.34140084794755393 -0.4563574413918076 -0.4767072086927531
Ni 7.43501114105038 3.9118841510555113 3.633830211079752 1.4314146338580702 -0.42706949106096775 1.1550711805314817
Ni 7.6957487085594005 3.75976844916563 12.648637044254514 -0.15434357988230835 -0.6379755407193529 -0.7342733814118386
Ni 8.043176354457527 8.899048118701245 6.565301248720936 0.019005594568225332 -0.5967214191655723 1.4484075688716411
Ni 6.727494570770999 0.8074504902499111 0.5352636640783701 -0.28388912688433043 -1.7543963558684883 -1.8267595401222474
Ni 1.4471642910113125 6.552157506990766 9.29039705428899 1.7420069810651997 -0.09100728171750777 -0.8855439787957782
Ni 0.06285909938660385 4.770344082624484 1.4984289418610524 -0.23905063041340122 -0.7226939041043554 -0.16762898413730484
Ni 6.461373254505266 1.8082902859235919 7.111281007686415 1.1136782194069919 0.7494390334086835 -1.1159755000816007
Ni 3.4660430207653836 4.285328740275449 0.4977027730455537 -0.40329295746666033 0.22021678553634974 -0.33924780616029315
Ni 5.9463459927888165 5.351419210160325 4.851046205947496 -0.6913791531514738 1.105876978195018 -0.05650667683747688
Ni 5.291359299407027 2.952359441736959 9.3118977808983 -0.7514249534904608 -0.6489371819371791 0.11577857512491672
P 0.08061013967591164 5.432427945640334 12.583289877393911 1.5628877369001084 -0.06071043050617931 -1.6678769347190052
P 3.8617440453815877 6.112403529817526 12.675919213624175 0.685465101659884 0.645277730807721 -1.0897103957374847
P 2.3541140334091857 8.340184336538584 1.5032463599277808 0.34004819057440144 0.17646560859232835 -1.2943588945219322
P 6.350920733948751 7.82631137941319 5.51318868599336 -0.03527604959347473 -1.3002456923200123 0.5096528103808384
P 4.650052919030156 1.0542768838358032 12.63130714478085 -0.41391289907435164 -0.6839021280481383 -0.04818093058060089
P 4.1865455176941255 6.149774140952911 8.020649378922732 1.2074622925386882 -0.46940861814881096 1.117191888987205
P 4.536182574723567 1.1165642417296504 3.7854706641262856 0.30935256126275756 -0.14760934648226837 -0.6016705356407316
P 0.31282105317803965 5.422345816477844 3.6181632316575745 0.009014801904100603 0.8148813221728933 0.3529805823653534
Ni 1.635126561256203 1.1638636759490264 2.406530283448595 -1.3061826266297376 0.5618215219645937 1.4260533695461568
Ni 1.9346956566486615 6.573430979883714 4.923587035091568 0.5303895287075575 -1.0441602179115113 -0.6939754531237403
Ni 6.028950915086144 5.513355519078786 9.214635895695968 -0.4682117696272324 1.0283415057117 -0.06620564929279565
Ni 8.56902522171511 2.5445833089377725 10.031758195898268 1.0355889313027327 -2.2915877379892278 2.021284320209132
Ni 2.7678961572837024 5.167506023988742 6.890228973098121 -1.4609517240852388 -0.5189645747000675 -0.2691019412728269
Ni 0.4669459664967257 0.0671038741601139 9.290278016628037 -0.9389707311563507 -0.2564803958540744 -0.7562486001313492
Ni 1.423437920862375 1.0107199215327365 11.265090266818145 0.2382813563475445 0.8573765152226266 0.12998314876007291
Ni 4.205357075326464 6.830876975707306 1.6163727188534165 0.1374817711299632 0.0028850348572789022 0.05108859114569911
Ni 5.723826728849237 7.940488335876778 7.820002383382708 -0.09864474365810753 0.13333072507606716 0.0030261884208334982
Ni 5.2521580333342675 2.739985432992193 5.143556909125748 0.5300750827909323 0.3414815805868184 -0.47492414865040145
Ni 0.8242510328525227 7.4843215902994835 6.934272907650539 -0.7281328157317395 -1.0847437957608286 1.1174474566414367
Ni 5.339253921931165 4.207539432443927 7.248746961074986 0.10183265446778592 1.0764877263996235 -0.620824482861363
Ni 8.013939983487228 7.078033428262202 8.931034079279453 -0.02296380788502497 1.0978245402041866 0.8009816813726657
Ni 4.368339472780569 0.49980396812145733 10.246726684571522 0.6429362271587379 -0.8703212483087528 0.6905101202829591
Ni 8.375616076681181 7.126757707211161 4.681151507953991 -0.5590061640029858 0.15656038502796907 1.12306043195284
Ni 7.236425661365942 6.169730985171688 6.838053503782001 -0.10745745685373105 -0.6420175719992104 -0.12928329447957088
Ni 2.3019629127055348 5.280447513819716 2.5876172269730175 0.6234698909040101 0.025728258004039557 0.3145328199121164
Ni 2.2151195282379295 5.39630181914218 11.359606169614416 -0.43319025924672494 -0.6617767569040087 0.5557285216929784
Ni 1.3238520958700837 3.3890833693586813 3.7474182918418095 -1.6954705280665576 -0.47378746394279686 0.18393569171712837
Ni 3.64846823617506 2.8288398324895256 2.8126299691893677 0.029754348444297144 -0.7652785715441014 -1.3705869610477364
Ni 1.1718897000587012 3.5275728662713517 8.21401163033265 -0.22158229842530872 0.15025475452491543 -0.4934468900449372
Ni 3.553761151680897 2.724122762869813 7.210272546174406 -0.26163288658929135 0.3782234160925421 -0.9172251119491429
Ni 4.193633669323568 7.045153783426389 6.027913844555118 0.9280509989200534 -0.7599327338511557 -1.9756855485334102
Ni 0.5564839307440734 7.4047196635398205 11.280888909107741 1.4463432301434445 -1.436772555735874 0.6106552556378452
P 0.13965913211157435 5.498629117538226 8.036606738093596 -0.5818925816828558 -0.09985161948201512 -0.8763214317562456
P 8.483832132092529 1.5352882321346186 8.004071581034175 -0.2697984531192192 0.3227176697157539 0.32499438156507254
P 1.7482393931749123 3.3386456695323763 10.347511904177955 0.29077608381215087 -0.2862152039143458 0.6728913787599314
P 4.047794498647544 6.138285203070073 3.849669838999067 -0.32121537413861456 0.022408192491871082 -0.22696875954820264
P 6.875849764735338 3.897852135870507 10.457813824057355 -0.23688730421349524 0.22899401750834755 0.5360518691996574
P 6.2045855730187585 7.7200702670131 10.072014568511289 0.06078062162248241 -0.20088851752138306 0.8664409394177399
P 2.407834286916301 8.44168197850981 5.943520651942118 0.03772425402365116 1.5934640670250686 -1.452462455667305
P 7.020444450774131 3.7430220145907236 1.6048765665668847 -0.49623396587177115 0.1465896469685024 -1.2834545889046025
Ni 5.262799278783049 2.9004067171348957 0.6963180121452294 0.18361096138785798 -0.7765474595897013 -1.0335950408011554
Ni 1.3922356248854368 1.1722684562526409 7.076410187431033 0.6873288943415002 -0.48243356965356915 -0.18503663809079102
Ni 6.736584719425553 0.7102841958965254 9.25210750848307 0.48141515569138377 -0.11856539384143454 0.54435858929314
Ni 2.6953282741257776 1.679143441794768 9.11852290428192 -0.5551811338299406 -0.3230966503217274 0.6317143903009894
Ni 6.287695503574672 1.6861684673918877 2.596169902552361 0.5606748099546602 1.4866599274846204 1.1303829337561822
Ni 4.049994891774242 7.001596821123322 10.134668959193073 0.09919290285209369 -0.5861444149806744 0.3273641673488298
Ni 8.25968060931716 7.076572511514149 0.31198057514767824 -0.7996069125123261 0.028962448670621085 0.8684006342472721
Ni 7.630548535174064 3.7228487382611255 8.338198571921787 -0.2209734611967162 0.7708126139884531 -1.946654451408383
Ni 2.7577959921119772 8.227287936730697 12.31130325092488 1.2052413736279692 -0.0011317996115980508 -0.029025440698072592
Ni 8.912827629756956 4.888948879355319 10.260030946783884 1.0080143641185737 -0.24109851408136546 0.05854916118880239
Ni 8.758096706527967 2.133885342642479 5.673078809664085 -0.5891932291093273 1.8171551842632638 0.133830290420305
Ni 3.6001678034431297 2.6200189175640984 11.487806123258391 -0.5941498017836543 0.36526454193902896 -0.430972939880432
Ni 1.0431486661376699 3.009353230920268 12.628680200035738 0.43139305813698614 1.42612356066246 -0.8399326087145663
Ni 3.163479947839878 8.114896545181397 7.866936588415071 -0.15794286719779252 1.0078747532169159 2.168972599558452
Ni 5.6293631304797485 8.268752721962477 3.2876533624220885 -0.43244515355058427 -1.2365815785021477 0.5884021006665996
Ni 2.816313824075662 8.432907460016873 3.6319959489405296 2.219490662912661 0.024797004439021813 0.517652026536231
Ni 3.3968388533298275 4.533937091573781 9.358264753440215 0.2623774780647997 -0.14352746310341088 -0.22750637721922753
Ni 7.212762417249328 6.018715479845154 11.390174499866736 -0.5088945920585752 0.7326559004130736 -0.1692595777621924
Ni 0.5386769788261364 -0.16086316636896583 0.21461678649316668 1.0019285629358101 1.0901706232033546 0.6348714478727324
Ni 4.3889095413133425 0.4462280026882235 1.5429084460365008 -0.14887227235509198 -0.8280880506711545 0.37729910450605986
Ni 6.264420033656615 5.496293454342264 0.30841665972279786 -0.9904719843594362 0.4919996160754494 1.2621653405085231
Ni 7.79069927917824 8.584842801814402 11.464061717100217 -2.087612868233037 1.5213811330158895 -0.24265454571457565
Ni 0.2150631777217385 5.002891367698849 5.883928775628475 -0.12907066424813254 -1.2659708302975423 -0.16733484993565373
Ni 7.88794944097457 8.781759950644581 2.550079782752207 0.7296040009606274 0.7101960287476607 -0.3557159790186454
P 8.574787726665765 1.8403132203207326 3.514077422361095 -0.1572424986966582 -1.5152205127311322 -0.601129575535597
P 1.8547059556904415 3.2271380424356018 1.5085128746244665 -0.46713524873360196 0.14981586721528392 0.361161575514249
P 4.728753045328056 1.137963966687244 8.069392595681387 -0.7176450288265382 -1.0265859564731739 1.1860920543930282
P 8.544947149386086 1.4302374963440543 12.298183857807178 -1.3004945751060246 0.39841377499748803 -0.3515183959975301
P 6.356728328922493 7.591338251096688 1.201661740503286 -0.5248256614665348 0.8220053348121843 0.5009596534822147
P 1.765175205846788 3.271136886964932 5.9783653199841105 0.40737792616931134 0.07737117899131192 0.42749475152384436
P 7.1104351188532835 3.8143905031345064 5.980966112515829 -0.3257978513029744 0.2689178502864788 0.10622615554979126
P 2.3124959420989057 8.3818204638581 10.099784611930763 0.7317015069196043 0.7669024803007696 0.07431388022222685
