# total energy = -381175.0942244865 ev
CRYSTAL
PRIMVEC
9.18685760637981 0.00000000000000 0.00000000000000
0.00000000000000 9.18685760637981 0.00000000000000
0.00000000000000 0.00000000000000 13.44589472873411
PRIMCOORD
 96 1
Ni 2.077874277848092 2.7698743308101603 10.556116530445676 0.192522662055191 -0.1846363173285788 -1.9598591230241151
Ni 3.9766966999745685 1.6799730990376962 0.7940724723241077 -0.7229592419506001 1.1118285677927626 0.5283282753031546
Ni 1.0915089318623195 0.7834598143595304 9.36719015999577 -2.0892151797231504 -0.7635438482411817 1.067035322737472
Ni 5.12444757440886 3.722836262357565 13.001319962195472 -2.038526138008715 0.09115332037706882 0.08969190534019393
Ni 5.180239360955673 5.24684407896397 1.8672444363044187 -0.14463612278655735 0.711971889701161 -0.9984529456823837
Ni 2.4776587624780335 7.582474022075345 9.837487451881008 -0.29817751848254453 0.39588046705267305 -0.5712322737555323
Ni 0.18815878771632263 6.6141424776689215 9.888809832178021 -0.43416727844801356 0.07162862008057987 0.23540969122670422
Ni 6.79802662051776 3.319900685551507 0.9666237075681136 0.937003837237967 -1.696253428979169 0.8892245129711588
Ni 7.692780621954741 2.730820998913157 5.1756744113862485 0.17571921734460705 -0.14648680284205093 -0.3882856854245506
Ni 8.702636762967716 4.955565570112787 1.3869169332300164 0.27644938277683356 -1.2581521055840719 0.8357504523124188
Ni 3.072994699180335 1.1246183668556853 3.904109500260478 0.8016293422589935 -0.43280536510348044 -0.16219701448845614
Ni 5.842235136812209 5.746452958887449 8.270045090961302 0.3495646147052689 0.03965592382872525 1.1857827506827254
Ni 6.190141436256929 8.138122733702357 7.70517001819005 -1.8268199610465377 0.3979152380945147 -2.6658017758120605
Ni 5.911595912117401 1.232077040861624 13.08385101663676 -0.5725733611644591 -0.013273577180454561 -0.04555532003229574
Ni 0.2208015303407477 1.9847838492166334 11.615532093771417 0.4660019064601071 -1.4925708936524167 -1.2056638058773688
Ni 7.065015077725641 0.5679995230601653 1.7522424334768785 -0.9588708125143873 1.3569035500233728 1.1610207132466972
Ni 6.964942637275381 3.621477661835421 7.442975263307235 0.9176619423762454 0.6471556645567241 0.10467629456416812
Ni 0.17043917666881864 4.419089830414507 11.680489608201936 1.0673826787745617 0.6181351089546581 -1.0352053227110687
Ni 0.729065348862244 4.435479184473377 3.7202235200401086 -0.15902195919458417 -1.0098614446296414 -0.9148985206984953
Ni 1.5114769427631887 5.162490351963668 0.2717913463906032 0.9263705258938368 -1.0397070672361644 -0.4985564433573607
Ni 2.346488808861141 2.506661672099026 12.736623625972843 0.21472079541878505 0.9739696158290387 1.2211701290430839
Ni 5.446226450679015 -0.050116145886739766 9.605801332589055 -1.603566445566393 0.8784369354373518 1.0437706957825765
Ni 8.464605281092547 0.3646713959817323 3.6856542933651535 0.34705007581353137 -0.9834405314339514 0.8453198411684086
Ni 1.8197327645632448 9.158745871888536 7.249528520323937 0.05934208940374296 -1.1326784146585782 0.299346084869349
P 9.039537206940167 3.0709644036382895 -0.06738376353755295 -0.6554801252620195 1.258371934904362 1.4831177186593167
Ni 7.338177103278566 9.281114815870676 11.701074600152445 -1.9593973528963478 -0.8544691117678446 -2.370243697230234
P 5.75273676952437 4.4734760277399035 10.976596249318002 -2.294564561229364 -0.5959146069935608 0.2277346911799497
Ni 1.048790043760446 6.602750774175089 7.560357580953527 1.0278951622029007 1.1203160364384834 0.07466663557595528
P 8.868477917379549 8.673964580222352 7.959081902209929 0.21347869548156784 -2.443671832413398 1.0820701055834072
P 0.8265167788231563 2.8912786547383877 5.47160514495459 -0.7868845798496512 1.2211562450860132 0.07337542756835749
P 6.945944215642118 7.56228130894676 5.365033002712487 0.23497286079960175 -0.7849102297320998 -0.2721343003412474
Ni 6.883005053838691 5.059193324476042 5.6572926679613635 -0.4500687801696184 1.0038070109054456 -0.8412940078384673
Ni 1.523814892595622 7.468759098005455 1.116777383846019 2.034889312587076 0.9204078805524987 1.0846417229653254
Ni 4.3669268526419405 8.548959008092847 0.7594536366178088 0.04644569305704905 -0.0820816970931038 -0.9895790402315215
Ni 6.689134796717436 8.036562022311776 0.31764295295328066 -0.4815457677319771 -0.8982017767691047 -1.1244696535955407
Ni 1.5950038525744215 2.8551743041490623 8.230030813753448 -1.63688717120571 -2.9034282721844256 2.024811359525784
Ni 4.606014823147587 7.1782247246244335 5.800854773870862 0.7909014143185282 0.2921217992067679 0.29710202603017866
Ni 8.551953923688806 8.0024236592609 1.7667769609749375 0.5965437559371275 0.18599694512153128 1.392120207133822
Ni 3.5964251010066453 6.198134002417925 8.27701056643632 -0.7444366950980856 1.6216819242201812 -0.7232400064158124
Ni 2.7270176398434423 1.9753213858306273 6.341998355944316 0.6458731982998748 -0.42436649030750784 2.12256495882819
Ni 3.6579402998733426 7.495263182343929 2.844963111864066 -0.18267713671967895 -0.027910867477655157 0.2732380749283875
Ni 1.6566660411636203 0.3945792110818719 -0.05107709119759051 -0.26056125079166736 -0.19145154047819932 1.6134430812501568
Ni 8.737390645481563 2.8389043792397253 9.443831519993596 0.19000272384681471 0.9582509195422013 -0.34387527762997555
Ni 8.15612897470874 6.212777853522094 3.8382920959533275 0.14222699912443248 1.1146464968575318 0.20934230471569107
Ni 3.2221617069459523 1.299260530902269 8.916900925400228 2.1003801952010344 -0.06186999803191926 -0.20999150826391577
Ni 5.016088588352603 6.731219791641024 10.490056593096396 -0.28545595715081806 0.5431365439605806 -3.1548045140427154
Ni 2.663830432883295 0.3281279135964351 11.315029979833293 0.4074807702957628 1.7759064620261222 -0.6735575515890206
Ni 8.700597280568013 2.401260854208102 2.583157879745879 -0.11220859838547129 0.9727514271512215 -0.8111125991590805
Ni 1.8026819567531207 4.977586467914978 9.275650472936698 -0.45700921604319356 0.1584624871466884 1.362381028198176
Ni 8.38827168082621 1.0089098946743744 13.42924838525554 0.6094139270315763 -0.10578881090205652 1.2968834607159987
Ni 2.3925700868652267 8.17887563426578 5.046755237895154 1.896503798695921 -1.780368354452218 0.3459092773408688
Ni 1.2201800601966935 0.8308731867237817 5.107974619945319 -2.539108353546853 -0.024264786084635632 -1.1794804626137814
Ni 7.2775438427468755 4.681769651381575 12.577370367186356 0.06125473304542354 0.18564701798128028 0.8577452114159551
Ni 2.884094532051148 5.102435863464325 2.8863903277794614 -0.3846907689844407 0.07199037429537279 -0.43649721213277076
Ni 4.913021232306384 0.5042950960139674 2.7023830810380285 -0.09934639771082246 0.1821595736533121 0.29534339146785915
Ni 3.1802053280295532 7.434345129224891 12.150503944871359 -0.13943092443653407 0.03249437308327952 -0.3501287147388551
P 1.2966147158972499 6.417020072937331 11.697646064875109 0.8179365640594495 -0.19137517871430912 -0.09946543978718998
Ni 9.058609123434682 6.780139808660911 13.31610120898881 -1.6509976424651631 -0.13014538536955006 -1.2078268749669585
P 6.506839980243141 2.1042589330370345 3.2979689002685824 0.4577810612122116 0.05275363755294785 0.016832755286622623
Ni 2.9818794449449846 4.656404737392485 11.546661896665071 0.5341839627529832 1.1873662931197615 0.46902629510872773
P 3.766152296207099 8.45978218082298 7.9046534453393145 1.097667445801032 -0.6430483272565699 0.3319335318870671
P 8.969037261285592 4.955887110130758 8.234279735419495 0.40798547784632316 -1.82079818033249 0.2082534425268865
P 2.920658225523289 5.84213408137799 5.350551758988835 -0.4825045321008206 0.045952555470714404 -0.5643764271759635
Ni 7.102093235226535 2.5847958964660007 11.350728271314209 -0.38094981388476973 -0.10021723035154999 -0.17238423943410314
Ni 5.275608130285898 6.2032510821324935 12.491128740937683 0.7981678660729544 -0.7645254954281607 2.941956767276927
Ni 2.0244527005766098 2.500047134586478 2.448241525576741 0.5411989606182356 1.5054477496150849 -0.7382135970065092
Ni 7.308246321034286 7.627645801171454 9.539607267117995 0.46783921677916196 0.03337317614380704 0.44430308133043483
Ni 9.314738714892796 5.11865985408538 5.776840327957249 -0.3816877204920588 -0.10617859014130746 1.0377273178019741
Ni 6.158088489894039 0.34824345712070653 4.770899625677396 1.2877280194689757 -0.09136852171166845 -0.465477915635837
Ni 6.921102952539437 4.428598228088796 3.080414005423577 0.2787271230674167 -1.2911383307021054 1.2393974506843881
Ni 7.7930092389851575 6.513188098883656 7.42105817699656 0.8800734425995101 0.7532995448053542 -0.9074608334735274
Ni 4.836807061189579 5.0538281996047525 4.380699789640291 0.19625590384537814 0.7657634816003199 -1.0444988321978528
Ni 2.137184630877274 4.351529679209953 7.021823066454467 1.1398348231977016 3.613184899401822 -2.7989622938588505
Ni 7.515134355454541 4.912442460274036 9.981021997217537 0.474809220339092 0.19021072609256273 -0.8091835004571676
Ni 3.549746677254899 6.373263069920294 0.5834802968968249 -0.4690910869083921 -1.7166073100451726 1.6711682038757671
Ni 4.606556847749309 3.1234029871405458 2.901731461379745 -0.31145958030343135 -0.3162570016920747 -0.6910801338538163
Ni 4.505455479241543 2.4053857532957883 11.006123728511168 -0.3290286995354462 -0.21944776858080917 0.5973397694758616
Ni 3.924304050760594 4.01395859462859 9.075387081572414 0.6739337039815168 -0.8548100400470311 0.47087646094358904
Ni 1.269109264074237 6.985300713841779 3.4813303109167757 -0.19173513315688914 -0.637468004955315 -0.32545255214841373
Ni 4.284318628596339 0.37260884099679015 5.95162396961174 -0.6328515892292261 -0.8597817822300096 1.0854464782548081
Ni 0.23709717845152256 8.58661593762609 11.671763012114202 1.515467595744932 -0.6073529307374895 -0.5803437491384973
Ni 6.331738473313741 1.3383230496569283 7.02246798386194 0.4829153943859941 -0.5615258451010459 -0.20176063571369124
Ni 7.458644367725849 6.725285081595043 11.59786392912679 0.05434283641693868 0.9720289471629002 0.19071903318754896
Ni 7.6492624772367686 0.7625716561063628 9.279281119082475 0.7814268991691897 -0.12534307888490026 -0.07436993027114289
Ni 8.85195994731349 1.1773325560876315 6.849405959332243 -0.5214747427164309 1.951557030916323 -0.3514996269444527
Ni 2.9378376493406013 3.5355989164641706 4.923469445518913 -0.9513989296173744 2.4059329231017275 -3.137402516516184
Ni 4.586970467226042 4.823026774705104 6.651065377275425 -0.2180920258838631 -1.853883392922233 -0.03516394949564266
Ni 4.984063202562682 2.637344722260133 5.287745806621424 1.4204517070886635 -0.25624359725291995 0.3434240490251699
P 1.0859968172685293 0.5944558357388268 2.3258578826223504 -0.45368220855248964 -0.8713234643210219 -0.16066155168053622
Ni 0.08940925476857263 7.771144517763124 5.594877157044347 -1.0527862690176257 0.5569760209468342 0.08342509849487569
P 7.142276550615266 6.318683948584114 1.602051091082582 -0.5872710723859499 -0.2296105680464239 0.1391041372247346
Ni 5.994158201874722 2.4270116162187585 9.130529357282924 -0.15929963833600308 0.2384353654269055 1.1075258266523507
P 4.5987847661720656 2.5926598466198083 7.513983242190205 -0.2769139811180779 0.3952793431335644 -0.5930449987552496
P 4.834041817035027 8.913962049635973 11.722426694717258 0.15933280556678367 0.14562522617270404 0.5589981935831858
P 3.143035301952095 3.9142352547692703 0.9765776678387329 1.2597161076370822 -0.36246435348607253 -0.039806590473976604
Ni 6.095627044688741 7.498166229363325 3.1100351905648393 -0.08794612629368079 0.2158957895634927 0.3640782349404117
