# total energy = -381166.40125810937 ev
CRYSTAL
PRIMVEC
9.29705959245389 0.00000000000000 0.00000000000000
0.00000000000000 9.29705959245389 0.00000000000000
0.00000000000000 0.00000000000000 13.60718647473947
PRIMCOORD
 96 1
Ni 0.879949931742194 1.8115506063488793 4.114581887307657 -3.605508099582855 -3.7385650021722445 0.89006654925648
Ni 3.1370602475071876 4.721632447150457 11.989223687261585 -0.2751358061717326 1.3147140611395165 -0.04646189100696514
Ni 5.837270270787162 8.059713711688394 5.054852069748083 1.4589591191352422 -3.0709613541738143 -0.8590019666411915
Ni 5.629471697498185 0.27236386128145906 9.283149078950487 -1.2568904652628288 0.9322758356346783 1.1798378459532004
Ni 5.700808033807357 5.159765665566471 11.415803380166233 -0.7144002966369954 -0.4079505108433297 -1.0698375680729575
Ni 3.012144958226588 8.6576354889661 11.49169062702191 -0.1527016734035112 0.37358643154116306 -0.24223776989213122
Ni 2.9946757837283555 2.8504597992597134 10.730395344801346 1.156834957300124 -0.30505547654930043 -0.0733646289350801
Ni 5.9818674346887075 8.162148711486969 1.5832910648663368 -0.10102378541324537 -0.1158942747671746 -1.5457150817755638
Ni 3.2881374617681107 0.9403324727379996 9.272439796297737 1.5360881002087607 0.8583193387518702 -1.0831458551460893
Ni 2.7366266047113608 1.5360322528336523 12.631387380816427 -0.22383278502238224 -0.13725268583829264 0.803977530776196
Ni 6.0454872117464005 4.138929956010913 6.724032157907139 -0.03466901213709513 0.044183122275117455 -0.5638105273701645
Ni 1.8533408880782853 8.859632697227457 7.86220512367597 -0.7367056450024151 1.5090120699275753 -0.2657487085298778
Ni 7.599909047952859 1.4100570987883905 10.419689481099365 -0.03092342905173384 1.5816848150019536 2.4949352585740647
Ni 4.255877665437876 5.193216485068675 1.2862128307436584 -2.0345147028564767 0.703184373316518 1.1222708461720092
Ni 2.7108923444606385 0.7214071788319472 3.378950207686835 1.3631037652968137 -0.8815893650234042 -0.31762894233893685
Ni 2.0827551243307485 6.670258896395524 8.070204513446672 -1.157079212100446 -2.976388980812868 0.8129205989020967
Ni 6.043423264573112 1.1619278820862513 3.1328365934494196 -0.8835290052482784 -0.8359232304448572 0.24506186960448764
Ni 3.5937968816608095 7.372939938306588 6.620223052738241 0.6683099300368363 0.6028882100979166 -2.7529765711573555
Ni 5.960772407048214 4.7610426816890445 0.1059548664643711 2.743322078786727 1.9237073556939064 0.5338769730355257
Ni 2.3465963713160236 0.4305774982911007 5.730884020769455 -2.672982866941532 -0.432892525500648 -0.6112306685253409
Ni 0.8759447585788953 8.594759476655538 10.134741120296455 -0.9961219835563618 -0.4268491475200456 -0.553991998617846
Ni 3.4900045111987206 5.224361633854773 4.346761069007578 -1.2265141669638167 -0.8946428557732528 -0.6015985447522155
Ni 5.928241996420585 1.3904217094641402 0.32311929733159167 0.20448343396149296 -0.2177860646076701 -0.5174391391944766
Ni 5.518390432514215 8.387602400460962 7.3667267135502446 1.5867318905075576 0.7918079852931976 -0.8149083187560869
P 9.348658018465889 8.72438837502108 4.3423384578799515 0.6252853468461942 0.7231844705875287 0.7580702267211202
Ni 9.232045003175136 0.5551534449058227 6.410645022291752 2.2430270554717047 -0.796109697992345 1.5249343975847867
P 4.610197893911601 8.809121773837944 3.0214485255072585 -1.0117198379946188 -0.22412331967960758 0.36605489905080824
Ni 5.224408119151469 6.542294171651688 3.288680410033516 0.12160572332965508 -0.256829551663377 -0.47237335720408974
P 7.376203206134623 7.096343125908021 0.08900353817132862 0.7603315119514712 -3.591726986638363 1.8854979345037206
P 1.4368047385070781 4.516139544577586 7.225334246002897 -0.6898902273107732 0.23899663724701417 0.5481766774876495
P 2.1188463086852654 9.07800202698503 0.27211934862083986 -0.7250076398391966 -0.5896940800051457 -0.18878016429362326
Ni 6.6677115021366005 2.78556632507256 4.604794443023696 -0.23681788442814056 0.7517458271649892 -0.008236786087495493
Ni 7.661083698404359 7.228324180286363 6.374735130594348 0.7984082642185346 0.002282625386589617 0.6854866989264388
Ni 1.9614006087770361 5.862753510435728 0.3905592360717336 0.09847865039388846 0.4908475047488772 -1.3568086763167215
Ni 3.814295238007043 8.031608701306192 8.865067758117116 -0.6360251018612014 -0.4216303223232674 0.5307394558478086
Ni 5.813971840083293 1.8434860051788036 7.125648386650904 0.6234449512033456 -0.3983890924071397 -0.1825059012491373
Ni 3.98625364754366 3.409482680262484 8.427338961782352 -1.0842863965084357 -0.6798891502340032 1.0155422970645027
Ni 0.8295161739451955 7.518466808142048 12.349065439276822 -0.04942045941465682 -0.5143018791170756 0.738388946242109
Ni 5.139990820352134 1.5494293153413439 11.509366196237472 -1.5114836713965194 -2.393843081816729 0.5427076839532783
Ni 9.075436038607428 6.391691107417061 1.594136084585436 -0.5746775519916555 -0.6089097337016481 -2.3079445820806965
Ni 3.7937022515708616 2.5753412192960687 4.6482423904332695 -0.10208359413632741 -0.20651614812080563 1.4862359525733244
Ni 2.2440776979833963 6.629296052947301 10.506053584124313 0.9112987191623788 -0.98788031237286 0.2745544797469659
Ni 2.037469148289828 3.3988096561411583 0.4327641666476649 0.7183672517045434 0.8230178352370987 -0.11342627284265626
Ni 7.150368337727727 5.2142092450564395 2.4694997769556357 -0.04191746616939232 0.17830883244865423 -1.9319667674892214
Ni 4.756598687324939 3.719902194536819 3.002698216232094 1.1372194970620415 -0.25479915149690957 -0.6126116080332674
Ni 2.151971731110599 3.010601646376292 2.9947510899090024 2.2422343843670807 3.634746684732998 -2.119458551988724
Ni 7.691503676562004 8.313941799317005 3.002398850921374 0.823022463222789 -0.191876800941076 1.0119921178193991
Ni 6.539505053849948 8.753023317785612 12.919424224731797 0.3268725724243919 0.9034961923988246 -2.7047028237526325
Ni 6.9679507364345845 5.392498952003006 4.607991701730424 -0.09758519204534162 0.15740396397518697 2.1425717409674196
Ni 8.664691957004502 2.8082604469193857 5.774576480839648 -0.5657265134459547 0.04387741810924056 1.4441300245422095
Ni 7.731183525821427 4.301265909131527 10.177494577373395 0.3031459182314134 0.06568397246137075 0.23824253268980905
Ni 0.1618627328002516 0.7280313336110799 12.542219284694797 0.5413750811847837 -0.6805972320446214 -0.3989277385194291
Ni 1.7031933797512762 4.305616932902242 9.555374414047792 1.3386176072299913 1.5207365574533551 -0.323467660507901
Ni 0.3998404904099908 6.7122444163710515 3.6244232545357833 0.2787078397937071 -1.201577551623137 2.1184576215280355
Ni 8.116407179538431 4.782769909364601 7.56046534400065 0.7603065722508067 0.12974429327638948 0.6071035337308447
Ni 7.38086103286353 6.92228358096076 8.906229558635195 -1.3279120478870292 0.9614185186369055 0.03990506372505386
P 1.69574643522063 1.1855145216296334 10.50514247230908 -2.149048864051331 1.0387974109377014 2.1248750950186053
Ni 7.473682873305441 0.3884116153643937 5.264471007255663 -1.926072770602289 0.6558184824380447 -1.6156755701251013
P 7.561577272297611 2.8047833467265493 8.424181680430783 -1.6233395144282623 -0.09078488129405654 -0.22708754451425406
Ni 7.729286925716243 0.41460700975833686 8.516288577009515 1.2126428082983631 -0.7735238422720292 -2.8043839790950544
P 9.132808191789223 8.088134822088126 8.107692116113927 0.12009777132556092 -0.7957273749522618 -0.6854730720796839
P 3.830388447723083 1.007596697056632 7.088364389583177 -0.05142412010824692 0.4511350166506037 1.2729670591097173
P 6.896344785404577 8.647167000150235 10.721483183718853 0.045402082283883094 -0.20846992941306677 -0.35661792200762454
Ni 1.311285140369434 1.4686564638029502 1.5940542704632517 -0.6309584859715714 -1.7634330121494597 -1.4067461845771128
Ni 5.007191624751949 6.077273857626897 7.941588994549097 1.200829360603203 -0.14754686867544908 -0.01556108766305062
Ni 0.36872974074344766 2.936076418713796 12.027201244956013 0.250337259070814 1.54247240646855 -0.6450046796519924
Ni 3.5236133807096888 7.4888649712062465 1.4456137022309075 -0.04952716019585019 0.055587507457317165 0.5616651988923876
Ni 4.421030627538247 3.373475169442019 13.32855154771565 -1.2717316440407194 -2.2615611097201502 -0.37250553977215844
Ni 7.5984680037552925 6.752063721520561 11.595975741628974 0.4932795112291376 -0.26082196065222174 -0.6997069562908789
Ni 5.522350979792686 2.9872009480196917 9.851126887508709 1.9442941787063226 0.37441869763447133 0.20262221238303815
Ni 0.14566260690181113 6.039434826116625 9.323466706480573 -0.13138568553455438 0.3500258706124036 0.44877602950012385
Ni 8.964401258920155 4.136150135268513 3.867475347132822 -1.0639785381890192 -0.8510006936032699 -3.229770426026644
Ni 1.3772849646179441 8.288254024362978 2.338884460594212 -0.4780300412692348 1.1583994735737664 -1.1546988847937276
Ni 4.33428906390413 8.997424413692759 13.451696676898077 -1.1269463972708076 1.185411740496552 -0.11664015179426364
Ni 1.4845916235102254 3.62126039494861 5.115975586373218 2.28998902604354 1.2304471834696358 2.0683807594763026
Ni 1.415226263780949 7.1970209814915 5.876807875038696 -1.1413209208249246 1.1835895996861487 -0.6600654306398568
Ni 3.0110664993432485 7.493374044985726 4.010432509766945 -0.07362405324405384 0.9054309475276924 0.21010797923712202
Ni 4.400911791128362 0.25620929097378037 5.113295244165746 0.9641593146068363 1.946820287562286 -0.43437759468660675
Ni 0.0747808967943219 5.3644404269175 5.564005524455741 -0.5349920604765754 0.8378394736309634 2.497905396945982
Ni 0.2555036441699401 2.7445662933869808 9.158044129659368 -0.3794876275169465 -1.7799770325510698 0.09523931752098436
Ni 8.100286078644373 1.3596484430516078 2.0652310971824153 1.8803289887082715 -1.7465632329773146 0.3066302772355881
Ni 8.657133447761787 8.678172693046246 0.6280433198305648 0.5602060978483578 0.17619435720881269 1.1802679915120835
Ni 6.5497876014790295 3.094656359861399 12.17953356222772 1.4753414171480075 0.45362410162104455 -0.17970931234060664
Ni 4.6652178910805935 6.796838359297829 12.886168643475717 -0.16382657967207914 -0.7871866844711024 0.4742011544414478
Ni 3.5550560353946388 4.386966202119662 6.627802015511502 -0.8120901325810014 1.3160302088477787 -2.301471058541211
Ni 1.7862533078870966 2.2258089763819986 7.230831597190128 0.4340258677741428 0.5596013743848234 0.33564646196228
Ni 4.1559993569575635 1.5166292899928802 1.5013625888520885 -2.2668187585746638 0.659722188367825 1.4531353133646134
Ni 8.275721588373827 4.7458605837882395 13.225422987290374 0.1941815378148527 0.8112663511281254 -0.49518984087797296
P 1.7902789345809416 5.18189266679361 2.3168820399622185 -0.5320486615775354 -0.43622878896273254 1.140103503478056
Ni 6.751319956773431 3.0250771677673227 1.7991009141878453 -1.159900740709641 1.7810031598227392 -0.09300785708730433
P 0.2868505391436972 5.308044464966315 11.468544668091205 0.40804075656429084 0.22783367865165924 -0.26303773735661795
Ni 9.138330645036667 3.424525322273202 1.4264413064617458 -0.04289062871593904 0.6029887402315227 0.16115623192876763
P 4.247631173804065 5.329966930887993 9.722279871833589 -1.3097860277102797 -0.8560135734368289 1.735159362015747
P 5.059041324686298 5.920200040092234 5.654996773913776 0.4597538686678663 0.05501800810709234 -0.21234843853186658
P 7.815201051069177 1.999909028559728 13.495185531368742 3.374349213212705 0.46232728582199734 -0.1002164590206016
Ni 5.006977792387149 7.368960796909438 10.62232725674919 0.9994723880858334 -0.08337470487291447 0.39902466910860956
