# total energy = -340889.94438974047 ev
CRYSTAL
PRIMVEC
9.08435242473490 0.00000000000000 0.00000000000000
0.00000000000000 9.08435242473490 0.00000000000000
0.00000000000000 0.00000000000000 13.29586803401617
PRIMCOORD
 96 1
Ni 6.686601120620915 1.7603930469478355 11.600099276953543 -2.667143377441619 0.732100799240552 -0.7148427834910528
Ni 4.88966172426229 -0.03981126563704862 5.951017493402386 -1.111269609965499 0.31553169349027593 -0.251632837953786
Ni 2.5148303389854436 1.4199296904433383 4.881537587976417 1.1008286171378332 0.6387329877106677 -0.26021929407121636
Ni 3.318377639701832 4.4541124519529856 5.018631365810897 0.5737866647462698 0.13586917522720474 -0.26880960684338867
Ni 5.000191039022688 4.66241665080693 2.482325617924855 0.6655017711640797 0.39777922673728267 0.31505501096417354
Ni 7.468173373058731 6.16836607343291 2.6870151529879585 -1.6647967531317847 1.2623404326338066 -1.7839943812405794
Ni 4.949200569412257 4.553849556149124 11.489863386773303 0.29320474785830153 -0.4120694181077097 0.4095332819494173
Ni 5.7966888823334655 7.828767654319457 12.62099606613569 0.033795351282890185 0.9642976399569134 -0.25833133301988415
Ni 1.8954773660476238 6.527216159046889 0.5636413654231409 0.028490394130209002 0.1638039539642598 -1.76336590635695
Ni 2.7958002721016073 1.5590565463285608 0.4497780933588001 -1.524994818509077 0.7911469546704311 0.39260873827993675
Ni 0.5617263839526477 8.97746583734098 4.548543385955029 0.07053024481007852 0.4525182701513755 0.8222848137258162
Ni 8.819607046957858 2.611942065359132 1.5373213249514153 -0.4962213674662809 -0.9849235437373812 -0.1560721325376409
Ni 6.940145394062414 0.5186329418199196 4.730297656698614 0.4754563670047876 0.5894076591129785 -0.5049317507560852
Ni 0.7722562491266624 7.522597727848699 2.4394193134500592 -0.8891460943247397 0.2937930162616037 0.24234704177648586
Ni 7.515321161634916 4.162486573557463 3.7251967393423406 1.2986917175693309 -2.112744116083026 -0.46224526763115237
Ni 7.534162108360738 3.789428560904342 12.662692334880552 0.8742344673202299 0.48341444550959967 -0.6371623007894381
Ni 8.075916543722876 8.871751229313796 6.645753330383377 0.4973536812985112 1.075800727634928 1.7112403893063044
Ni 7.0419173931797605 0.8847714033057034 0.4991579073016865 -0.5820229366131331 -0.8320043550064251 0.0030845524625946878
Ni 1.942016503017914 6.56809574451757 9.428139647839204 -0.6930789094513999 -1.1931340488414743 -0.9734908764204072
Ni 0.18560512769492324 4.8441309504002765 1.270405793320072 -0.14426819792417733 1.3631217630189427 -0.11331802939956613
Ni 6.273917163118213 1.7743284434171747 6.886993757033433 1.3049029885863657 0.8808846256468958 -0.03954099551741577
Ni 3.4448318240911426 4.2869331160825475 0.4028437870622932 -0.28615401165910714 0.4333936335067826 -0.12016641977996724
Ni 6.019528044910319 5.622005871441075 4.914777233140245 -0.11435212709103533 0.9187783153688758 -0.016909374160828942
Ni 5.110820281658682 2.6142858282594506 9.446301993446212 0.6382105395482944 0.2631503516750823 -0.047976270768962534
P 9.174650788946899 5.610595924918592 12.237383852949272 1.1930152638754226 -0.6714579887475146 1.265370477709382
P 4.203511508665375 6.224198502833536 12.76056260467353 -2.1532307633431627 -0.1838816985507414 -1.2179518792161026
P 2.3797732729426353 8.568034077971278 1.5346487084968654 0.1960818401613591 0.6252966597001037 -1.5663332722465477
P 6.553042972712032 7.571062747512274 5.910771087288883 -1.447827785108771 0.42127833830048733 -0.5458236038744406
P 4.65924621184487 1.0385049892972171 12.596359302625359 1.1462682375278712 1.0523617798856972 0.06636737168164053
P 4.01536548762464 5.994264461089437 8.153664064676718 -0.5457572694128794 0.5832956326779697 0.5254409264530306
P 4.677169638985682 1.0642954655530543 3.846747190345635 0.7537415174387794 0.7249557035553384 0.7092881722214107
P 0.21887020904526655 5.732517017496821 3.5167435571102366 1.0113169461292455 -2.1269479183872337 -0.13263472745030708
Ni 1.4848646408754353 1.2295580030825333 2.8038862541077085 0.893863554405067 0.6242643617808474 -2.0321621434639003
Ni 1.6796149860577667 6.6638629867468895 4.758817072393428 2.011613115667955 -0.6942158512693205 -0.29707142990255936
Ni 6.064204889653611 5.5905195062763235 9.58641359312366 -0.25152099496627006 -0.13723931610185397 -2.060318037072826
Ni 8.584522177444454 2.2204700705395495 10.17407761983984 0.8102355958707659 0.35472764696344716 -0.054086754542074594
Ni 2.0707599441935836 5.2834229758682305 6.917082040375089 0.01782340133466608 0.013682639693415145 1.5265914735722352
Ni 0.8981045072157746 9.196725765101068 9.141095008322099 -1.1915569341623413 -0.3104108273239428 0.28032249257899466
Ni 1.586609386935801 1.1584456930681994 11.69557763677887 -0.3360465256141761 -0.6399241798052914 -1.9538224299117322
Ni 4.211887281510702 7.194143885120256 1.373555888685396 0.5575324076709365 -0.7050990738407276 1.6688117878284487
Ni 5.491672668608213 7.699460983299524 8.07375628473956 0.008394394711282317 0.28290516570450636 -0.05191031571604608
Ni 5.384886107006464 3.239125750002669 4.601074561720089 0.5413532268079129 -0.9412191608708951 0.7296500237072143
Ni 0.8441389122183104 7.440211736596783 6.811619068907356 -0.6209391540623563 0.031028844281346564 1.2974655584717139
Ni 5.248811593503053 4.304102541980234 7.4895225094619855 -0.4960321342736102 0.32483085940401474 -1.0030233386618854
Ni 8.192868495578335 7.581482499631135 9.136202176158873 0.025892808606361863 -0.7379413171817292 -0.14046502212800324
Ni 4.622063957771203 0.46838103005365866 10.464526166173808 -0.49752800209284637 -1.2808611171458133 0.302751253896156
Ni 8.389135927599245 7.072776938033963 4.888877744656486 -1.489372441319777 0.44872872120195617 0.2847687012758064
Ni 7.1633388463800145 6.027812974232377 7.316037724641503 0.49629850056111946 -0.5963275261612634 -0.607278111635496
Ni 2.333606594417745 5.461385437950601 2.6423810047006016 0.5955106866869229 -0.6085292104337778 0.24728921627310957
Ni 2.401839164744477 5.239654566357619 11.594941181702376 -0.381202296215208 0.5971883314996618 -0.41473899452007285
Ni 1.1877608980268424 3.5732482285830467 3.9146227456259237 -0.6693311722124989 -0.24438386970085652 -0.01100740685409717
Ni 3.5539894016501914 2.859472497560277 3.09045123982196 -0.1629143522704549 -0.5170485886242773 -0.3831535064043079
Ni 0.9989062975046161 3.0974280224089563 8.123376834019105 -0.3795133385485593 0.70708730791535 0.02390586008332012
Ni 4.013285170941799 2.527539347890662 6.525771747026924 -0.5566600323683123 -0.7160208629595539 0.6644062241070557
Ni 3.988902769296619 6.642024203753218 6.1245286228446165 0.24231053211159556 0.6677831109990886 -0.9020931414037109
Ni 0.80454385416664 7.508762259254953 11.50728081548951 0.002707628739150176 0.31397463341580123 -0.04775001369076937
P 0.0818799928273116 5.821534585947314 8.152826487392185 0.8553497146005851 0.22196590701697255 -1.2685560745262152
P 8.388300167185177 1.6889991220113703 7.974516094615698 0.280443077317259 -0.9967398196460188 -0.3368245414307812
P 1.8044249026759238 3.384702496039932 10.172548723343239 -0.38151262836677524 -1.110167378040256 0.950446593006434
P 4.0842793843758844 6.168220723795681 3.8666110351434564 -0.41447854176983456 0.2097598518690839 -0.7675799659837683
P 6.777544571764693 3.741099806525669 10.537759672456453 0.1394311815468502 0.02414960066301002 -0.3821572039293096
P 6.208736935173291 7.786025776621776 10.174702623279927 0.5833704517799632 0.11628791066116748 1.0544281754964229
P 2.5082441835485003 8.420195328204636 5.708221825633977 -0.01602954265903691 0.7710784660553301 0.48372426344053465
P 6.9602127283523565 4.003355973848587 1.4055464354042866 -0.4763343987343667 -0.6114494694043663 2.0741857961938535
Ni 5.00289817601608 2.6142949126117774 1.0245732265688088 1.0246170056722612 1.7723143737994898 -1.4245083936565401
Ni 1.5960752820603454 0.9596618954527609 6.963431314381748 -1.1010754430413165 0.24562237009364793 0.27978307513575684
Ni 6.842888318051497 0.6942025854994066 9.115434438304533 -0.6786593915919602 -0.42431403980301763 0.06644656165900814
Ni 2.741539435653522 1.5642164584501936 9.05562942163139 1.2496718360272026 0.2772173712911096 0.5112232401917518
Ni 6.3727458320816694 1.8300791136468586 2.7601559988768707 1.0797764244532242 0.8983136197566206 -0.09891316682814578
Ni 4.173042590961226 6.712437018638387 10.476771873110359 -0.17476842339556353 1.4472338602785142 0.23283344585909577
Ni 8.125653372712206 7.217072790393145 0.26730252504046575 -0.1522815551469571 -0.1276357315738189 0.5442243777081207
Ni 7.299140829313622 3.7847592038083575 8.36960275322612 1.476219963098219 -0.9469442362801304 0.08350583113414005
Ni 3.2957394337034 8.370976307297935 12.663211051398413 -0.6514275524592008 -0.12139232176726836 -0.8648774515853621
Ni 0.07377584211655698 4.697618516073351 9.888987932943465 -0.5397172338663866 0.2652961943734915 1.9571021291042683
Ni 8.771687088433891 2.561442150774348 5.924758264566485 0.34390998752265284 -1.4721082549226905 0.14542596567770438
Ni 3.316424503951566 2.7943740287862973 11.646860980555841 0.9703189064503289 -0.24386296420038 -0.3401178674700723
Ni 0.9855977213458272 3.431168958191608 12.407757247097816 -0.22961442470116586 0.4136609309645456 0.27071145185179185
Ni 2.93033044570946 8.217169138052574 7.8918957270737495 1.233438661997792 0.08142478023539526 0.40858325933132217
Ni 5.509596095749026 7.920401516240073 3.6593151993977884 -0.02866342937296354 -0.6374224964293603 1.0505208700222166
Ni 3.211100523074434 8.619833054938796 3.5229799649825977 -0.5166179288447619 -1.3428110764860486 0.3101460036983304
Ni 3.498166056601893 4.3385049842418955 9.349999682864844 0.18830579576036602 0.03397095762880601 0.08518810393256943
Ni 7.2990318170857 6.18906931238573 11.41444963593222 0.400699228597555 0.0638947417714319 0.5665502948988308
Ni 0.6122063129623118 -0.06135571561533096 0.1727970993493421 -0.04990871190498501 0.1093086511298569 1.062272868351822
Ni 4.574888916138034 0.48539602196178944 1.4437715731250729 0.8642927827264857 -2.197627544290983 1.569368973749078
Ni 5.9867971234767925 5.578391895920022 0.30216463552986383 1.0740266664536406 0.08958366189710378 0.7807560983544103
Ni 7.857619557309431 8.948950055387098 11.220768519018755 1.080239737242888 -1.2739913866091737 0.527551030817498
Ni -0.02139819190582056 4.89303201897554 5.710920786710275 0.3240690415373258 0.8388085224124522 0.38994250430168326
Ni 8.33010580617958 0.29755614359446886 2.4109925581489793 -0.8214705453546368 -1.3239893157938551 -0.17261923826304465
P 8.728009522446548 1.8505189063821998 3.8035492781611486 -1.174132825148623 0.05621794195246447 0.24980375516484718
P 1.94636790778246 3.3509813802027826 1.7163366634684645 -0.6936324679620248 -0.11736520288574626 -0.6826528290220695
P 4.7469465492079745 0.7687969277606099 8.130502599984261 -0.6369396432556708 0.9458137222201131 -0.31308991681800274
P 8.658350708804505 1.729451742922692 12.511158979022593 0.34225393997646864 -0.7914251480324821 0.5449571421090872
P 6.485591656685406 7.956130273941449 1.8098736972015494 0.78719414067027 0.7895497853866402 -2.4098427996790943
P 1.9726126016546384 3.192404925985842 6.147876316759772 -0.9540947312819826 -0.3149521668377221 -0.11607553754004525
P 7.106098342368732 3.9850055821484136 5.967531029062076 -1.9033095087638445 -0.11225333558047765 0.7424332915148116
P 2.5094342337033138 8.385429511849903 10.37693302416816 0.290974315865886 1.212106476178919 0.5417507193566476
