# total energy = -340875.38461770886 ev
CRYSTAL
PRIMVEC
9.26207351787983 0.00000000000000 0.00000000000000

0.00000000000000 9.26207351787983 0.00000000000000

0.00000000000000 0.00000000000000 13.55598081815469

PRIMCOORD
 96 1
Ni 5.9933579745211345 0.8907641557552063 5.114969801132345 0.27466195185910763 -0.7853642865503828 -0.5375402808197259
Ni 7.0796695055999805 9.089076311762314 0.10303500840964401 -1.3760919500263655 0.7936905470278911 -0.49691170866508616
Ni 6.563985049519315 3.178706514163118 10.704466183145799 -1.1660837295919015 0.4655612193782627 -1.771475165727646
Ni 5.776069734500077 1.5303260638311669 12.290298926159497 -2.762777359297861 -1.355658364762362 0.770346472985312
Ni 7.362940755932631 4.423019753959747 12.75141958212132 1.004184448849522 1.8460050186154207 -0.13797876537103976
Ni 1.3291816176019555 0.6678371654986496 10.548613275437601 -1.4430277926169663 1.4235432015297935 1.2991262340035883
Ni 4.643169974635813 5.639861684297619 3.8409651329028294 0.2809688679137419 -1.5365213310914376 0.17257167285456088
Ni 4.322887479327708 2.6124974481372325 0.8646395517567667 -0.5242988424287874 0.27022937000905073 0.094084892201567
Ni 1.0580066350215414 5.314577669398235 8.659899620464115 1.184686175184437 0.6518067901754903 0.1927707735102551
Ni 6.869309296420173 6.52503803122057 7.728305466904782 0.6067039842995811 2.0760773567896114 -1.280020109301757
Ni 0.4644262899287241 0.9183818059723754 13.227003891775253 1.1529993856041176 -0.4190494489699686 0.26765646707555196
Ni 9.110684728811295 6.121572855450865 6.168513043022337 -0.1479307343774291 -1.9074399859924505 1.4915159700253409
Ni 2.8433546255679594 8.974384057875666 12.531744505806426 0.31852420045969654 1.1543101339957411 0.8573765152226266
Ni 6.030387743643223 7.444243235510843 9.958643286523822 1.4213958161694875 -0.04300015771060982 -0.8072227771863711
Ni 5.6828932769292395 1.867604463676299 2.9415529792913717 0.11086751097654456 -2.000081460879272 -0.17484941314514404
Ni 5.755776531862134 0.5934543808957037 9.974056302730942 -0.3693919338438412 0.4863732710276075 0.31843524029031606
Ni 5.278159197115082 4.893505292252571 6.273422695071378 -0.022207903555606916 0.8391468795884773 0.3614017165495131
Ni 8.992130190351384 1.912275443285061 7.158534207481109 0.05945496083252341 1.0866291857089994 -1.0408594356730527
Ni 6.779226371337275 6.982232494303239 2.873013636744235 -0.7218480111642923 -0.15847200022838515 -0.4336492011610144
Ni 3.3980324103139545 0.34930705446215454 3.0646144426274233 0.5334725385082554 0.19789703899322691 -1.1709953079609057
Ni 1.8610839640610037 8.361049562811967 1.2133241948920066 1.6858908547979223 -2.553548697341899 -0.5257240049110881
Ni 7.841308318618376 2.122172548799008 12.21598560710643 3.0358570542715135 -0.22519521258754763 2.1354868090961805
Ni 9.123559010722177 3.5840241045962586 1.0972713424350653 0.02239816518954207 -0.16070526043427807 -1.1150501600538538
Ni 1.5312244849429333 5.901478207214703 11.218387140466872 0.4120987286837483 -1.4477866474581904 -0.5448234447447005
P 6.211581683947227 3.5351666678481313 7.887086115988541 -1.0690945192593457 0.369139451513403 -0.7941327767716323
P 8.270253458083644 1.5596590500266778 10.270689020030957 0.5103107556798114 0.24604223123988594 -1.078026531641653
P 3.3829444928802674 1.2172865098570964 10.997777520954275 0.939671356767801 1.3673656258969613 -1.471863485901736
P 5.460473848290465 8.618479628589684 12.195922103886755 0.09811072553150844 0.8020250350355155 -1.003546043934575
P 9.101098482928014 7.410946081935579 7.903313268440241 1.0601398811692193 -0.6641516848940885 -0.8248070659270376
P 8.067071355724654 1.4019629897283608 5.261523587230093 -0.17118122026493743 1.250628800623833 -1.089131640415879
P 0.9968676890548323 3.8410373770747035 7.04404016196345 -0.1607127166334458 0.06745546253949673 0.04856968137858732
P 2.7713605296735144 1.1929920915461318 4.978013375405859 0.6744170713758385 0.39083827664307524 -0.6467586862286215
Ni 4.463819186921928 7.197084809041878 2.0610512007716015 -0.29650115922138615 0.5614790510235104 -1.247519308460574
Ni 2.371062982978285 4.45947527453617 1.2562928054250708 -0.8690881472326001 -2.4442927538268484 1.519318594059906
Ni 6.897817958090456 1.5658368529292372 8.117808993356169 -0.34291754170239647 -0.47596981630609636 0.2669265308880629
Ni 4.330519427741065 2.5232017992862943 8.518686345841052 0.5824816214171066 0.5099901391155991 1.8228038979086092
Ni 7.710722346919447 8.878993964782024 6.5930049776367055 -0.3245007297581056 -0.24334000181737445 0.9010369322250548
Ni 6.713261885172315 3.229194075815069 1.137012120417092 0.5463910463421364 -1.01806017839035 0.2854536431579729
Ni 0.4731104098709126 0.028949536360179724 5.260263019051625 0.989092073292774 -0.8613879503748648 -0.6680767309801076
Ni 8.730198756941517 8.133471159335521 1.0867913064766754 1.0374218707464133 -1.2934530948782113 0.8027629416428046
Ni 1.6938016578794048 5.787508395046795 4.352432567002182 -0.06084027121582425 0.1966225431561775 -0.2896185731689399
Ni 4.237639356516377 6.992763471664874 12.75842819300043 -0.6565419908676305 0.37752613291520143 1.7630684297211894
Ni 8.411305572630988 8.972605739798768 9.098842241867949 -1.3094618116016417 0.7310358483111474 0.9383768063260937
Ni 8.09848830841653 4.621283695387315 8.034710597761757 0.5354620581344585 -1.8317155985759421 0.1503074621397218
Ni 5.190428838654747 5.18700187152739 0.9211085603569533 0.042942307889480884 0.1850960305738167 -0.7721328754617734
Ni 4.642364174257218 5.640491505283187 10.982716463533206 -0.32692142338445634 -1.0934724338830781 0.5177268456382245
Ni 2.4611273839145498 2.3846041341680033 2.796083781979065 0.7458564582637477 1.2978406824229454 -0.5698508200269734
Ni 3.937538918966408 8.238975436491526 10.419370304369663 -0.876708125671703 0.23079070439745414 0.22852890494647093
Ni 8.308227958684085 8.851059551657407 11.7167191021878 0.8308908102272723 -0.2750913260870424 -1.4779708843510546
Ni 6.7095663179187595 6.871133924863658 12.222776559262588 0.8039932145054798 -0.9090029811496667 0.4306793198994131
Ni 4.848195229584923 0.10677966465178013 0.8326372360312443 -1.2487930329666752 0.1550835433721265 0.23170241757844615
Ni 4.138535172022545 7.25887210014079 7.837607194120831 -0.01705027061406741 0.5243433225134776 -0.06246340864154404
Ni 5.539766457958848 7.731524963589834 5.651515224945296 0.8463233427322586 -0.44407168204591907 0.6785850867105991
Ni 4.670456042628228 2.321390483778246 6.326549021411395 0.7143290770794278 0.5201825062675687 -0.7052564253541983
Ni 0.060877755499164736 6.337323591301271 13.090183618526527 -0.7850058747696996 0.15698615971147803 -0.04119472907075486
Ni 0.740052624945375 2.778399705394572 9.179011969879468 0.3077865023272183 -0.4125201324918831 -0.12895367905429406
P 0.915578176379265 3.9368720496875715 2.9449827250407234 -0.0709508772872649 0.8490548827308088 1.3742623530167943
P 0.6895048598168618 7.771777934226301 3.5280385762232287 0.6800323606800869 0.005491619242190542 -1.0818266221140336
P 5.5389050851403505 8.744684639609586 3.22689245059575 -0.030853495045746866 1.17921692453975 0.4897177620198082
P 1.1703648464322596 7.951953046465416 11.833828757210231 -2.201594756468847 0.07976719002731425 1.4425835059906964
P 6.800316112280495 5.31229919936221 10.3879070413112 0.3017603507377964 0.7222038518418143 0.35502178116509825
P 7.126165113652226 6.536921271286513 0.8363439177727798 0.7568402109687611 -0.43234128098286834 -1.1405261928377712
P 3.120336928118246 6.348049072202566 9.565804487470919 -0.3741374189486266 -1.7347916942636834 -0.6151806543120244
P 0.7475252656976763 4.207231969816074 12.661204209389986 0.9709812226246761 -0.02114938038410551 0.2580204866476846
Ni 3.130321443154166 4.883844949782751 12.739178826025334 0.5196235484403052 -0.6620729479881887 -0.9408826034670827
Ni 0.9609864170240745 2.2899550069397345 4.590475260912378 -0.45280880480860075 0.543086921669568 0.19138880556106394
Ni 0.5592393558547069 6.087201301370808 1.9538232517712697 0.9213666449213422 0.2738530828045671 0.2814406653438379
Ni 2.4301179624486293 2.444325982917184 12.625999994918715 -0.4051282109031862 0.002202664078273626 0.5879439300832584
Ni 1.7070834710162417 7.378158342392759 6.431241940944814 0.9888138799307228 0.8243517235571739 0.34538091564122453
Ni 0.7700515542123914 0.629471805404224 2.2896595468009164 0.09077588243299205 1.6352979723417191 1.6103428450582784
Ni 8.986609994654344 4.177352521294849 10.779689037798613 -0.7289362854696414 -0.1377504514103176 -0.06287761336082719
Ni 8.108194961252934 2.560259354628334 3.2339279214874805 0.44491474677250475 -0.6683585238865845 -0.021492879766453307
Ni 5.234488521424575 5.322543052451011 8.752256384546381 0.36467370243256547 -1.542250777376047 0.8716705632477957
Ni 8.541678516643621 6.3977493576225575 9.79106459399607 -0.3822428216645804 0.7222861271429754 0.540115754856386
Ni 6.271924091608659 3.698392185916805 4.612151291096575 -0.20280733181065072 -0.9860499440323405 -1.0745504001675945
Ni 8.150263298259569 5.00803082881951 3.287068140937472 0.044783731973593845 -0.10804829636019457 0.007069762362587824
Ni 2.9851384439073603 3.485457120354823 10.517719629888145 -0.04773201596864037 0.1790973897882206 -0.6490572524548112
Ni 3.481279925288774 0.015052721555081933 6.651011490407544 1.1050462547636066 -0.8434737890986054 -1.1673597680908474
Ni 3.336671174587633 4.7073654047971925 7.613350170135926 -1.958381252927008 -0.02542409650005944 -0.48950796000184726
Ni 7.856340663612159 0.060289613843523764 2.9972004419883245 -1.4934784930683505 0.0600691973777546 1.422220368953312
Ni 8.15092090546509 7.4176147747239485 4.634789650698428 -0.1552871747425003 1.6834611623105074 -0.28007720933740793
Ni 8.589035497514367 3.837425168481003 5.448040441069482 0.07380223069313095 -0.2384888443726602 0.8362657013859404
Ni 3.726558150874351 7.74267649986372 4.194057596729716 -1.2717316440407194 0.40243729433458436 0.8813032012415531
Ni 1.4238955793434445 7.821191095373459 9.791037733983453 0.1005519879831494 -0.8341208871287957 -2.814475044782469
Ni 3.1666472947041484 3.615793016074188 4.970896398268938 0.07079069756031679 0.5518955211001334 -0.08059739923809346
Ni 1.06362871352507 0.21404558815271224 7.718259822184969 -0.32524017902729147 -2.150671744366735 0.08315410422167614
Ni 2.925555526257937 0.6632126122913812 8.805436430911639 1.2136337114567228 -0.13523462696699934 1.684374418153396
Ni 2.3795007317702375 2.0221051086801887 6.957160061833632 -1.240350815736593 2.140181386358372 0.21568367355268664
P 8.266280028630574 1.318696950606907 1.202038358555022 -1.0043831951238897 1.3185216078110646 0.12608304237471837
P 5.447479159426461 3.5728725683223734 12.746322663174876 -1.4908634240430065 0.8247918964183859 -0.028029395333390435
P 2.810668768831629 6.386792324888332 0.9338642877293746 0.39276377580056226 1.4698960777627201 -0.8510932533170762
P 3.526830801862668 6.350938839077526 5.755191168828489 0.12375053758679977 -1.4170218554715077 0.8190927891510796
P 7.159675294913786 5.654514284285399 5.176310660297369 -0.9077410837181076 -0.8256074503411458 0.6404880227285614
P 5.867301156674307 8.74868585528261 7.914130443867377 -0.12588506743129932 -0.49449641435537417 0.0703662084283885
P 5.139283669797275 3.808119968505444 2.637614338558763 -0.8555145223132233 1.0177567882173182 0.6733909441041693
P 2.583368227554699 1.140281632298057 0.9212789825059895 0.24033592488372804 0.10004316666753094 -0.14806443174181597
