# total energy = -340863.9250321103 ev
CRYSTAL
PRIMVEC
9.33100719808318 0.00000000000000 0.00000000000000
0.00000000000000 9.33100719808318 0.00000000000000
0.00000000000000 0.00000000000000 13.65687222705862
PRIMCOORD
 96 1
Ni 6.764998820682126 3.1835996626691117 5.948523567775027 -1.2177503047282576 -0.670323103812123 0.6596453123833027
Ni 2.903072264751606 6.459884219015531 6.701358552852937 0.6295238104075739 0.7978765600847808 -0.6925608321644009
Ni 0.048660269006120284 0.5059915897463009 10.691746949942647 0.5984281174440339 -1.2303893336485068 0.7301400759697554
Ni 7.733389401132983 4.399187283621251 7.993134780003061 0.14332665994651447 0.15990384757890524 0.09368868520441284
Ni 9.156722564502479 9.410320675884927 7.472316219950384 2.3056143912856233 -1.6226036647035023 3.5546570783692584
Ni 5.561476191930204 2.5272472911644788 13.156361722046398 0.2055841232248395 0.7291430021638088 0.24696808548826496
Ni 2.0620499314260132 2.398236786786904 10.291477537015297 -0.5595039295750107 0.4051516079419539 -0.7933884424064401
Ni 2.9187203636841383 5.024131485175434 0.5658453348880598 -0.8214952279449852 1.5250159015549993 0.9494610891647132
Ni 5.889134506787615 7.212532583951132 1.6347821825109525 -1.989129589853458 -1.6048293714392168 0.04283329311544236
Ni 7.446964806718543 2.1560225040852465 1.0825395897957288 0.9416441642234556 -1.341800118723031 -1.3294822205876264
Ni 3.8663681153174525 1.4880623597290519 4.133306767572796 0.25137984140271546 -1.0181537665454206 -1.357501331508372
Ni 1.9964622824118385 2.5682104124011027 5.438289169093352 -1.7406918617982021 0.5479493919681917 -0.9033663516891796
Ni 1.6453458156663014 -0.09723096034393269 9.131052963928001 -0.19160117868218615 -0.31626291522934563 -0.6015455800270931
Ni 4.542520883920972 6.910086650319543 3.8284170431776814 -0.08972044458528419 -0.7056855424718169 0.3097107159331247
Ni 2.1788461474895247 7.724487620344887 11.126581212527588 -0.6181019417238774 0.8706192391651458 1.7476050439782675
Ni 1.7391690922116887 6.821787329986474 9.156099253227168 0.7280065745665204 -1.327911790776713 -0.561068188738337
Ni 8.858802169321859 3.8451587361441395 5.4533662103904215 1.2849139470589483 1.6865189753002245 -2.7746201175690604
Ni 7.882386922751754 8.0153164501178 1.3671894266568199 0.676297576228003 0.8939681983037314 -0.3087799765887392
Ni 3.6372359045915923 4.036341740931651 3.409383908041965 -0.8485879703967191 0.2745560224088626 -1.0120306843668183
Ni 5.782145179202393 8.016361522914725 9.39013770749431 -1.5266709206599192 0.19934277030081798 -1.568435663301531
Ni 7.779288625133655 2.941068125725531 3.1043028980009852 0.47948502854820646 0.21566464738929308 1.9799160416749904
Ni 1.551373243007068 1.6820633286654163 7.549819565050929 -0.2246758497489679 0.7935535072293947 1.4069719274346737
Ni 7.557490586000503 5.85172649926196 13.27725238403215 0.2297830890685462 0.5810436034189994 -0.4330529623379123
Ni 2.167341015716232 0.28168444279981575 0.5231998330685288 1.3779665413412592 -0.33535695574631924 -0.5237434841459496
P 0.8566956259773368 7.43029962801043 7.2713963092379466 0.10568853787876635 1.7742272745514864 0.4012304185106767
P 3.5511666949591056 6.408218432617539 12.429433345123698 -0.45554908655789933 -0.13675466315595156 1.0686098663134433
P 2.2909022119384117 4.758916269934306 5.165848021942055 -0.889382635815578 0.8402889636127207 0.1447443662296475
P 6.497814762939648 7.798463844755811 13.303282161481281 0.04178068348121192 0.24516677061346812 -1.3794402976733082
P 7.475834942733602 3.6185832213678992 13.173282570349473 0.42545175295188664 0.572225233796421 -1.2475740729579095
P 7.864499382111525 0.7588572170701913 3.131903083947639 0.30778753076848286 -0.9530950863728748 -1.0914458903713524
P 5.298649714510619 6.7093673562600875 6.0350537291590145 0.027718291850874842 0.3736039150426598 -0.4243482354750628
P 3.450102556892165 5.516743343818956 8.621733937044347 0.9062583285249941 0.8782929536603197 0.4805908600178755
Ni 0.49468614152527735 5.070105357233029 -0.0006429063902513351 0.41637447324096677 -1.478101496391648 -0.32063276216226716
Ni 5.996086510344376 4.179208790875602 4.023642240247587 -0.6222653290729477 1.0843509311977841 -0.3672738590595739
Ni 4.2966021913945 6.170035144989737 10.517089158756514 0.36829073035986254 -0.7081548299479158 -1.5014044327836464
Ni 4.1852366214721535 3.6461750094081493 9.590265415702646 -0.8589387175034239 0.5470883295194772 -1.4736622296733717
Ni 5.624376510895142 9.031416469949718 2.9571361199782564 -1.0593922043699173 1.3774476927233115 -1.0456704839084507
Ni 8.747791177669898 6.635568420984357 8.825385033539462 -0.9163951598486799 0.759914993239343 0.36982156518209214
Ni 6.572714757054996 2.862221115600367 9.43752709333131 0.16617014020359125 0.6548975132856721 -0.5058573478941482
Ni 0.36983819942188345 4.386329155816225 9.714023496174962 -1.5424832051018273 0.14332614572588218 -1.5994189990569228
Ni 6.3264788102866 1.0861758832686017 4.627002889243128 0.6819966834953093 0.51617441354944 1.5175980118243735
Ni 1.1983065957744117 6.591927300705613 4.316650793282657 0.18216291608742177 -0.4691875032769403 -0.29745426716327483
Ni 3.4056776320157267 3.9937736864711786 12.097147783837757 0.800502427743402 -0.5633590416550426 -0.07957589995211456
Ni 7.030279352973062 7.572354880335341 7.216126887891986 -1.5374448713469715 0.5032345655593204 1.3869535753312179
Ni 3.61559729909097 0.6170417716281468 9.866106781846796 1.2812146438304903 0.6656220987920278 0.016216718969178524
Ni 1.8785276834802473 1.350756590025882 2.601006103109613 1.4764737309802378 -0.8261550953144997 -0.8708462675742874
Ni 1.4888461643267459 1.8283175341922586 12.492842203976425 -0.7774638007563835 0.6172311090831498 0.8766826717504064
Ni 5.161978453291297 5.145238626526263 13.574575594757382 -0.431260903434496 0.8919329130412574 0.356424832160212
Ni 6.794690085323342 7.749933276748594 4.3384190997821825 -1.4288427593658362 -0.018056086170762452 0.8912232885687424
Ni 3.9686826083378572 8.149188409202502 0.046911638272693575 1.1697156699175337 0.1353644676766443 -1.9930754618750834
Ni 6.7657826252798206 4.4679194820333175 1.4354737367273465 0.10149404018144456 0.2995993385307356 1.3176957694756597
Ni 0.7979476051787533 3.271404439625063 3.1433746240953164 0.004096024446244559 1.3919394585815834 0.25807473692438776
Ni 0.4557413171277157 1.0368708416708072 4.223442430106175 -1.3763220637593006 0.06811469339005043 1.5310507948951697
Ni 0.3779160522816887 5.622510309472061 6.523751230317625 -0.05936754332503969 -0.35672333723723726 0.048594106858619535
Ni 3.602477903086712 1.2647060424076264 6.529118425610405 1.3043167770655923 1.0235314859175662 1.6798387350665713
Ni 8.59619030506593 8.13772060145767 5.682173702068666 2.216195279990841 -1.000917348062476 -2.0973378088302845
P 8.076219933560042 6.255936396494146 3.8382369950659325 0.4245012161131592 -0.3804975568386995 2.8797275861333764
P 4.048584022267062 3.2049396759420405 5.322833818752324 2.2894871467064566 0.7228276014687423 1.481354456111307
P 0.5636105586839205 8.976886064367298 12.497075681904684 1.071099979725149 -0.08293478912201846 0.9318490325099049
P 1.5105034318415984 4.343826418405559 11.356221963141238 -0.6848956023096592 -0.15251603975526637 1.9447585199372508
P 0.20079860761993623 3.40286899887399 7.62231029312908 -0.015650819163379497 -0.8748083375458289 0.43604521219701675
P 7.414763501163284 5.4617463878807655 10.194144868693805 0.13967337946464334 -1.9767214459970925 -0.6593282953635161
P 4.098141001056972 0.9208994866362971 1.9426904877078999 -0.388528397562976 -0.9375471113359467 -0.9817294622801156
P 5.352330998445538 3.5080854351072857 7.54622806041221 0.6162898282158031 -0.6559454949342122 0.7136683035669774
Ni 2.089669712487609 4.3424454293524795 7.554831248972613 0.734528177735122 -1.3205350386966677 -0.11744259309090098
Ni 5.416136425100671 2.6574894884812883 2.1272764704648215 -0.028855490779111592 -0.4107113614179185 1.2130593270104915
Ni 6.336556297971236 0.6675962350786941 10.72857923432928 0.22048083783101385 -0.22947969889551448 0.1717617753587558
Ni 8.688585937522658 5.789964563165101 2.0242761484214347 -0.453839045845328 -0.7975222620691556 -1.5913884154429625
Ni 3.2868379253939413 2.788384856296175 1.2310033778074987 -1.3977486090641928 -0.15281505905292392 -1.5760049910083567
Ni 3.8384310800139327 1.256774686359533 12.20935314440049 -0.35583656375690975 -0.3464111566779518 0.13787412147237546
Ni 5.777199745431229 5.591223442614112 8.42623534146596 -0.946869417178137 0.40730567817047914 0.02189654296277519
Ni 5.771013287713716 0.9094447423014271 7.988477674351763 0.36085227180394625 0.828073138272819 -0.009480428686609478
Ni 0.31913350675677815 8.370361270858922 2.9543088248222893 0.37636270873471955 -0.3757680125735141 0.042749989373016696
Ni 4.37281785751312 8.329155543437297 11.355279531422582 1.3664086613003306 0.39903443930062243 0.7773079919048097
Ni 7.1365688550246285 7.346096619801026 11.084286556575597 -0.0722917075858755 -0.29736042189788786 2.8557587340226043
Ni 5.788966145403752 4.4673689526135085 11.540712769625584 1.926740486093275 0.28405110638349146 -1.3543584150040158
Ni 7.8435419401303275 0.47575539428954566 12.716064154795388 -0.3071846070771612 -0.22534819322564417 0.0029976491757432245
Ni 8.574066487195307 1.7364257761197601 9.12299563928385 -0.0021934081068929966 1.0750754194331291 -2.5874551202813563
Ni 5.773066109279105 0.3353414661162349 0.3976156745037296 -0.23188316613068452 0.41554657802303274 0.7058431510956038
Ni 3.1570716094400177 7.514250699027721 1.8670990659653006 -1.612903406696603 -0.6308687544712426 2.6754210440693793
Ni 1.792113226584491 9.004291232265238 6.101644461438095 -0.38945296625977444 0.14860770583979566 0.5611386369649562
Ni 9.315657608699153 0.5199563749952144 1.0514934629213568 -0.3502678114198806 1.529137379922541 -0.02735859451861095
Ni 8.445923766479464 2.609882690178497 11.231248052441787 -0.33674869388752326 1.0299692711231099 1.387875830035171
Ni 0.6687187552346773 7.471925250752248 0.36431331010885276 0.4444198094139572 -0.24725887725580642 -0.02266273170483839
Ni 0.1896116631892784 6.300995829854432 11.461134208542571 -0.028498621660325112 -0.4729073753306888 -0.28869708979593506
Ni 7.385034912493606 5.652574814397893 5.942473342761399 -1.1833628283873232 0.30083166827594 -1.4002448931234852
Ni 4.105176580421987 8.745813004161432 5.462871707338883 1.2285342827176389 -2.2826066175365396 -0.4150938067563303
Ni 8.719658191216954 1.8939611692491254 6.180840451229375 0.5281467554199678 -1.0313617805952624 0.19437899853763943
P 2.3589439158239376 8.92671323910777 4.1013499344039595 -0.33651292372763336 -0.4564019214764979 -1.4078892970426204
P 0.8532002307119064 2.8598883638215162 0.9758311255246804 0.6328438759197423 -0.5828785997452091 -0.11684224050274071
P 1.3823233870972937 6.1104100095223055 2.006563097614263 1.9818392268396323 0.3585156532509696 -0.14568487576604588
P 7.81844153098989 8.640820512098907 9.630238517084328 1.3072995138430001 1.5616641489056524 -1.5845042867286194
P 4.106119012140643 8.871119098714193 8.072331702895053 -0.6601945000185533 -0.19575505294955964 -0.8488039430622673
P 4.709014043881125 5.484793975455814 2.0591694495294877 -0.4149763073418595 -0.9128023002910988 0.7486409629874204
P 5.23169040745048 2.478399468915339 10.952524338199687 -1.3947807846851206 -1.3721527628729595 2.0293953793520405
P 7.400897624589794 0.3679300084667833 6.636461398365301 -4.108637764133196 -0.01878550813761926 -1.6908875366815652
