# total energy = -340892.68392724026 ev
CRYSTAL
PRIMVEC
9.07799476826695 0.00000000000000 0.00000000000000
0.00000000000000 9.07799476826695 0.00000000000000
0.00000000000000 0.00000000000000 13.28656296113489
PRIMCOORD
 96 1
Ni 6.462842364183883 1.9684179226932201 11.390052037180071 -0.18061254088116638 0.06575442068798998 0.5664708478111471
Ni 4.54466206466869 0.13058604728109846 6.088766340596128 0.8785644621541514 1.2470182004544395 -0.4973899338530854
Ni 2.7344191232284403 1.4703809724234496 4.748138963331365 0.6005225380792173 0.0982855605464759 0.38603211350368355
Ni 3.336144930010575 4.247257877293312 4.793658752616075 0.1359928452892626 0.16327070716860914 -0.4053390413624116
Ni 5.033621020146624 4.590968916101851 2.6205620047497393 -0.4232020376857614 0.06364123099972911 0.2408995106966819
Ni 7.386918688029364 6.256190890742502 2.590893302171057 -0.6129147410959832 -0.19771011979340145 -0.37972442611810087
Ni 5.132253433559934 4.543327599434289 11.519463391935105 0.741230272345646 -1.236099753769723 -0.059904389665116194
Ni 5.737338098415049 7.9131155781434135 12.430550013032946 -1.496680544945416 -0.024021816835894112 0.41797729895171243
Ni 1.7061728091466282 6.522012734237078 0.37952554386129483 0.40430571500189083 0.4827629279685299 -0.18346852227272276
Ni 2.8665493374236304 1.8243410673519727 0.6110053330583507 0.31257338219290043 -1.2812470397303224 -1.3466240224742356
Ni 0.4878378231211416 9.119935127775456 4.688084396585446 -0.11555643181178162 0.29010965387274557 -0.00024811145506408887
Ni 8.549328687139738 2.3081527997829343 1.2128509693717378 0.1973501653508214 0.21534685903855816 1.1805222736147347
Ni 7.018461035418277 0.8111941820074231 4.9266177877357595 -0.2468109910851104 -0.061877968451719244 -0.47646115412021806
Ni 0.5857839401281895 7.773568642203292 2.3298119875567784 0.9753284438497783 -1.3538675914105265 0.949914631762364
Ni 7.7304481669420655 4.152801341484246 3.8964569245523486 0.4261693478442015 -0.5820831004271071 -0.31318376208338966
Ni 7.668590710430487 4.065289471690936 12.713274175030444 -0.3764910067824678 -1.4035287060810795 0.3573478581951136
Ni 8.098778727626067 8.741546148862097 6.903471890989033 -0.8020669440170445 1.0473787248488093 0.543048869342781
Ni 6.775443114840796 0.8289452930233815 0.3894105723901263 -0.8196016104666981 0.35856398999040184 -0.35430084383867366
Ni 2.09521027595081 6.498818457543934 9.409916238809547 -0.8455530402251372 -0.6218426397132323 -1.1083228686323492
Ni 0.08898885954594218 4.748408579776683 1.3694863227080127 -0.7173570652724742 0.463970220742059 0.6221066920078964
Ni 6.570062560670272 2.234403170094049 6.929287892578061 -0.27017177729823794 -1.027760179286933 0.9538733592997958
Ni 3.3207940408175785 4.519098431334876 0.621759125688761 0.43188645283363686 -0.7802886717996884 -0.4112813749887756
Ni 6.092678048551931 5.72548223721691 4.890876814440817 -0.6645743742538037 1.003134153208137 -0.30119367960104904
Ni 5.378385106351015 3.141421941725668 8.900641638786961 0.004894609088139958 -1.2068480559934571 0.8080771547668663
P 0.2726330629868914 5.440914334477189 12.479842616953142 0.4666099723577512 -0.04786956998776917 -0.8768541643312641
P 4.17949972416704 6.03594965909774 12.597110338075137 -0.7859116744134207 1.5364945916185604 1.1486902167058024
P 2.533659268406961 8.655051014485473 1.2556292042293122 0.2827917800550936 -0.1912859614346125 1.509563314445355
P 6.356992944911061 7.776410054573137 5.956791360111878 -0.9201037190485186 0.3290628952074914 -0.1325953895719394
P 4.662893868837577 1.2631485073153907 12.633621125328427 0.4785712584846854 -0.7530308645249999 -0.42361469974314786
P 4.013445043434754 6.069383913916076 8.228899981573823 -0.1813098240585071 0.014403062799207453 0.8311733744646976
P 4.971255195926702 1.0979380800987462 4.075015635310911 -1.2405292502959862 -0.06659491431141434 -0.38751281181426805
P 0.25196519224431563 5.861997122896557 3.4463082124084776 0.6390001253291253 -0.40523414035343114 0.8102168268176885
Ni 1.471143523985964 1.024923767988 2.710418720597781 -0.2889056062623154 1.0874110581803467 -1.1312619939270259
Ni 1.9541291588908687 6.344547014051453 4.847137219934787 0.8290864100286818 1.3740283826291175 -1.7072469518761955
Ni 5.976988082924758 5.45949698981608 9.334115890097186 -0.28491345438378674 1.218049066915599 -0.4704314029863705
Ni 8.651637688443742 2.228384459547061 10.24948097014042 0.014914455217987215 0.009117131809919783 -0.17489209345762138
Ni 2.4415630112437734 5.242832488119303 6.802707056599121 -0.47904022770130406 -0.6199857890101516 2.1997669592314892
Ni 0.588202317940735 9.003537078554517 9.190196084065837 -0.6498697210537775 -0.4160417724918964 -0.20784283735202916
Ni 1.542396705107094 1.0965400689008031 11.546713716701241 -0.0716216781020444 -0.06421484411501198 -0.466477560544945
Ni 3.8275458660875126 6.783722246090952 1.6032229014103196 0.9893034179726318 1.0729504026703263 -0.379680717364359
Ni 5.538148736692558 7.855125347413157 8.155624223213072 -0.011903436305805306 -0.31571347048377885 0.27461207245777863
Ni 5.415532261039212 3.134568055657831 4.857952742929783 -0.21256595385931135 -0.5792831690844669 -0.265107218291137
Ni 0.6917677137239301 7.3109358716216875 6.668684988289312 1.0038350359299035 -0.11632184922289644 0.32887031958071106
Ni 4.895481173399237 4.604585908289607 6.879357105623997 0.5086742485176531 -0.4411714776799886 0.24457130312131428
Ni 8.240095872550596 6.865905332941454 9.360716230436227 -0.19509942164343175 1.317934624959343 -0.09947006777288031
Ni 4.740910156078626 0.32549059546184245 10.519675683726224 -1.0361553453291639 -0.34281906845131926 -0.2909889711539053
Ni 7.995235119030373 7.3093744565174905 4.65476089330357 0.9736091471658264 0.26037793113626767 0.16042912395475598
Ni 7.381326643237592 6.318384233061379 7.1825167416974 0.12617740186073756 -1.2982859974904803 -0.4752069699981428
Ni 2.2621092101987363 5.270329734343777 2.593032077744014 -0.697208101128425 -0.329118173925459 1.013215962924171
Ni 2.368448841190317 4.953870835900334 11.592937958381796 -0.22882972401634138 0.5152799267596286 -0.36857072349412656
Ni 1.044595782701911 3.3032644328745406 4.036922553565404 0.6735400680875239 0.35761602425483574 -1.4794042743634714
Ni 3.637543435094361 2.5655411861158934 2.7027795879804506 -0.38575854812732274 0.6756167481108946 0.8031663477288102
Ni 1.232029141168973 3.328401400453138 8.186197094073021 -1.7475649347689515 0.32722327089559133 -0.2878501684146075
Ni 3.7402609461639984 2.2873914256940027 6.93331398326824 0.14629088478116095 1.0457422176866507 0.17569890562963286
Ni 4.132121669348441 6.970992200651761 6.20761544841086 0.13669141401818394 -1.1557347822574096 -1.0310841014538437
Ni 0.7360093213419485 7.394807465503471 11.310478873832222 -0.032160129672312354 -0.7171310653045972 0.8089014504403745
P 0.5198277689680966 5.674118942684694 8.065993549435348 -0.5502685270196717 -0.9574029697196091 -0.42042678893346946
P 8.540341472295818 1.4712524599234658 8.029681570267998 0.06804733048722475 1.1127076279636063 -0.03396401565027054
P 1.556612844951111 3.115449798626222 10.447317710638927 1.3676754438278962 -0.10511338210158672 0.36737464630349637
P 4.277124480158457 6.219588415741814 3.763977207557673 -1.742227581716438 0.5907734291122535 0.33185279924780264
P 7.036253905210278 3.851738722207759 10.491269730223085 -0.3058478905436087 0.6249577883034463 -0.5244294544693807
P 6.403181782411929 7.653276133216658 10.274366477263284 -0.8217960470148558 -0.0339843273652447 -0.27553484138236417
P 2.3517997987420878 8.475406575549808 5.692601740080875 0.3737059878381629 -0.47765363176642256 0.43174941303514025
P 6.93304618242188 4.071081232368129 1.7872020828590873 0.7318591155433911 0.9207570363618014 -1.8483940876728877
Ni 5.31169815661018 3.0475736315676554 0.412756451596294 0.1175274394952234 0.22231994792228163 0.025741627740478244
Ni 1.504368984924088 0.9741323871276708 6.93161276704425 -0.9731895431299045 0.5898681436891647 0.2579484957591686
Ni 6.838208370831558 0.5705047670940484 9.30643980737531 1.2125088538236604 0.20356606435354616 -0.3534410669415397
Ni 2.568101180647192 1.5611518423470296 9.107407494962718 0.9856473092772832 -0.6101443774396976 0.9926484231854645
Ni 6.135825757797533 2.303495788454722 2.6507091176539515 1.6133484646538214 -0.7292538167100602 0.08016545390699742
Ni 4.113421000077257 6.650720544395746 10.522107678530958 0.7815217728758411 1.2075219421320302 0.03194698522024176
Ni 8.157803849762592 6.961850659896381 0.2776214211250059 2.451396197640849 0.006497691909201713 -0.5571850516338469
Ni 7.706645664597869 4.01347227741913 8.364940995925338 0.7592084540906215 -0.2246326552158583 -0.9188472209335982
Ni 3.1943648073516626 8.344556358620267 12.44764932402285 0.31473927949596764 -0.13746583029036327 0.014963306178051649
Ni 0.08839878988447278 4.940489871577166 10.205515333564072 0.5983833802490276 -1.2927144169399736 0.8391931594453805
Ni 8.71873314795021 2.39579176150333 5.7989604348615185 0.17745034110310084 0.28718528113709896 0.5769969441534515
Ni 3.7092414379602907 2.7243334710147096 11.142417048451462 -0.19701849304301552 -1.354236287603855 1.1521979727487448
Ni 1.0912112859579948 3.199902384174683 12.759936883859446 -0.7267130525660774 0.2265725525510485 -0.31565073556664347
Ni 3.0468110800051407 8.466954962398606 7.99473764491578 0.20872575417761471 -0.40399615418127194 0.4306860047676324
Ni 5.811823045682072 8.103399426975113 3.6413952282845377 -0.9105063051680706 -0.6109293352348382 -0.03244372235100219
Ni 3.032486004223622 8.270861196900134 3.592819785952896 0.8069612959948682 -0.3539804843847774 -0.5244924464968321
Ni 3.2246399199824394 4.072642647472325 9.333664713756031 0.3828604006439213 1.4447702292293698 -1.060260980128116
Ni 7.146969129691524 6.058245214306493 11.585523960035305 0.6071490422567996 -0.03627569450258269 -1.1395792555434696
Ni 0.6671754258328432 -0.12247213553615441 0.28632177133350256 -0.5826248318631901 0.19690536450391896 -0.4227479808674784
Ni 4.722581684593906 0.5265881516895777 1.827287784461403 -0.467701148539401 -1.146245611820052 -0.49274317910969334
Ni 6.038772915478002 5.755593945941434 0.5528217410390287 -0.7100466476539901 -0.1780326959691321 -0.23892850301324012
Ni 7.849233728793255 8.672253814616004 11.636345298278446 0.5010005340224791 0.4805327530864305 -0.553716376358956
Ni 9.329364467623138 5.054827215980355 5.6984870041044235 -1.6021518246070536 -0.761796783643088 0.5250925419746764
Ni 7.78240153113575 9.040711467227093 2.4590109172336843 0.46496343789326383 1.6028660770652587 1.4771453031259656
P 8.454808605367129 1.9742913853235389 3.5099376935034226 -0.35923479080518134 -1.4881573379657531 0.5863465036891514
P 1.6699243759428224 3.2855351090460827 1.667104750760478 0.6524919891679729 -0.4021734991502364 0.6333030749443479
P 4.989728915328091 0.9862333541851898 8.23800157915212 -1.1800777298781484 0.43345354021044064 -0.02283808094043809
P 8.570852612791183 1.4119005299744345 12.53492879714949 0.02002709385420422 0.9919611673104529 -1.1929054777704358
P 6.6326825687443645 7.883321599236604 1.1899508197098492 -2.9108050242644707 0.15216225596027344 1.0886477588009251
P 1.7776438621427622 3.137963225709978 6.098466178031206 0.9370395755719088 -0.019402830006644004 -0.6552574677282522
P 6.956730670833784 4.153355099166549 6.030359429904927 1.1371233378038093 0.10784749320329813 1.2043695125459772
P 2.344019957205483 8.443497423856499 10.339842422498887 1.4119781224000134 0.9168348184892597 -0.3061955036910146
