# total energy = -340857.03256531514 ev
CRYSTAL
PRIMVEC
9.42706458396446 0.00000000000000 0.00000000000000
0.00000000000000 9.42706458396446 0.00000000000000
0.00000000000000 0.00000000000000 13.79746192092542
PRIMCOORD
 96 1
Ni 8.08803476324964 3.237612150488461 6.666974562118075 0.31169509335300516 0.3315416957652871 0.17687569954655344
Ni 0.25245678518417003 2.4011770056402217 0.2011669557909096 1.2429052067273305 0.6450923542697923 0.6377695953561339
Ni 2.0298826463697317 0.3956774613944204 13.50618347661374 0.6223046669513154 1.426977166912007 -0.03502510992493322
Ni 4.776533281832369 0.09474576825298664 6.301880383117027 -0.4877521536530051 0.21284517566262698 -0.6199436229183065
Ni 7.764130256821599 1.9372711655015729 4.7269554073378925 0.21330540312849713 -0.581328995869902 -0.8397269204616634
Ni 6.831576763140731 3.782713296481899 8.719222918825725 -0.5258890697340427 1.3240790472941841 -0.46294974989734455
Ni 0.8212274045248974 0.9412377054251422 8.707674764910468 0.7609516620339734 1.3938914401016316 -0.8212229481202051
Ni 1.2784230602089495 8.071810785381755 5.7157366267555405 0.04123586672133543 0.24852000335641716 -0.0991193693016809
Ni 1.3556967072647612 6.569080154348603 1.4944442414074282 -0.2818397005544695 1.0255153491168143 -1.4915895035757538
Ni 8.659173461172827 9.11492489058764 2.9314635198966568 -1.325160453283821 -0.6395138317407502 0.5163561905429429
Ni 6.133078424894985 3.7005752841850477 5.3183556948203154 -0.5720267446323697 -1.8235163505946015 0.19317880758195116
Ni 1.3382754922154578 5.148053890648954 4.683810561604046 -0.00714355302331673 -0.2868672356760479 0.3698495902065501
Ni 5.225591495508542 5.203268206960518 2.3570338337842323 0.42377873612483785 -1.8742545003794173 -0.7028151629025573
Ni 6.317481232026709 7.165266562437373 2.355764950913217 1.320045757765075 0.6456723951429783 1.9755999307981398
Ni 4.2348447331591945 3.1259485724262324 1.184209921095728 0.4624571265316423 0.7487294089361686 -0.4295508627219247
Ni -0.020951650674825167 3.312010542895984 8.822745284054308 0.2860174860812429 -1.467374082671815 0.44229890641621245
Ni 8.265273001421692 4.6642852257760605 1.02694951784385 -2.294253971967481 0.08299469582567642 -2.1400955115127855
Ni 2.8817310415456827 3.9501568147209287 6.889693672587405 -2.4028745958913778 0.7664911037949638 2.0238574802529468
Ni 0.9169234208714824 0.49312879713612456 1.7913241822608799 1.6459243417073137 -0.17698857097533388 -0.2795596462710411
Ni 4.700042081123468 2.8712104376522722 9.8172807835943 0.17987129183976766 0.17945760134111674 -0.2960080216350515
Ni 2.505902264288875 4.80870785269994 0.4372527009022331 -0.6442446615575163 -1.726753140229923 -1.4419443297448005
Ni 2.1602118119847855 6.485367822293508 7.066798046444685 2.949071266834521 -1.6011326393139198 1.6008631877026172
Ni 3.228713001675397 1.2911590242412054 2.3490180009073804 -1.6919753704291054 2.16808145520275 0.33798359473588885
Ni 2.582742266381339 5.792054369479103 11.365424412060902 -0.3793765558603789 0.024457875932048203 1.3997900649742538
P 2.333170162909878 2.5222676481230697 12.787280257429565 0.15996581116509223 0.31028484326903977 1.2666850827557474
P 2.359622505674134 7.5489009490344525 12.762720869200969 -0.3083315761974109 0.34708992791253124 -0.14220437341661316
P 4.992940972672092 5.005884332121602 10.194378443722126 -0.18638081082351127 0.2755592668623964 0.08200225000542007
P 8.373693669323227 0.8281628958191466 0.8001729988478874 -0.37036509639038795 -0.34417069738320727 1.019267825545206
P 8.651433841283497 6.764503199788029 1.6770540208863496 -0.6071678113098768 0.3924824971147176 0.48811339364716577
P 3.330468735031556 8.680818001082567 1.964178835477345 -0.21552966447332556 -1.16400910645106 -0.22345174753387967
P 8.140750907489739 8.008941692760649 5.802149812767143 0.21610944823619557 -2.2934605295319086 0.5616135197188458
P 3.046657533584408 1.987762522538407 8.400943541737469 0.0673544181852582 0.12238965268353114 -0.22862917796976112
Ni 6.849959538760938 8.74758989837381 11.105990656499031 -0.9189878602765206 -0.31589216215348825 -0.9340061880622237
Ni 2.9421019620953253 5.433731650851384 2.6234219347691923 -0.04557486041632151 -0.8758876866529366 1.8445721428236364
Ni 4.50444934852447 7.133619907177356 4.067919703463298 -0.052130659256968276 0.24535317559266132 -0.8976536175751185
Ni 1.2952503701997538 7.654003290259932 3.4235223452210413 0.9123248464340481 1.042087908763515 -0.12113983943683009
Ni 9.08280688210659 0.26937930852562275 6.437495303752722 2.3903355828841026 0.20648478066223794 0.7015674065383852
Ni 5.287753558298102 0.8173170582032246 8.37006424952129 -0.5107771537932687 0.2258395310397659 1.7503422404037725
Ni 6.884594573442291 1.6049765717391826 10.427073273761351 2.1507033689356185 1.0868405303888575 -1.067127368230646
Ni 0.6753831762863889 7.953897063608655 8.603089969521681 -0.6939710822483661 -1.6416455118263016 -1.006467074236112
Ni 8.364643687479434 0.3948214839450282 12.449338852079224 0.6521418049174059 -1.1318633749564508 0.1072563965865185
Ni 8.688312517296959 7.0855513056966215 11.772118340937256 -0.5581713268065162 0.631427712298506 -1.0772302609926028
Ni 5.028311318378253 3.083932146303534 7.2892126627332265 0.8086960192977879 -2.491294319387368 0.6563422161519986
Ni 3.6398178539941597 2.2626840022369117 5.766165765167199 0.4578635936236889 -0.4593039256146413 -2.6935606910928835
Ni 6.563301363858764 6.305678547372094 0.39824822186192305 0.32600431088682563 -1.5751292732716229 -0.9473959791055685
Ni 4.42780731478484 7.582414163049753 13.623103585796907 -0.8456180891351178 0.6512036093738527 0.15044553037948283
Ni 6.379134233337556 -0.11858869958561559 1.5960076626494062 0.5281763231063226 1.5312379712053112 -0.397747859278715
Ni 0.7937767356384976 2.1865038946538915 6.2402471786414635 0.8275938846435553 1.3236956958128363 -0.8302750310201442
Ni 4.004616965878844 5.220745984396344 5.382514409854163 -0.18209555318459605 0.03491506670963019 -1.0886598429857832
Ni 7.271632130295214 5.497618866429916 6.032926235196774 0.551916604146056 1.5960966195519093 0.6048710448559002
Ni 0.7531668275273562 5.912852772964911 12.98873756680463 0.10984549746993338 -0.7110069546847303 0.42148582632560305
Ni 0.4168336793671729 8.336287077702213 13.639673536929028 -1.2818913581825406 -1.323570997309514 0.7456633684163352
Ni 2.716493456381077 8.873573187290958 9.064670152867762 2.6018291296148415 -0.09509739262648138 -0.3049798861163586
Ni 4.327484495220615 3.8040373162013386 12.180564761089403 -0.8790141480970602 0.21632850622553712 0.3817088035379813
Ni 8.747929272692952 5.467386270832993 8.706267304192469 -0.3838921843425453 1.0312435098498431 0.3938482671139927
Ni 2.708480451623551 1.948696767579363 10.747574609933547 -1.087244193585179 0.09077845353615334 -0.5069742351074107
P 2.8195784058205438 3.523770690976343 4.071976169283491 0.06553896224307423 0.5192944472356605 -0.25025318399744
P 5.126890131024664 1.2307975307559837 11.291870684625465 -2.2602598744102234 -0.2634005200126754 1.8449976603968288
P 0.6371092947386768 4.301069860714041 6.909175643919054 0.5664312528224632 0.8463313131520587 0.668925452133648
P 7.217605624100648 1.8703955705017037 8.199375935708684 0.23843510831658934 0.06677694841523338 0.5690630340183555
P 8.225990423980974 7.4527260378153 9.631814603595934 0.05305805616724411 -1.1395188346191796 0.6244286552728536
P 8.077259628616872 4.980949746729066 12.564300017275785 0.7006099277211224 -0.07596041468671433 1.1251551096983397
P 6.22289006763022 1.069990665869069 3.5794063970675087 0.2807498099244004 -1.5990988967133428 -0.8418776482560791
P 1.300020464796587 0.46026605056584763 4.586442184029244 -0.5254632950505337 0.9809023383931301 -0.9421537568700226
Ni 6.287823687359442 6.599086500399433 11.836718242585988 -0.2495145060592025 -1.195716979077302 0.17441052583551253
Ni 5.889266257784523 2.285450362812706 13.281947551479133 -0.2846118639829679 -0.34305715260405434 -0.2926277923089089
Ni 9.462321641551862 6.411874428070364 6.710505917493167 -2.5036253301488944 -0.5780441544710432 -1.1153167834516793
Ni 8.038552102105811 -0.011131477667866617 8.899142214119003 0.09360306746914202 0.556891431652828 -0.27317971088662635
Ni 4.877666828936766 2.613333090426247 3.6767615767521225 -1.2080850137243517 0.9569537979973326 -0.9892964759940961
Ni 0.4265869202167451 4.517562395133551 10.908038329675552 -0.7178242347168798 -0.2503040918400335 0.7429534256843399
Ni 8.785448989087014 6.499395294151389 4.102785701222957 -0.7981637523078964 -0.009440062366977291 -0.18653713389571747
Ni 5.642541127768089 7.393382667287505 6.370701724213312 0.41801432283723494 -1.1127935028091933 0.8228111185429313
Ni 0.14308115565682517 2.2555100062128206 3.2404167021535955 1.1060394719148114 -0.6255105754831227 -0.3615277006044161
Ni 3.9112513198570356 0.06615913810390237 4.0999575818967715 0.153081168230117 -0.07903648250887679 0.6434800154773499
Ni 2.4843614220877615 4.26325790532294 9.653477054928072 0.6469417487737051 -0.6157846064446105 -1.4773455920622298
Ni 7.152841691530997 4.806435930174571 10.673620232260236 0.8465853381443936 -0.7751338670716263 0.5416910697633057
Ni 0.6427485646750909 4.340852072569053 1.9173508356743636 2.6179268065076524 -0.7552507549944542 2.045058025589962
Ni 0.9392693343741171 9.105215014234401 10.58939978143287 -0.6185362010478186 0.28419868770494927 2.7416750301016073
Ni 4.424064770209854 7.13719276459277 10.686934075341476 -0.5416198502057381 0.6863727010758179 -1.8912852306094587
Ni 6.37722996632459 6.353021264892441 8.893747105151082 0.6498036437025325 0.8402305995709592 0.9775668462619939
Ni 7.9886075148053735 2.5783021190392272 12.414569953083097 0.2886965755753028 2.8501827825967236 -0.697963748347527
Ni 6.9963524221487265 0.7499578547985777 6.506027233971294 -1.9905565521079716 -0.6652516028264865 -0.6021037665234081
Ni 6.804869889637119 8.415342439933521 4.318108336947867 -1.600362851027431 1.0239899136112236 -0.5122205711080146
Ni 6.813156279262842 2.9846557308899984 1.9711331809004355 -0.2916795694630267 -0.9559518390953796 0.18570332514051244
Ni 4.992978680929775 5.205068776264855 7.558676814838635 -0.8003838998876668 1.148533379412964 0.09394888084433498
Ni 2.4826739775564706 0.6008414924996722 6.599753936560411 -1.0163920466593077 -1.6343098973968369 1.1791739871169562
Ni 4.293565917435228 0.8235945404009147 0.46440735996582544 0.5944524206257374 -0.8338794605419511 -1.058633214716706
Ni 3.3010185857815424 9.300902017477606 11.623354550847683 1.053477124437063 -0.8963133014971403 -0.015024498433290253
P 8.711955594863872 3.8490892570674755 4.351195447651355 0.2060114405702452 1.527220365405486 0.3450073343518897
P 5.154351169681927 8.116711893217161 8.581110768825008 -0.31750732915940805 -0.1639348231151693 -0.05514964858895018
P 2.338750985046884 6.532578560911967 9.391214237333575 -0.42665168679725873 0.9025739376948713 -0.862985633879288
P 4.467212444063026 5.458439986697826 0.3313575435589807 0.7370735698647952 -0.9036206337918309 -0.43541349215028885
P 3.4741937591883087 7.753600225863768 5.890564364555242 0.16433617231864603 0.16276754227994547 -0.5699870884945215
P 5.98155721846238 5.45378301687404 4.277199590894592 0.11106934257470548 1.9030724530523742 0.22644502583424875
P 6.462403493364881 8.19106315030258 13.24908197678953 1.0121947207485082 2.0529466843094193 0.0021633261999059517
P -0.021855706152762503 1.7513223198048682 10.834332826502946 0.06636300080626635 0.17644889642178 -0.8469293517473736
