# total energy = -381173.99127213104 ev
CRYSTAL
PRIMVEC
9.12616144811611 0.00000000000000 0.00000000000000
0.00000000000000 9.12616144811611 0.00000000000000
0.00000000000000 0.00000000000000 13.35705976585573
PRIMCOORD
 96 1
Ni 6.122394996260726 1.2046076950720634 8.227401654822417 -0.6746392146889736 -0.7795003715704382 -0.49676412734362835
Ni 8.530040686616585 6.903366271731705 5.583611971028645 1.2660973285730777 -1.023802480190766 -0.00950382572537718
Ni 3.094982548224358 3.8939506142910565 10.536984001370875 -1.834842831351014 1.3462869508497912 -1.532704785558825
Ni 1.7398753228713488 4.375675052219606 7.484655307044225 0.06145682175390062 0.926240942294508 -0.13191224746198574
Ni 4.701214361215519 6.627208622935306 10.358333000526736 0.03975182597664122 1.354642007682706 -1.3226865378220318
Ni 8.315685403902448 4.821734450772863 7.129864825017175 0.04065865406162675 0.7387746117163019 1.3951489666578165
Ni 9.216510559136912 5.358352750482984 12.767332100641898 -0.042133181724624214 -1.469558234807327 -2.349675643270895
Ni 2.0791403788530447 2.0215269209266844 7.624356762967738 0.1957745933335854 -0.6779567090979809 0.41051441491576396
Ni 4.750285731922004 0.8497533299140948 4.052879067388537 -0.47529670149847175 -0.1783800520062218 -0.724780611430055
Ni 2.3386792874492373 1.7726564951937764 2.8241363254557017 0.5582662005131676 0.10761712236004692 0.24397043631252177
Ni 7.731401162366035 8.825326770042107 6.617514814126597 0.2328668702001925 1.4419101340727554 0.6303748455539595
Ni 8.243095914856626 4.133868275533903 1.777477846345764 0.40034107392718793 -0.3752746178768634 0.1384132818052971
Ni 8.852705254721194 2.356712582691196 6.618931194400662 -0.4959233766098878 0.21361624950069666 0.5925922274885471
Ni 5.514464870123142 3.799047660231779 1.4382611590203342 0.5463036288346527 0.6846418344276402 -1.247912687244251
Ni 1.261673583304842 3.393298517287698 0.6582362665030961 -1.4651598486293154 -0.8730972683919932 1.1142091522097972
Ni 5.9669490864144255 7.56441978430828 7.790504922475095 0.25903581528607644 1.4283511644413982 1.2130048196234722
Ni 6.418128261602672 6.255317539377698 5.864430350533581 -1.6150194245983411 -2.2955948022660917 -0.10509384171756095
Ni 0.33992122699783806 2.8468604677393445 9.070966534582881 0.5225296663435065 1.7167255807905917 -0.2281488958992329
Ni 9.200265991560654 6.077804570880052 3.344233534894305 -1.2009887689992027 1.0929990937910854 0.2265203591568744
Ni 3.344126758804056 5.452361340709411 4.492593958425494 -0.16573099578364361 0.2369526102337919 0.08834516150431236
Ni 2.5549601902524706 9.127986792007862 4.667210283244092 -0.9457653854806809 1.5652109857166463 -0.18307231527556858
Ni 4.635268717785156 3.1180991154550677 8.698090738192983 -0.7213649008802867 0.07732078536935072 -1.0330769635141563
Ni 6.7042334264991394 3.2606680113406368 3.329153465533063 -1.1463517983806129 -1.2294771062468826 0.39834229832960427
Ni 1.8228047529643054 7.177141992361023 5.720040785416853 0.5003420745028737 -0.6247770397512079 -0.07261309548103623
P 5.522860938758063 0.08116077998268778 6.323071988029192 -1.6473749581109114 1.6027830304331492 1.0413230055730325
Ni 5.568911549988289 1.232679768029688 10.73733975225244 -1.4581373945648952 1.2485626621234238 -0.5957086616303418
P 1.1718630273958743 5.1102306699979705 5.168728452979466 -0.7614239736847015 0.6435841451553819 1.1463996208994127
Ni 1.7187756373453318 1.8109954999060591 11.044498971867126 -0.46274406164444176 -0.8598239483218547 -0.6117574875630883
P 4.296532979173923 7.325953182753424 12.375890041174953 -0.2333286403279594 0.1947808619617484 0.48822472241404946
P 5.938886139618361 2.890921575749557 12.433512625262873 -0.09413142916878627 -0.9077680803013012 1.1405354488091517
P 0.7042841398848538 0.5585338640795741 5.883050457963829 0.634932640127971 0.5290301864661857 0.29202923949296156
Ni 1.3357323843617743 9.036150228232643 1.630977400060277 1.720255191210405 -1.7467843478491853 0.8519815694593006
Ni 9.33880112403684 2.1844745355750548 4.262652104383552 -1.3090100687762036 -1.4254674151356999 -1.3857330726605552
Ni 7.175106858333211 0.7578939507349756 3.072003786033199 -0.03868841770913337 -0.8959718589973213 0.06430020473996668
Ni 4.5696789946556216 5.139890695066983 11.953393479152673 0.8243517235571739 -1.1063924843788557 1.6800837611978423
Ni 3.0940243012605895 7.268814285228168 0.9362218854599018 -0.09226840781811851 0.7364847872408606 -0.7650026921748954
Ni 3.727452922795964 6.563909566357256 7.191734724694977 -0.11446114186507385 -0.014732421114168177 -0.18212666353284762
Ni 6.911360789257999 6.221696760191778 9.97986104186843 -0.6642375597396754 -1.4407960750729703 -0.9341491413979912
Ni 5.479393031249231 6.376668109636975 0.7966098659196735 -1.1447014072613835 -1.4347123307727354 0.01233306764405618
Ni 8.414740761471387 0.9349569994677279 8.825397041486116 -1.8769400176313806 -1.6959204711197824 -1.7639937697489363
Ni 2.7065001029512215 1.1786163869500494 0.3406595334680175 -0.04007167120990518 -1.4154555394256525 -0.6721002503172038
Ni 3.2837845785713466 9.034005580266113 7.349641960313928 -0.23933782263651682 -0.5932082638059912 -1.0533141164966375
Ni 0.7088061529376831 5.298804546305968 9.469367292239097 0.4341281976799621 0.7790458005315228 -0.7204066507320754
Ni 2.2048350020147365 7.138355805732316 3.1907880796618895 0.4522094806617051 0.2178950793817086 -0.1388843079044447
Ni 7.954116009068855 1.889809031135593 10.806516056874935 -0.6579126459629121 0.515770236132486 0.5592403915009788
Ni 7.239802217629895 1.981554333295216 1.2318255593077005 0.7921594550953455 1.2193510735564743 -0.35043801844915773
Ni -0.4377199121200075 6.99714670791914 10.915322718070408 1.5297652433145266 1.6357240041355443 0.8959170944999861
Ni 2.7109627959539124 5.015154318869059 13.227897532994291 0.1606013878665621 0.4121385807827483 -1.4200256752948384
Ni 4.029629258199056 1.8902562130520182 6.132987731983065 0.8815438564974496 -0.25897745124431526 -0.01037517258673697
Ni 8.190547476595897 3.1209464778616924 12.792189939498197 -0.883600224805846 1.1312290838065615 -0.07854411625349053
Ni 9.168963257410898 8.805951929050872 4.079940874261504 -0.12094057894183043 -1.2194978835469836 -0.8773760982730051
Ni 1.3264602042171234 4.095346747590426 3.3093314426254037 0.8106919666818941 -0.3852744094020526 -1.1078001633596597
Ni 8.30718894749037 8.89757859111022 1.1793711205110362 0.0344484114858568 -0.6552906349590326 -0.7062864092806094
Ni 3.7877312198977555 2.4580403544885003 11.97022303368491 1.7604816428306198 -0.7379420885126775 1.5241898061092785
Ni 6.629079486055044 7.429589873425331 12.459479292748675 0.03854315038052072 -0.11110353824675058 -1.6565702514569338
Ni 0.6896977958639917 7.537497607707176 13.221592267972698 0.011737343041586235 1.1255688001969908 -0.649522622127004
P 7.162275475180278 3.028242928738301 8.913192540922703 0.9412099048995145 0.2434716422992323 -1.3790471759999476
Ni 7.894065866006056 6.2719180272547845 0.8599143981946602 -0.21712246288174217 2.5925034813385417 2.892568703762102
P 3.319276220877004 1.585907851197719 9.472386226483044 -0.23171938685931062 0.12066289980041153 0.3760865722551974
Ni 6.710621739590927 8.521106174449644 10.131035908104792 0.6528007786576435 0.08501224047633746 -0.23677906077040511
P 3.5028672129734066 5.396399718025356 9.039564325272124 0.024478701867654613 -1.046690440532533 -1.2228385178844423
P 8.391970988379946 6.890087706662348 8.428892700202008 -0.6862991675254052 -1.1175680413797011 0.1791315854602657
P 0.04309373488488415 9.31863230698991 11.185028170644104 0.03794999688121206 -1.6933617092536708 0.7515344824851314
Ni 2.534544966843431 8.491391392411273 11.40607475501381 0.19698069782654465 0.3485593133692062 0.8330268827336685
Ni 6.729950949774363 5.622381730566547 3.162951461672505 0.1483441677657639 -0.21372140761999325 0.6070698522794319
Ni 4.046101979814307 4.302939544588829 6.4849591427043265 -0.8343201476237955 -0.6296567364410124 1.4919697697333079
Ni 1.8121180177779015 6.282723402541464 11.54079332672573 1.0548696339092154 -0.23753573643077155 -1.5533579430328022
Ni 3.9415435468248705 8.679718862357158 9.483124980790338 1.1332222029771903 0.6068937317128839 0.33838571527031397
Ni 4.151016333104571 3.3015532151280746 3.446963085107178 -0.031025501847236892 -0.1886490380323977 0.23120079535167923
Ni 4.747903803754924 9.457167439466094 12.870929548819099 -2.4413987201085052 -1.1267257966195692 -1.3387543899181717
Ni 6.863521450362073 0.689212284069016 12.68284939785148 2.400391424458208 0.8548182675771472 -0.8844965113678702
Ni 0.6358643940556574 8.245267941307834 7.542024183840785 0.5593252379053012 -0.8687649595652264 -1.476791776441289
Ni 4.328939978872403 7.731090872873006 5.145259615912552 -1.499048273846644 -0.7961099551026612 1.025154109122654
Ni 0.33269239442640297 1.4642196129607332 13.132140370213028 0.9305886777402425 -3.531251040740493 -0.5091725283103102
Ni 1.9370551695301388 3.0278778822759134 5.449680074443173 1.298203722189319 0.4668925365951765 0.012124551177675892
Ni 5.709709970531277 5.3460780631851925 8.079685603817179 -0.47768911299004824 -1.5794286719779251 0.6117474602607593
Ni 6.858255655142128 4.878353157089217 12.899446978460835 -1.7998352049275774 0.10963235301786281 -1.519706573526944
Ni 6.735709557718531 1.5917577207574838 5.048340692764737 0.7405309322857763 0.7093169685768171 2.3548517881551962
Ni 3.566923740960913 5.19427349180121 2.0115867057558634 -0.4494563433966001 -0.28168594858542456 0.8781890810926036
Ni 4.809204230951401 6.895782431475598 2.9875201706266257 -0.6197649312485972 1.7816955579040736 0.3041579044356955
Ni 5.0507189704671935 1.3177264676044942 1.6348642322685516 -1.1600534642374216 3.0043630974282904 0.7961078982201322
Ni 8.276990478889337 4.309026694349146 10.731916987053669 0.012505588666178463 0.04750884421424076 0.26670567312650845
Ni 6.072511397175428 8.593093336832524 1.1718922311128654 -0.29144559907534967 -1.5173794680556643 0.6851509128535749
Ni 1.2001084974231333 0.04915624400899015 9.358263576179047 2.9076029723874055 1.2853116967179994 2.073982421933796
Ni 2.2091608025940324 7.1218100748245865 9.042809588322752 -0.20282121576772166 -0.4385741492664576 0.03304870292485276
Ni 6.296622546596882 3.371286215605711 6.568774723084729 0.6493483013326689 0.1075019369384213 0.689625917905793
Ni 6.46502760585795 8.235393434500244 4.790563133349566 2.2301221744845785 -0.4550068409011841 -3.1787890498827704
Ni 8.15500107732088 4.190103683064749 4.839049517100074 0.5192756781825831 0.7296417961770982 0.4322857451545845
P 3.7923216791622827 8.948767231298554 2.2713683702495437 -1.6618258434289184 -0.9023754485308201 0.9176277467042003
Ni 5.955322356587373 3.807498485836057 10.495683557232471 -0.2182568335965015 0.823750085417433 0.2859992312487978
P 1.1272908543383195 3.634274813271469 11.880062945788206 0.07146406947825756 0.9897263644426632 -0.6533196272755909
Ni 3.3826482867475325 3.146344585482326 0.9219604327905649 2.1397766947207857 0.09419647807876681 1.315177116818864
P 0.2447298862332738 1.6540620257255279 2.069235755712307 -0.7708313830415305 1.0950870866683657 0.43890067936794086
P 5.341651874828741 4.439485173844999 4.9008117280714725 1.6374528139011928 0.29220253184603223 -1.5693998269870133
P 7.36000289153265 7.632145029242782 2.6410116802149997 0.32107859145043416 -0.3209436085344666 1.074709551453278
Ni 1.08075655654543 5.569815039982698 1.3153755683867165 0.8986440065128459 2.065980634675242 2.595999410306942
