# total energy = -381165.6052722052 ev
CRYSTAL
PRIMVEC
9.25344973755322 0.00000000000000 0.00000000000000
0.00000000000000 9.25344973755322 0.00000000000000
0.00000000000000 0.00000000000000 13.54335904394071
PRIMCOORD
 96 1
Ni 7.25262265257312 1.3528636208463432 11.114614719696926 -0.48304729197816804 -0.1329579151176807 0.8286665488824438
Ni 4.987396637320535 0.31558798163215335 1.0758976881788924 -0.27370575859342544 0.6598818538741409 -0.7336835703466396
Ni 1.466172114203184 5.296998562247704 8.809156555206538 -0.28673559519419006 1.0468336509786162 -0.8933660459433581
Ni 7.39509801984264 2.5633999296206924 7.797873856608058 0.286277681721165 1.6027298085977106 0.33543357462052553
Ni 4.162497850852951 1.7679918878103769 3.20831356452547 0.5330292803232498 -1.2207718651634007 -0.5016422813715361
Ni 8.86153848409134 7.804174530607787 2.760854669146617 0.06615319878830542 -1.9195241708504942 -0.43972368948986856
Ni 2.5361577732758547 5.845422774234627 12.14795949341679 -0.21866075390313952 -0.06430277584312796 -1.3909722095723078
Ni 7.479359934134792 0.3864740341727886 0.15016220805608857 0.18457178263923052 0.022085004824497448 0.45764196453118605
Ni 8.39202769238593 3.4105532629664475 2.9706137209319614 0.8994307640801993 0.08959934562638762 0.4830313511385681
Ni 5.3898106641969985 7.151815569957406 12.06817624884981 -0.12032274285217343 0.5929670943294627 0.40993951624890046
Ni 0.8159756847816714 4.567364041938443 10.91663808559972 1.4418345436398137 -1.860175396578532 0.09132429873729433
Ni 7.5196402013117885 8.427921824336211 10.780567956313181 -0.3842377406074221 -1.6171480409055696 -0.02186646105578815
Ni 1.1637045991068138 4.006567967508229 13.113276605253263 2.7577835056276956 0.25121426235912864 -0.5917540478579679
Ni 4.933661854068337 2.2507073524451626 8.042588740529359 0.20036761202090655 -0.050356340965364885 0.38151828479373007
Ni 0.8744556371145878 2.2856576325112132 5.869055159794777 -0.06788817920154114 0.3748588704956834 0.39617948635033057
Ni 5.165284957148375 6.030954443634762 1.019334125308957 -0.10104538267980018 0.40593450885456545 0.15384581431028344
Ni 5.624348603978336 4.49668619201933 8.376919584823357 0.3747195167043417 0.2655759303974394 -1.7648702588166183
Ni 8.932762287551332 4.791824974838148 7.24435654582623 1.2498739247356798 -0.6024518938914463 -0.23700840317239183
Ni 1.2045770870739159 7.404730861131694 7.216186268461899 0.578069865502656 -1.1275976577015612 -0.5696227631765673
Ni 8.491317209227 7.654611020756694 8.596769523665102 -1.060539173490167 -1.7234767834714961 0.10054633155619458
Ni 3.3939988411930386 6.146779875349551 9.926171947773435 0.33866159463952 -0.45618132082525953 0.7389119086251146
Ni 3.0821113141540586 8.191894079129765 11.06688820142934 -0.753636873540115 0.5712068198342356 -1.4885576587279654
Ni 0.45434253671884106 1.4479058042083777 12.564404526293822 -0.3407521586199615 -0.5091108218344393 -0.7460536618762184
Ni 6.550211781709007 7.923516273263823 1.7178807555176339 0.8588983511837918 -1.9101010777643812 -1.2373858195709981
P 7.155618737843862 2.1254434018880737 1.792002739469203 -0.39089998311894614 -0.822972326711144 -0.17585111493678102
Ni 3.908573933645514 3.967333340163761 12.891964621335946 -1.1929265608163586 0.9575968308979702 1.5636937777411715
P 1.9070897458863285 3.4536928461456706 7.450729760313145 -1.0095290009908873 0.2830535183569125 -0.670254969578349
Ni 8.46355685969082 3.891519825580454 0.6212636677899215 -2.239988525755697 0.42736671058641235 0.4354080928336501
P 5.507292463434112 3.2086800011393475 6.015689027424817 0.14647806109130257 0.6743106277049613 0.3211914628792146
P 1.3837979036794932 6.034082109682505 3.7623046519393823 -0.21284080478725279 1.2071966975821273 0.20029793512523567
P 0.9991690074058759 9.12648326006464 11.403224268304834 0.9787847778294948 -1.9746861607346187 -1.0688595204304046
Ni 7.040080163074282 5.686096874796646 6.488122058591402 -0.6587873352583815 -1.3468104274534287 0.6047435181391005
Ni 1.1962119684136803 8.524712909719025 9.172943906393376 -0.14774252962602297 2.059832355685659 1.5581491937738585
Ni 7.881690679962646 3.5989627552685 5.351144198673038 -0.12226315440799587 0.39382049919985074 0.7456034617126771
Ni 5.13490588130595 8.780394982397087 5.20574196521742 -0.09526862809702302 -0.09097719981052073 -2.6625105066552983
Ni 0.1100133398668962 0.7765328548156826 2.7300971272055143 -1.2618436955030463 0.19243498743739115 -0.52407618489502
Ni 3.64413809741371 6.026956953301553 3.5726838830525676 -0.30987295254260183 1.6622652449591824 1.0233013721846314
Ni 3.6225960661736347 6.7771341322675855 7.687670821019331 -0.042160949638766106 0.3149693932289027 0.09907051834161648
Ni 0.35133683441986124 1.8040988491071013 10.278515557536474 1.0485951137544136 -0.6332753070302062 0.11355637066261734
Ni 2.980480674502104 8.006112566583804 13.22053981982611 0.11281897827596053 -0.14165749977420763 2.3751277647954128
Ni 8.275526758832429 5.7573206782566375 9.970986405374674 0.5777183957005082 -0.6726620363579449 0.961965649389627
Ni 5.107700738760493 3.7248651938649213 1.4601231340392504 -0.24784997387258603 -1.2280529722058462 0.6830760326024171
Ni 8.669612680848038 5.508190048069114 12.451696581831948 -1.12270047751026 -0.20468166601522814 -1.147259912017179
Ni 3.3802759750723204 3.976522015860237 8.842607776397635 0.4338050100125884 -0.25990099149984913 0.8961963163033017
Ni 8.972866739181267 3.6710841433634953 9.19996305459694 0.34719662869372464 -0.587903049542994 -1.2136427103177874
Ni 7.518141142436835 5.488609748196262 1.8803324703133895 -0.4395681377486107 0.7665569240358927 0.25297881045871917
Ni 6.32499206592198 2.520204825742397 3.9139224276561513 -0.4758456320234063 0.5824242858166099 0.2533410788941443
Ni 9.261037674266506 6.350439052996811 5.555715766475054 -0.5847166813952124 0.28189549349306936 -1.317074590951893
Ni 2.528616211651859 0.3408924655793658 1.6800804128992022 -0.4980208825688649 1.5666371766402116 -0.8994765297164703
Ni 2.5939825813597173 4.427257557829344 2.2831397688082817 -0.5049294367632401 -0.5718321121230603 -0.8840807639866904
Ni 8.88341363952585 7.851607714515272 12.575997248260132 -0.6171840578952984 0.02947769774414278 0.044376983453478416
Ni 2.6557586125275625 2.595000460842711 11.096562164393546 -1.0646387974808373 1.1628634228823909 -0.8981488120439822
Ni 0.698064525471732 8.59623282357407 0.8173562994986041 -0.48408524632437927 1.0147501401805106 -0.16813651990134268
Ni 6.5957480083981865 1.0520894870716802 6.438215427540243 -0.596550697915663 -0.17867238643566002 -1.678945790938657
Ni 8.596723256415876 9.008779378031239 6.829915810185709 0.6650394868156804 1.1716925911382465 -0.9062123057784071
Ni 4.607736843613894 5.547517209912036 5.920276706068966 0.9018779400691114 -0.7274815553009858 -0.18112264774836548
P 7.183508635677878 6.590020122943889 13.53852444496822 -0.6897459884234249 0.777472542507132 -0.07839396382887144
Ni 5.433523961266635 4.775474128961338 3.532663637816226 0.5929640090056691 -0.851960743523694 -0.35566661383794873
P 5.494615237145922 0.35318012162906354 12.40816835375922 0.6364866148786522 -0.5862382602460614 -0.5449003207292228
Ni 5.67090271015051 5.0335435916995115 10.668145018106545 -1.1955642555495216 2.2780848184067866 0.32715050867612694
P 3.1685940564091037 8.79671806792436 8.645051248923412 1.0072029239608717 -0.37254744875368745 0.4402674778084804
P 8.444809370304053 0.9661804587070488 8.756350818318817 -0.22297352234588047 -0.6908834444619779 -0.3614801351959323
P 5.729643609769067 7.2569440136509185 3.613611891718742 -0.4728446404135534 -0.4369630960255958 0.21139610192092625
Ni 4.306546304596188 0.9047468051834828 10.468556433046272 0.546628102053607 -0.1341658193828528 -0.9910656520793771
Ni 1.7983709636528027 0.44700084961150605 6.858045372370721 0.4917553612751273 -1.3595286463510456 -0.7371537882834271
Ni 1.8053203044866932 2.158339416088447 3.3704275284018688 -0.4882406632536494 1.0184365878931623 -0.6607614282656169
Ni 6.614449230535727 9.045811684312502 8.635381393834974 1.4383962073822258 2.313806954398744 -0.6066299365285359
Ni 6.947157019726842 3.331991473779058 10.134481909312992 0.8124624283187555 0.09099519753264973 -0.45041382221386295
Ni 0.9001173042258326 6.843944040151325 10.808887214220023 0.22713896657747978 1.0305236009646832 -0.25435717886348447
Ni 2.4317973659195093 1.6657505204686265 8.734125882480152 0.47217692492256746 0.6024380099343755 0.7280014323601978
Ni 6.471631485621926 7.744415751506237 6.708594754607742 -0.0943322323256827 0.29330142133716586 0.6781842517277545
Ni 5.0791630994373005 7.979943810421032 9.62208230291917 -1.0579737267558358 -2.1090730949893417 0.8538595032083036
Ni 3.6433978214260785 3.4991920590354697 4.551936690356204 -0.18599411690805387 2.744611487022112 -0.4436893590058359
Ni 2.22711105533941 5.43397738030906 5.898661572575113 0.6509267015633822 0.1062122715927203 1.905742029464737
Ni 3.6591101792635565 1.8449343232748219 5.962003287456799 -0.24956078591610573 -1.3899689651187739 0.8650108918394328
Ni 3.8104225911354273 8.532670876586064 3.0692369893841627 1.6847788526806662 -0.8913508152855424 1.4618724361272952
Ni 6.408347142129283 4.491569034254827 12.934747946696122 -0.20889416143467895 3.3113767261452263 -0.8354354921751612
Ni 7.285648215071329 5.722703522385022 4.211347737931766 1.1011039822864068 1.1228719700911178 -0.11410401563597122
Ni 5.050569939415035 2.9260518825115005 11.396601574250486 0.410106637954384 -0.8101404650537983 -1.739971952913042
Ni 7.548705287276169 8.330436730214993 4.618109035545595 0.1701193546593264 -1.0672690360148327 1.1414116807665182
Ni 1.196628373656723 4.085721977485723 4.493428977673751 -1.4966800307247838 -0.4449036910289112 -0.9626824729509935
Ni 8.246433912518514 1.3382894373398488 4.775199301500931 0.42800331572914674 -0.29017341723114537 -0.47686096066179817
Ni 3.641547131457 1.4433808672339805 12.71587332146808 -0.5112898317636291 -0.47844707420199545 2.219272376254268
Ni 0.6077101398013738 2.3281864880006404 0.8674128364372591 2.1342395669526404 -1.8186453956555455 4.617886397097079
Ni 4.6765640035639295 0.05169624825125865 7.24793207884649 -1.693282005055671 -0.8028321043178432 1.8454249777422347
Ni 2.0754655192731044 7.224908570286167 2.0962136045164455 0.5813271960976891 -0.16184785867915352 0.38670368564941143
Ni 6.318051978537935 0.3012580892015774 3.1271348997218036 0.1482472371765834 1.886926696530447 0.3545384137707765
Ni 0.6702505059264489 6.1435966886027344 0.7065647444997104 -0.15905409798410025 -0.3221903364573741 0.18663792113963987
P 6.580960995545248 6.311121144603735 9.067102947061768 -1.7136199452820746 1.6548848933347111 -1.260627820818074
Ni 0.8088098132213989 8.552676835151804 4.709526642603189 -0.13067220440729754 0.26680311793632117 0.4908709017876449
P 8.287824593676957 3.122761719324871 12.124597308592126 -0.06696746715948468 0.41308654651831433 -0.8617540754650321
Ni 6.229524223867057 2.4511925967954533 13.303289720413522 0.01869423397539361 -3.4146887933720165 1.0715432379101546
P 3.108335591015903 5.868852509243163 0.5392947583694587 -0.6067872880420065 0.127080116180665 1.4316966838748633
P 3.1140542230203563 2.39240542992767 1.38861432432402 0.0638147804631159 0.6413794241945793 -1.162533550346798
P 2.5424316122710313 0.5618565197824965 4.4743872285819 0.9484943543760698 -0.971584917646946 1.1043561706751173
Ni 3.0138948818938194 7.646107100348778 5.555837912013014 0.10820950452840719 0.7288007883330416 -0.9203014368816215
