# total energy = -381164.2964049134 ev
CRYSTAL
PRIMVEC
9.30128213948191 0.00000000000000 0.00000000000000
0.00000000000000 9.30128213948191 0.00000000000000
0.00000000000000 0.00000000000000 13.61336659914278
PRIMCOORD
 96 1
Ni 8.903177994958813 6.817281756066516 3.953634624923737 2.110956942275616 1.7041670273992906 0.9700383990954328
Ni 1.5398551676291101 1.7404745228240766 0.9135812363394129 -0.41261834863264424 2.0622247671772356 -1.1261889502794926
Ni 5.059404534296276 7.397430629059035 4.931605847363952 -0.8889697166478755 1.5615584765657236 -0.10306035622729992
Ni 7.929966238606654 0.9518932176110558 0.4689613458934124 0.5808903656705867 0.44952010675500004 -0.08837318652877038
Ni 8.61516379246393 5.986509834915605 1.583466089354857 0.8662992716335531 0.35468265265812465 0.08251672774799336
Ni 8.24943737741149 6.977663764579976 7.9042202895510805 0.05955986184150387 0.054050244877184336 -1.7802457128314244
Ni 4.984333885875925 1.3508717164328874 7.437840049460747 0.5792068073205766 0.36380518378468313 -1.3106990264428524
Ni 0.598304045666498 4.140344842756816 1.3675442647284495 -0.32859109777739537 -0.7672135837832851 -0.26464261994989263
Ni 5.319421877449659 1.3005238760290507 12.51715025773601 2.0115385536762775 0.4029659131445447 -1.3535433753018882
Ni -0.1541743327910281 6.349557480702146 10.112294450558405 2.0934220187156467 -2.266481429839903 0.36070571892375297
Ni 2.5412963153771027 7.410191988200742 4.213119004608591 0.7789097891742908 -0.36075585543539807 -0.178454356887583
Ni 1.93780122412971 2.6093630983209923 8.807113422545203 -1.2146456976610047 1.7664000651975837 -0.5349725200925496
Ni 7.028513874221169 8.091789945856968 3.892456371557361 -3.200818004658352 -1.6384758558490684 -0.6675229153591666
Ni 0.8424952572020838 0.6902062943075747 8.223004063603314 -0.04264688813624913 -2.4236107999974648 0.8225357533943577
Ni 8.227049191220463 4.914006891363933 5.946182265797017 -0.605974305222408 0.584616151261606 -0.7539595469868564
Ni 6.843604384616832 2.449883314178339 9.155724548270635 0.47111377376537567 0.4001886075097237 -1.1111371981526927
Ni 0.7400890706027486 8.97097504071968 0.5867909185924411 -0.26084072970529915 -1.2051752962767246 -1.4116099404273175
Ni 2.0014033916304372 0.8926673033728459 10.505108059555802 -0.8522199107223517 -0.3802214203591774 -0.8298322870557708
Ni 5.59146577845306 4.097819380660687 10.436850600327361 -0.2417122364059644 0.21153391305037117 -1.0522424806990136
Ni 7.236369626946928 2.6336115409466716 11.604768886796945 -1.1588869547331462 -0.8945999183504594 -0.34029167404377525
Ni 5.59752091314785 7.040466021813803 11.603489030369905 -1.582138100489288 -2.3206442890355516 0.38843943739359554
Ni 3.656371227435768 2.30955487003042 11.42030771899336 0.18027341237419278 1.3755296497649925 -0.10176683422685699
Ni 8.114512978206234 8.17731523544006 13.032102723463305 -1.0342786971317413 -1.1275588340438258 -2.180790418128986
Ni 7.556556964479104 9.100876747551379 8.556776853877748 0.9426525508833119 0.6308271026000297 -1.9718425206382364
P 3.932377474644977 9.075884202351839 3.0161500235272727 0.9415503189580686 -0.91654325539077 0.21785625572397319
Ni 7.028867322943752 5.699555978588472 3.688106272082701 -0.6345364331308169 0.3387166162471715 2.70232275355623
P 6.582824336325242 6.643301273015755 1.6218422494734956 -1.2051377581705698 0.24703056329508424 -0.6086873332781969
Ni 5.747578498448995 0.5366560775503721 9.588547622536295 -0.4675263135244335 -0.37329332578077645 0.6835971952132097
P 0.22275640676731656 8.08122368930815 6.418784133533042 -0.1086242234683226 1.0076832060314 -0.4282509129635786
P 2.991589987948789 5.209703952933927 3.988498620893754 0.36129398732705514 -1.1219427734086291 1.1917356258320508
P 7.856690737645741 4.604646246281427 10.98565973316531 -1.167454898907815 1.7993330684801787 0.30166239170735143
Ni 0.05347493147048546 5.766162460231161 12.570719132156444 0.8960045120074699 0.6688647740990417 0.21586467921524113
Ni 4.26026627381661 1.7405954394923286 0.7776188140436207 -1.1589301492662556 0.4470379637630946 1.302014354184661
Ni 1.3968200503687738 0.9891076475862546 6.07157471103112 0.8656996903763414 1.0587851669135377 -1.3659000970950284
Ni 4.7677535304716505 2.8913779738141256 5.381050312873221 -1.1486760756384153 -0.13407351677936263 1.838023028851209
Ni 7.361006808068563 7.447648251512446 10.083896705955235 -1.626405554948096 1.8897965618790746 0.8788573108042219
Ni 8.42856146950406 1.1153446492416899 6.590543470400828 0.9075441372159531 -2.5287419227108647 -0.010475959830659378
Ni 4.855511127776324 4.743793427593342 12.42658088283036 -0.9629354695020643 -0.13152426799494768 0.346829475162293
Ni 4.802726351443094 2.542049719233136 3.091404837334655 0.8398032822255537 -0.5870723261115824 -0.45262008583656244
Ni 6.376986961831079 9.233382813391588 6.243484728670113 -0.21977789822671828 -1.9867014400279397 0.6298272005806057
Ni 8.763323916201731 3.42852701931968 12.989506571622659 0.41008529779814534 0.3334152586389161 2.619308260236212
Ni 7.934356443792431 8.305486903787532 1.5398486567315888 -0.3366651330347815 -0.24217040698930553 3.397055396560969
Ni 7.48382093788424 2.335784485759003 2.5972946847011924 1.2545294212298201 -0.9158829960989517 0.9190701355776818
Ni 0.8589538760076609 3.471843090400535 6.333932256779294 0.5198418350986983 0.5608046506643052 1.9464521055895896
Ni 2.2622578501794117 1.0584673087522272 2.9231027870506683 0.4172481340951717 -0.3140949610437494 1.1235772236882584
Ni 6.941156232049944 5.493383757936073 8.900105781456988 -2.7565136377763366 0.10643492912648767 1.4226052630965562
Ni 2.4215516086786004 4.681046978052554 0.001003608346494361 0.6673655638456958 -0.02172916414697548 -0.551273057024786
Ni 5.038718482742954 7.010664713730689 9.204596275193577 0.9049141557922739 -0.423205123009555 -0.24158548102011296
Ni 8.432849360585934 0.8263872967344384 10.463832689783759 -1.1610785630678262 -0.8728427291790258 0.15817658047515337
Ni 4.275027408625568 6.465144514269203 0.5103669336158804 1.0497734503332308 -1.5368514607373467 -0.2384875588210796
Ni 3.0578058157402013 8.32863779511677 0.9600578831027402 0.16965501342839814 1.3272484461611014 1.4043820552203106
Ni 6.390111070977545 1.5273821482347731 4.6759870805503025 0.8162807736235813 -1.4771311620585788 -1.301810722814287
Ni 4.106181233334445 2.5267119049294364 9.15434888863721 1.0493003673515542 0.35167703306258147 0.8120027150735177
Ni 3.1527626054469753 7.489197078980382 12.271415033359663 -0.5256594702217399 -0.6843842098908793 0.1065503716584294
Ni 2.564298386191566 0.5988193366988964 12.74103584015916 1.2676693010458877 -0.5851278007907019 0.29219790386034195
Ni 8.376418481640787 0.2704440804696019 4.027705385510464 2.7509171175251654 1.4911426458463224 -0.08558071138529778
P 9.032633240246195 2.20689661868419 9.083151294113803 -0.13469392397218094 1.5415254691742484 -0.9944847050632549
Ni 5.8546827626740425 0.3755401978734428 2.072798173335918 0.2467688249932653 0.2311390888758084 0.6515257685999618
P 4.63004804789659 7.938300187433891 7.31395813245158 0.2883186234105938 0.40575915961896575 -1.598073283662306
Ni 7.075141201755701 5.552902662562739 13.196171760230245 -0.5084227946284792 -0.2829650724081643 0.05662623313447668
P 3.0971037329222093 2.6077725790693655 6.929285005612217 -0.023925143357029763 -0.4824731646422529 -0.6075588761007086
P 1.8452534665058093 2.819013998506191 12.41989605133244 -0.3200010421155392 0.1104849308261452 0.9185823973079857
P 0.6706308158457394 2.567079469561369 2.7683871196371563 -0.36732990910848995 0.23843048033089909 0.004491717222766457
Ni 4.007001661521013 0.17227276764375032 5.234693707748814 0.6953018852446478 2.061487889011211 -0.9661457489092456
Ni 2.4446187884682757 8.331456083615265 6.29547424537753 -0.2443303907551018 -2.007078975243027 2.1045872913038464
Ni 1.3825797873615182 5.146622657234902 8.253621094133022 1.402775887075455 -1.6619402575195958 3.181747875400778
Ni 0.3358906922252856 8.408861353861104 11.400322984115903 1.657618233105474 -1.8122430916736274 -0.9704502898218705
Ni 6.589967721034304 4.36100846103515 2.0844647715658335 -1.418909559412524 -0.5423515861654402 -1.898024349105505
Ni 6.24114173569067 6.467228001476013 6.562608929649887 0.6716783322884368 -0.39393902705558603 1.6293702940033743
Ni 3.6046188934237695 5.899970705575628 7.310337143301532 -0.01655096238014569 0.2946903312648925 0.14146775236090475
Ni 4.754052741830443 6.355147551288273 2.843750758445966 -0.4879442150591532 0.05138375378861474 -0.03670429739956904
Ni 5.399301288753583 3.9115333012947096 7.747502986213884 -0.22982988314608158 0.9262142028216307 -0.5016988456410844
Ni 2.454013083463265 2.8530845951068287 4.715507298376252 0.2325017735512899 0.6231999250720751 -0.7373157677825882
Ni 8.488926790808495 4.269046684188164 8.318883540501675 2.236057309022091 -2.2845979369349556 -0.6249271921758269
Ni 9.149262017416657 2.371445601611268 4.673373420259618 -1.1483570017360998 0.3297982307116191 -0.3784807835189869
Ni 6.678376408091106 2.7054360418885572 0.40902016305607913 -1.7927818976252223 1.3986767773054172 -0.7895400151946274
Ni 4.844740243019693 5.193008151432931 5.109968164446532 -0.018216008787394437 -0.8845312212605477 -0.1399032360872623
Ni 0.3033743398757987 1.1246459314149462 12.37484994176736 -0.2321636734855808 1.8053977866170199 0.911642989875675
Ni 2.0895051363755215 5.173503362715612 11.077468968984654 0.8315788374332324 0.2676179005281326 -0.31787962489716215
Ni 5.361724108773628 8.606234561577605 13.492520841680582 -0.01747810218010538 -1.1137715504517465 1.3277122731713973
Ni 1.0057569426763835 6.008246931354504 6.399943456362894 -0.06960927565770593 0.9867976208316426 -3.2490184756229783
Ni 0.3747291260679349 4.67435005488781 3.856258571723699 0.6568042433900818 -1.052131666152762 0.4367633213099639
Ni 2.974112878745241 7.477291437798614 9.909156308150921 -1.8149108683137773 -0.9877085626816859 0.46640711231832577
Ni 3.407078262628151 9.277070935759372 8.475273438706372 -0.5073701849942488 0.41031489731044823 0.4596163146487375
Ni 1.0801858026267808 7.437872603948353 8.399583324893282 1.5940507927664742 1.3700064059539179 0.48768119120575365
Ni 1.1055783029597706 8.187369921469351 2.584034776834998 -0.809746057828857 -0.12783756317197986 0.7532576358238253
Ni 3.02658141148458 3.683847214975567 2.2565784872844215 -0.8397767998629926 0.12935914202282883 -0.41776826826469987
Ni 4.176443118871224 9.182337376824757 10.99456292046155 -0.49357184565857587 -0.3713912236620572 0.4033898880558408
P 3.453017295281864 4.836741140350693 9.325319476776706 0.22908837699436677 0.009856581079105607 -0.08990659245416129
Ni 1.906995377571885 5.889953224675031 2.388070713367746 -0.4173072694678813 1.3683105063087337 -1.869439595489277
P 6.517501431622464 8.81733646178183 11.668669625455436 0.8278893043967872 2.4960981685339143 -0.7006135272655483
Ni 7.246907979649227 2.831059158920558 6.4721344278224056 -1.3721651041681338 1.6075100035951735 1.4362274818656813
P 6.742648267908307 3.6317786373696777 4.565582721410185 0.11466194502197027 1.2785237272618883 -1.2327475494680382
P 4.7718367933457095 3.9862318984281315 0.7843045756697573 -0.3169553133106799 -0.3818252745111876 0.7756066929429869
P 1.6458618805577128 6.808110691843685 0.1931234518915391 -0.4051922313719022 -0.1185139717782088 -0.13903368899811538
Ni 0.35142848409571037 3.4313639103825233 10.954050255827715 0.8624076498886308 -0.749273968585729 -2.575345738612332
