# total energy = -340857.23028118943 ev
CRYSTAL
PRIMVEC
9.40553692803020 0.00000000000000 0.00000000000000
0.00000000000000 9.40553692803020 0.00000000000000
0.00000000000000 0.00000000000000 13.76595402040997
PRIMCOORD
 96 1
Ni 1.2854453311423606 0.29983535061612254 11.484535912266388 0.6614800515991963 -0.8011215493846396 -0.3902124701336183
Ni 0.9078421792583251 3.5502327929790787 4.5705303938234065 -1.463831102515563 2.201254599520609 2.896276748741309
Ni 8.990028556208683 0.3995255774364768 8.273710385566202 -1.6311050173062942 -1.1430479308183605 -1.943995159408665
Ni 3.108323044328012 1.2722117406359743 12.772492521777764 1.0232381230468635 2.9139831648821364 -1.76359370609704
Ni 9.267040430831347 3.366514439488501 1.244171013289358 -0.8547215940982829 0.8028835263810689 -1.9461541147331967
Ni 9.218470237956451 7.953265622357617 2.336646704784722 0.22621234099815235 0.07865955878543227 -0.09968218378368639
Ni 7.777372675619928 2.3625109908781914 4.4841085579962 -1.7359540900029005 -0.7915832708769013 1.7956072828891594
Ni 5.724651855679081 2.7623873948433735 6.934874523855609 1.7157791577169224 2.1006306206489436 -1.059857316931794
Ni 2.823993661948441 2.0687478549251272 5.273475772012455 0.9244488833910919 -0.5063797960565214 3.297743451632508
Ni 5.527257851444874 7.906275559692439 6.211804118227674 0.7951087675316565 1.4186629906193569 -1.0139129889911958
Ni 7.938498929326326 4.8919232351578215 7.8680966040538305 0.8714977851153571 0.5514370934064761 1.8501552933383685
Ni 8.65410980358922 1.5299610755592215 2.6172928788897365 0.10147578534899945 -0.8533316557292917 -0.5297912330019263
Ni 0.30169200361254095 1.8171403356384617 6.057528857644837 -0.8756765990833951 -0.9993626019808465 1.6564488953877212
Ni 5.80286830106011 0.027656981438542106 8.133379774084124 0.054056158414455296 -0.2454943291562159 -0.6537883393818934
Ni 5.477822349169419 0.3666692151650063 3.9433541402977172 1.498888608340328 0.15333442189150367 -2.1613364231694323
Ni 4.173086261716755 6.215056552909343 6.640586558940032 -0.3857058405125164 -0.6332688792723029 0.6724018407180226
Ni 1.2908441093588963 6.985755657162218 5.186736029035913 -1.1796460416573684 0.7280469408861526 1.0660369633799447
Ni 7.242818387887195 6.652950137277377 10.595228284146572 0.12989341725974404 0.6870887533062361 -0.6904674399704819
Ni 7.971540580675961 4.365128515419238 10.445840140569507 2.5048430046060797 1.5710574171950942 0.06688236364484611
Ni 4.852880851226045 4.679762537892325 8.738930817025391 0.6297086727248704 0.34149957830894734 -0.5323255693880058
Ni 3.531280635999428 9.392745432336572 10.453920437374082 -0.5181490207773076 -1.1263786976927956 0.7685017064670894
Ni 0.11871010366613552 6.815233272030176 11.831080099992505 -1.1534552421946136 -0.17937018383363304 -0.1701476367941005
Ni 6.588409342639977 7.7487516266427185 4.056799024372186 -0.45249127356818203 -1.5818861323794822 -1.8468426840253676
Ni 6.31088016348437 5.446718238434082 6.4330778402562405 0.8056302358882705 -0.2214923098146637 -0.9734811062283946
P 8.313215521916538 7.336102503482318 8.083203115496016 -0.6209671790868145 -0.15870417084384927 0.5347557760960533
P 6.450580603989953 5.936690280964064 0.5503696981353547 -1.5433928614002903 0.9293836016885478 0.772601844678392
P 7.447595738637046 0.5485327967665579 6.311951454144411 0.09177707000399678 -0.25419545647463965 0.4738813092081839
P 3.7571263895455167 8.104102218626926 8.711839108358301 -0.35172331291948455 -0.7405905818791181 -1.8329785244487657
P 8.81246142389165 6.48085702747258 4.001446498793555 1.0028238210565696 1.286507002577681 1.233798873550688
P 5.331246461144172 2.5449690024157796 4.4687314456160365 -0.4706036668981767 -2.4721033482812134 -0.04094996004980044
P 1.812578650211598 0.10352862645479363 6.285809704710545 -0.018478518420161724 0.36732168157837386 1.5284593800189095
P 2.6172787705842926 8.069781414250377 12.202761525804885 -0.2002701672110938 0.6198037549063327 -0.3352019182256937
Ni 1.5566916116069467 1.4724462170328874 1.1759582970217564 0.2882407189848068 0.5250352063741797 -0.3767756279024221
Ni 0.715685178004898 5.173628472724825 2.617114173687447 -0.4887188884416486 -0.2706294336609468 0.3368939612161359
Ni 1.2885679694139458 0.7684662297779523 4.237944963503491 -1.3697174139585895 -0.6694198752715632 -0.955877019993386
Ni 1.23469305369214 2.8633182119890956 11.153919060832743 0.01754957884798913 1.6099682353276787 1.8351127971829493
Ni 1.9423280326107437 7.249477508056719 10.123276309883247 0.8319233652568445 -1.391778764634003 1.5468319689888261
Ni 8.447836972462314 9.176041860718136 4.3436951777888515 0.45142477997688063 2.5653883702893046 -1.288806340134819
Ni 9.375956548858321 5.986840604048678 0.49157004325992887 -1.0926280836049118 1.8419084799485437 0.8781564280824553
Ni 9.290535462163936 2.4826479145015545 8.821319558603031 0.7176375726273706 3.24490548189587 -1.6187356971076636
Ni 2.7922311636257215 3.576398996809048 13.597045849571126 -0.021876231247801036 0.6344503011749139 0.696919880464045
Ni 5.062332753846311 4.469718086443414 4.687899267918675 -0.8476173789533338 2.4734884015541985 0.5108833403538299
Ni 8.179167809125483 3.3067798742389924 12.721654653941183 0.3716077105482374 -1.9303731977498562 -0.3329588878277878
Ni 5.040239147521151 0.9308067383062233 5.956542547831036 -0.6165561945033123 -0.6695661710414403 1.5881675945128195
Ni 5.944562715401766 6.860812504150964 8.237106857368829 0.7528295471474712 0.44262723628990863 1.3396789586149702
Ni 9.167313522416839 8.412077120930487 10.095909018983154 -1.8263041977523835 -1.1879604750603348 -0.01651265294304253
Ni 2.5645701414458504 6.146612460432461 3.540217777221296 2.0100604264688546 -0.9822997329612889 2.056967375433038
Ni 2.018616342914439 6.407804221884022 7.593327949996748 -0.509452007223942 -0.19591548978682385 0.6928017445306133
Ni 6.861706030162412 0.11764257522087977 10.16586834346471 0.4654090100711146 0.13542720259377966 1.0322758077690997
Ni 0.5342523699962336 8.8257796642307 0.1724241847058805 0.6627722880480585 -0.8938198456513251 1.009680953187719
Ni 2.971970974981117 3.5264273789267238 3.6674427134996783 1.2249527360139676 2.3903420106420064 -1.6737264515212467
Ni 8.094762520423059 7.731953337627505 5.802666082015414 -0.09361386610241942 -2.423883079822245 3.580956892606052
Ni 2.444499056581226 2.5219066257834704 9.281722474029975 -0.21791024889036018 0.12391791640259948 0.1832602629166586
Ni 2.7673347072857037 5.150989345255833 10.596701191234915 -0.13587688853668858 -1.4561525029243825 -0.009162897446190671
Ni 7.692243160571383 4.6370425890081695 4.054761785066085 0.025201181855975953 -0.09646779061144677 3.2816164641636583
Ni 4.638575691533074 5.4841240589343645 13.06840576348048 -0.3095515646474411 -1.4339332865148662 -1.6036507777500832
P 1.985095009179712 9.094251311291316 2.6202528013718687 0.7048630465705216 -1.7246031837664557 -1.9281242538146797
P 3.8880796806758764 1.9325086520217836 10.82790057642012 0.33786609532141815 3.084150856280895 0.6893546665222773
P 5.875507263022314 8.77423732167562 12.089481238627261 0.7164546080628629 -1.3131022365677063 0.1714946377402982
P 7.326856860648077 9.316221983608813 2.37684314810181 -1.311576286841483 -1.1215208553798621 -0.7154158823857034
P 7.251650187095081 3.467765044890952 2.412263459749287 0.06300668273952374 -0.6823561237172571 -1.8736271512080638
P 2.7221316966434213 5.05171390261553 5.711962845762829 -2.2029718393220317 -1.2823469576627207 -0.45242571043756924
P 0.5179140117384912 4.541266006117955 12.961196750412219 1.1419492984375428 -0.9269901617557067 -1.0931183929777688
P 8.291582786902545 3.595859052784679 6.247705993367636 -0.7394104455280879 0.16351727596177643 -0.9854938144185544
Ni 8.834395136088446 1.5573029715095161 10.717538827361993 -1.6680332577912111 -1.6796286759382943 1.5084225159726925
Ni 7.877353533532427 1.3021213481770606 0.4244276770986717 -0.011639898231773502 -0.39323094524496793 0.24578717780628637
Ni 1.5993080995845133 9.029766949875691 9.022757003177462 0.63932125611397 2.290308614166488 -2.599878433646374
Ni 5.782223147427191 3.6676327053463234 0.5470758790910503 1.4610370847101934 -0.03310835251819459 0.03138339940728789
Ni 6.295887737565977 1.3293127555359534 12.503877910555312 -0.4744297255124862 1.4128695238660312 -0.1391820416505216
Ni 2.0416881250837102 6.198070153154878 12.905457657264424 1.5496900072629118 -1.3722190973345207 0.605410719409454
Ni 3.463805313829695 0.830896421920944 7.966522726706411 -0.07525156154514782 -0.5972603223881779 -1.0039512497927934
Ni 7.371909382698958 5.346163642766864 12.61191272976889 0.043598453416241044 0.9175387865348198 -0.9457851829750229
Ni 3.5232012797485495 3.267474135272263 7.500752071334909 -0.5906338182105957 0.6799829954993902 -1.8728427076335552
Ni 5.253660186739638 2.329205984493605 9.075397912449773 -0.4607265169937807 -0.7716515649499808 1.1888277081566363
Ni 0.8867267487772753 4.0483500305186775 6.83924278623462 1.3830442129744827 0.9340390981826882 2.231651723755228
Ni 2.8765988301802943 9.103948419899764 0.3164709238418833 0.8002432605447445 -2.4049918993446973 2.3945719895629534
Ni 2.5059360240209663 7.064150807745537 1.5316409044607429 -3.0466937398757015 3.4801593642709996 -1.706540926948106
Ni 5.7577687513244165 3.629060598262677 11.242723319172578 -0.17000879722339107 -0.32766987151470667 0.3341616498866374
Ni 7.610367961311901 5.955680060091566 2.308839234754778 0.7259792597238465 0.6416465618130368 -1.7878875456473984
Ni 7.053466117756017 8.010582964607737 0.08838571194499843 -0.17981421334958708 -0.2863866964952036 0.910333269925316
Ni 5.388629642153029 0.26941314131057437 1.0540108075330918 0.2785553733762428 0.5306546094434862 -0.04293459457999703
Ni 3.298164402381245 8.753394651766486 4.906241284075996 -0.12183943660701597 0.10362985557752474 -0.28550840765530827
Ni 8.435929562667654 9.079080180170633 12.399531942938468 -1.4408050739340348 0.37498742565374776 -2.6992885947155965
Ni 5.278161610527225 5.8497360917447745 2.54844999164564 -1.30213262493008 -0.474865270388008 0.08469728033907994
Ni 3.4797288879073864 1.2939667476304815 3.157634393515561 0.5103495793375469 -0.23701508804061117 -2.257509822468912
Ni 4.599853095858026 7.357603560978835 0.5460619622064813 0.9255860823193286 0.43129149956211527 -0.8123631837367301
Ni 5.040352013964703 7.597237831712103 10.392111010670622 0.5809713554201671 1.1713004979061505 0.2697521732623161
Ni 4.299703600307352 8.137764635416092 2.6500834024024686 -0.534965321003698 0.9960278811806589 1.1001794135896086
P 0.837566828734824 4.641500813528444 9.3557139522074 0.3614778212030872 -0.4987721589125927 -0.3732005089566541
P 0.355500140021912 1.5097485766265817 12.962518228355464 -0.5770213696334837 0.3950582282616938 0.4803414630112308
P 3.048738967669905 5.207638894381607 1.628746489723773 0.9487576353397853 -3.90390339050316 -1.0941131527908705
P 0.9523858617595296 2.650583776968879 2.878846753514358 2.3647219960810566 0.1646012530545746 -1.8027806607091466
P 4.388623546751827 6.894484326477092 4.463582854682706 1.9164262486514607 -0.007389864706167917 0.3703938927457944
P 4.902786630349631 5.576382971000565 10.645087976139042 0.3021658137063312 -1.134441420096272 1.3760194449172172
P 7.26507188834072 2.6404634191971157 9.747617282489383 -1.3626515082507433 -1.9214301296239555 -0.6503818848035057
P 4.3083472887759875 2.2371728053145077 1.0542901519808812 -1.3559365581244132 -1.1053820408364705 -0.1932600544418478
