# total energy = -340869.1602260344 ev
CRYSTAL
PRIMVEC
9.29934878613952 0.00000000000000 0.00000000000000
0.00000000000000 9.29934878613952 0.00000000000000
0.00000000000000 0.00000000000000 13.61053694109449
PRIMCOORD
 96 1
Ni 2.5925002895291707 6.623832985615094 2.057396244769926 0.22610769709948803 0.3208973286775635 -3.0755443455588063
Ni 6.0864701290906895 0.7096797853363319 11.343320264926126 -0.5697590316441155 -0.32723355530823645 -0.7499630242329536
Ni 7.382315752192927 1.6137996497082057 8.509729714311494 1.1319999005343149 1.0100987574514282 -0.6795255962469974
Ni 2.6596136880847925 4.059658511798883 1.9645041220718567 -0.018488031501858484 -0.8711645701456545 -0.7108179786023758
Ni 9.255734614991871 7.115071073283203 8.902583484022152 -0.13010964703560818 -0.11634473204103189 0.1496556874883358
Ni 6.938950710910343 3.4277863758618707 10.118970823355717 0.008066321947902237 0.17132700181418237 0.16148661868499287
Ni 8.832009797867451 8.642758755328245 6.728368822644811 -0.6850956341356071 0.6523060984094121 0.4268882282880971
Ni 1.1281225724788195 0.9355702612009044 10.455137624115931 -0.08408690044859067 -0.2389254176894466 0.587913076845323
Ni 5.219510461563526 6.648634348223912 9.152623438161507 -1.5939880578493386 -0.616695291184338 -1.1663662938293267
Ni 8.989019998950052 0.32585754294688957 3.9010925297022383 -0.020798939023222246 -0.7692717518638945 -0.019036704916476892
Ni 0.8252911465006948 4.865744643654009 8.11854889740673 2.2166282537632016 -0.062226352930073475 1.3092021301823515
Ni 4.005443309695616 2.1583788007149662 3.3970269206308283 -0.14413192945662917 -0.19689790830475123 -0.7132368724565136
Ni 3.1248600965284368 0.5986939201455824 0.6899047206240513 -0.13293683207175816 0.0014241340410362572 -0.18248430398258247
Ni 7.834403582424542 4.835512461486304 2.7020587047160003 -0.42026018144861815 -0.8262859644654091 2.6797302129676948
Ni 4.8455557579308195 7.791440592078557 0.6799860354502357 -2.059028885947757 -0.9894954793787797 -0.28857419106482557
Ni 2.42913863338027 5.333613468391499 5.624159524987355 -2.150980790966721 0.2840670472230914 2.774199485091874
Ni 2.613200639423145 6.585417376714821 9.486095287709109 0.43276037079815793 -1.760943927179019 -0.2919096831959618
Ni 8.268878446484017 9.19348477573299 9.88308726752885 -0.1037039033485698 -0.4905178893236003 -0.3162526308167005
Ni 7.872289128456911 0.3592756819311606 1.7950532524860403 0.16590480235734653 -0.3201259977291777 0.9557885740446378
Ni 4.684026073448187 6.829534575756478 6.003348831924336 -0.49443290810729035 -1.1360702139489467 -0.5798400700292013
Ni 1.6283438308556346 5.010879576625825 12.680134168108285 0.08559588089394936 -0.10912867390856691 -0.12723541081160666
Ni 4.706279414551638 3.9001095885594745 8.797034017999426 1.1109924450447126 0.4353813533607727 -1.5899169731037586
Ni 2.8703927225397923 2.685056705744233 9.646685737987207 -0.6917275376298281 -0.43786195369078135 0.054347207292312856
Ni 1.2603035129069218 2.962446973932629 11.524776593502564 -1.0449744862826906 -0.5648849913812658 0.8143223643456298
P 8.637672011666067 5.093020722453982 4.807676721442443 -0.780095839062592 -0.3866486640417599 0.5131659657404195
P 6.179677499704934 8.547077757997108 9.699684585298861 -1.0709871082963685 0.502821903501934 -0.9721395045988352
P 2.047102795849153 2.805799447443859 13.668381519160677 -0.47530415769763945 0.5367895186966304 1.5310081145826921
P 8.210850511471257 1.7197936245920884 10.996442474494808 0.8320256951626638 1.337349539150845 0.4543661219933916
P 3.3787974076491762 0.8117819828479648 6.746184514615554 -1.4718498590549813 -0.4705679285642348 2.0045335831133544
P 6.001139306706543 3.036646476090771 3.0522721714756975 -0.4080734095744391 -0.37152312125423115 -1.730180163633601
P 5.185456247137767 0.6088841462973423 13.560137101925337 -0.446934862526327 0.14804103470304825 -0.6142794826539937
P 6.573160835313088 5.072264576468649 12.797878799832251 -0.05151230894667903 -0.0618543143026354 -1.691142847225481
Ni 2.2020206435058123 8.254231972502431 12.21012091359292 -0.8112972043660609 -0.15432712482207614 0.6310299626394552
Ni 4.428349784146778 2.6939003862245428 1.0799677558319332 0.8989278563018518 -1.1839472401358835 -0.11622003353770952
Ni 8.756871061504777 7.504546389662109 11.481671323123615 2.259758766404089 1.314633328500252 0.3790605672818569
Ni 0.9463575055301993 5.210034425381154 3.2542251942126508 0.1743609035444997 0.85016919884091 1.9732823384085563
Ni 6.776528288965976 6.800632200432815 10.8179405489558 -0.5777345936504243 -1.572780570533788 0.7664507374753315
Ni 4.403185746944129 4.5873593451697205 13.409359324247472 -1.515795411397996 2.7013153953376383 1.1281180489814056
Ni 4.56120957701974 4.627114060262596 5.181789514000664 -0.21201830888595743 -1.662274243820247 -1.3790692874871346
Ni 8.725606651646942 6.009425026273268 13.164015541130786 0.6236940910996742 -0.7451229225318329 -0.3733334349900925
Ni 4.635334684389404 4.857524019527201 11.109967991777221 0.15582736351668647 0.2663395480363413 -0.6816202739924971
Ni 0.41171470845951774 4.236718108376277 1.2918580624398213 -0.4651511284240376 -1.7788894559138462 -2.4637840297822406
Ni 9.233192994083069 6.2935945195617125 6.649169060766098 -0.4983224729696837 -0.07752827339446647 -1.6934889788601546
Ni 2.6326455772615556 7.341900783352309 4.200960253294375 -0.9683692389231259 2.6653137804320486 1.911757896641514
Ni 4.8014303490148675 4.975365364476189 2.3595767163488692 1.4768763657352955 -0.4913707242421989 0.020365193919913316
Ni 2.7953841770569534 3.23754030302677 7.10714988818002 -0.029747920686393925 -0.12900792933099717 -0.38938663179821326
Ni 8.35394888710849 3.5251133578880784 12.446032367465465 -0.42113461363377147 -0.14955387180314889 0.053291769444604994
Ni 0.4014910046529428 3.572140163554669 6.1064218814256055 1.3806080927291642 1.3529268247638118 1.22140615631329
Ni 0.953657494149593 0.8936553074376016 13.041139528871557 -0.44790416841813185 0.28660112649885483 0.1506054529961148
Ni 5.748885177675115 3.119466474363789 12.463685320836413 1.4800707043028767 -2.037406679692291 -0.9014583360331895
Ni 9.04078017303355 2.599660787920168 4.292708556119597 -1.1304148154353821 -0.6879636997120216 -2.196580333973391
Ni 5.220431097070939 1.08814467302051 8.695689717395412 -1.162927957571739 0.43577524636508175 0.4331696904214346
Ni 0.1325175768459647 2.7876750171009315 9.184921005644329 0.1370958485454542 -0.4223039513515243 -0.20484878772071172
Ni 6.653395614686499 3.41047098884364 4.984382942774566 1.7042444176044458 0.9437637816696198 0.13115120092624508
Ni 6.507674822755418 6.067583152165864 4.648351912503324 0.39555753649561554 0.2544929331104004 -0.4754121440304135
Ni 1.286211497994349 0.06982322872592957 8.166362427961475 0.2658898620934324 0.6800786405369901 0.05257237478007721
P 0.5662577923692196 7.80126070415764 5.083889692103177 0.35642354660863135 -0.20662773399800544 -0.6463277693387901
P 7.391959176649373 5.756612936328257 9.061759503384316 0.07875417538176759 -0.7587590252580287 -1.4376513587964015
P 9.15746839876113 1.7147719763698306 6.980259347147551 0.09150967527522305 -1.0091073400724362 0.737601160233491
P 8.538782739081825 8.777562112050193 13.567363625691108 0.8955221730544126 -0.8164185847530261 -0.7689161682966886
P 4.924107355214918 2.425930358127161 10.375937862237217 -0.5153231212927383 0.4734758462396491 1.3182089616666521
P 2.823235725993366 0.3066655473893043 3.669019846915153 0.44223437172686414 -0.6317406155532346 -0.43716158518964715
P 3.1663816878476623 5.408956790422487 3.728878823659324 0.8384174576216206 -1.8760180200377432 -1.439366027494663
P 3.0714260397041877 6.547652722213728 13.185915506988968 0.42286676583352983 -0.2849990721190575 1.222170031062508
Ni 4.415879357728169 7.297496393979564 11.682236883055454 0.5626802704204632 -0.0661979359833118 -0.5058835731463933
Ni 7.079166288494059 3.3596500489646774 1.052536537450421 -0.20886279397611127 -0.3207129805808993 -0.0002414265868447455
Ni 3.4884367271684753 2.45281477481336 12.212747979561046 0.758671607750545 -0.6623362289519045 -0.5906448739541892
Ni 2.841202067410778 7.890822730136468 6.655498197395855 -2.0500279680007276 -0.13609157565065594 -0.6513681599761749
Ni 1.051328552072511 8.623946173191895 1.511136701478421 -1.0572674447174306 -0.9064686447635872 -0.2210891608389741
Ni 1.5671262192868856 0.5201051254672447 5.465242957450008 -0.18200273636047365 0.5567939868430153 0.6451995692716178
Ni 6.608628550719924 7.698651692149501 12.909743453461896 1.5605218077710932 1.2614881119358405 -0.13335437922515098
Ni 6.478549263066323 1.0518679142889757 4.141495568929137 0.4360146160693975 0.09300142932940111 -2.84826371119714
Ni 6.011098909014021 5.0775187084049005 6.825357308383444 -0.12285116570098197 0.053933516793661956 1.5427580560297687
Ni 4.8011048718152765 1.7531875852701042 5.5929778793317 0.2537750811077694 0.7294641329486533 0.3300329724302445
Ni 6.954229540593992 6.035714284651645 0.9754356385416411 -1.3689244857436489 0.7265371891098455 1.4045599755590714
Ni 5.213149707148665 8.807775695520778 6.946450635523772 -1.1654669219435088 1.9987773973558671 0.8682203999156659
Ni 7.213346588862504 1.2654925494032552 13.286251758209106 1.1691009191516704 0.3217416789557298 0.08501918245487293
Ni 3.6349200656814533 0.2016191761236587 10.904298949355798 0.5017330413131295 0.9840745654735247 -0.5223993114132294
Ni 1.5789084939120723 1.4851989584756022 2.4634932167645065 -0.12270744103426609 1.2329447530805087 -0.29731465626161696
Ni 7.977241576302103 7.427901158832757 3.2953152957587046 0.08522975580378225 0.28525052600823136 -0.6945660355198877
Ni 8.887294425055089 4.978350455363865 10.468095336399069 0.059034328355337035 0.5091123644963361 0.5467749120441163
Ni 3.6172234053722736 8.599488886479788 8.628358714083491 -0.2917988686497104 0.544534452749372 1.656175844231993
Ni 2.045763689656551 3.2962005937415917 4.217061145390704 0.5154809870268412 -0.1969372461831189 0.9774521750610005
Ni 5.473903440763691 0.23963305316615177 2.0707612685199797 0.029454814926007336 0.6737339292658849 -0.013661556647492601
Ni 6.777616312747465 7.212007482669902 7.345348051863404 1.9441445405023354 -0.1470069370115791 0.7700137722362416
Ni 4.753492207189423 8.648794032543513 4.1197192844068 -0.2244310807280135 -0.7505430651061397 0.20883296917944036
Ni 7.927183183005039 4.125451402859023 7.627222465927305 0.09365603219426451 -0.7023793609167194 0.785672561819421
Ni 7.191874393038072 0.9717447270982815 6.165164936342608 0.6334043764089027 1.4450977877721178 1.5530568668526155
P 1.4510052538214493 8.180878711063224 10.173073503341412 -0.5806774783288322 0.5626825844133084 -0.2109785547675334
P 6.040931219193657 2.9381756741917155 6.974392388141213 -0.3877593806074354 -0.9656202154230789 1.8717620729748667
P 8.900387907827199 2.273076965850763 1.9871108384205776 -1.0938393303041936 0.3696606141241956 0.7766335915456043
P 1.6856929134235326 4.509142524433773 10.20606480222679 0.8272737822999754 0.9752549102993655 -0.8280235159818063
P 6.503127441309707 8.338363178922371 5.45812430612753 2.0235121810983863 -1.308397117782553 -1.9793252021685266
P 3.4724604463428475 5.459154673947949 7.674110711300355 0.024291525557513002 0.10885947940758027 -0.42881989809317117
P 5.714142811455938 6.974362630225822 2.516452076877353 0.24962532060545398 1.2264318916626555 1.2315357885481244
P 9.144653896445812 6.310054366512448 1.7140568564655865 0.6456932210785847 1.6787401026857542 -0.7715438357275228
