# total energy = -340894.58764613187 ev
CRYSTAL
PRIMVEC
9.03022614554699 0.00000000000000 0.00000000000000
0.00000000000000 9.03022614554699 0.00000000000000
0.00000000000000 0.00000000000000 13.21664875326094
PRIMCOORD
 96 1
Ni 6.302005066395092 1.938148368693301 11.467676297070183 -0.011028489900019716 0.6630867339646839 0.078818967181432
Ni 4.595852232974749 0.27456763256348066 5.881527945707876 -0.2638034118780489 -0.973070501053537 0.02427224228380336
Ni 2.7710783512750243 1.709304382282212 4.603054741204624 -2.122903316004215 -1.3088295773342815 1.7023587705459584
Ni 3.589758637283601 4.295380494207383 4.872066075731692 -1.1871140678996392 0.11972084760211638 0.6196898550362876
Ni 5.038920269959204 4.771065707378283 2.5674395315781107 0.5138457654162634 -0.7582010958720297 0.7211998360573321
Ni 7.388422522047042 6.331985416599686 2.792241588847159 -0.5825669820420613 -0.39920798876400926 -0.5422104326018855
Ni 5.026106379314531 4.444794613028229 11.635580706577452 0.5470510485236385 -0.6715055541559984 -0.8117962554896665
Ni 5.663911239239368 7.7803794800682455 12.528669151517 -0.7271092595632316 0.4481252832900024 0.124294840126044
Ni 1.9267522235251693 6.505447027165964 0.3080508074199907 0.3591975098093427 -0.6477418760774973 -0.9328314510278322
Ni 2.6828169226907774 1.6217021601934276 0.4475831499670756 0.6727409692249963 -2.388734814055886 -1.264954473217886
Ni 0.6780354196225737 -0.14198495191924382 4.4098666020172805 0.4944460207334129 -0.09660457329962718 0.9119476656002875
Ni 8.519331901029725 2.4058598923368946 1.3387535749116086 1.2634112971004823 -0.013332712553164136 0.3273621104663007
Ni 6.866060070861821 0.7729503186980088 4.770007364895156 0.3277971411211903 -0.5531016255930926 -0.02583161635112325
Ni 0.918879673318869 7.164265222911912 2.3661503766773526 -0.29059790636307375 0.050480011027422736 0.9265651584031461
Ni 7.6299539759392925 3.9974281884843195 3.7569641073011604 -0.05476475444570568 -0.502309996862522 -0.19079745183396818
Ni 7.8538313380695 3.991251513924096 12.79222261747068 -1.6366560290315104 -0.6317748112252798 -0.996857833281122
Ni 8.151169588426926 8.979069735146012 6.683606161279359 -0.7352686554455724 0.4148207556006017 0.145211278563737
Ni 6.816050679466328 0.7888823463684801 0.5842005355725812 0.01760845711038258 -0.6033008721553029 -1.1106808273415647
Ni 1.9303372232333693 6.42598103867186 9.285025530142068 -0.03898203769015222 0.7664803051616863 -0.45865909294179075
Ni 0.39637815665378384 4.887736226849172 1.2730975109861444 -0.18362124580050312 -0.5188159649373452 0.9273254336079384
Ni 6.403080385624014 1.8998331199227916 6.858686891361204 -0.35913168956841374 0.6734611352204724 0.9499298012710157
Ni 3.4358835868359265 4.202766496707891 0.4066057905820137 0.23787460782742903 0.8962904186790047 -0.25236868767854603
Ni 5.8062366306775015 5.694099284641162 4.786620271603407 0.766141433765029 0.42599528416018245 0.24267151499544012
Ni 5.2962997704204495 2.950951422276622 9.185689432434053 0.1971385635606476 -0.8794440365456274 0.23691455790700489
P 0.1764072702761387 5.616737338796959 12.274195577771371 0.7589603426355575 0.39878144274955196 -0.19353490536978926
P 4.017710076002246 6.082317729112756 12.536017949407512 -0.5652755419514651 0.1095269377882501 2.010845127153679
P 2.254721000356688 8.408847086345025 1.273980667085545 1.1058988325718888 1.265938177287394 -0.10082992423488442
P 6.419145157616174 7.817954250309605 5.668052500867026 0.24047013646874713 -0.4004757997328393 0.5417221801115574
P 4.531620235684003 0.9353508054794651 12.572878428775022 1.5151827175146615 0.12789978386848294 0.13736247194327955
P 3.9846775094214015 6.184955277433663 8.454835318118198 -0.512027481260602 -0.7174223712927709 -1.7664923678010738
P 4.577403481327765 1.0516420554598143 3.8283480435563755 2.14203643728924 -0.6643889977158752 -1.2128929766359562
P 0.23572772766439082 5.440936899705684 3.4842783738288357 0.5986939695109108 0.031229647438242986 0.9249376501020523
Ni 1.3016167706295627 1.0808548364573625 2.3785606162213804 0.7124616848533859 0.4524390801740079 0.47921274872342634
Ni 1.829298024908309 6.4269292123982105 4.755217660809288 0.15292124561348502 -0.14237792287999995 0.3417014099071083
Ni 5.93178386227222 5.769203673994055 9.284590273250544 -0.08936126147365256 -0.03877506388566871 -0.2469457168907618
Ni 8.495528225385355 2.43608405864255 10.08376075606122 -0.11983423325152909 -0.2068542481865147 0.8671793602456613
Ni 2.1299864890988403 5.149955928427785 7.138008034872787 1.0980546539371219 -0.2588645798155348 -0.5244281689178001
Ni 0.6766537950498922 9.040159213800855 9.025438139432321 -0.9175056193040393 0.12099971431454001 -0.08318932833498577
Ni 1.2969752344834298 1.00313168157455 11.388613959676725 0.9087643827762995 1.2568557553701518 -0.42904152718567395
Ni 4.0481961188608935 6.787370681800728 1.7126663354090705 0.24044056878239234 0.6253848485385359 -0.575550441514912
Ni 5.666096553922955 7.828384161299456 7.7978096222263495 -0.6179211931716391 0.33695078259600036 0.18120003795352016
Ni 5.47929729960602 2.9377040807856165 4.703527744361663 -0.06712790399674891 0.023991992039223198 0.0957602230214609
Ni 0.6709566254884228 7.406004372001362 7.105402597980097 1.1976967285114921 0.3121576348117205 -0.44958387011339995
Ni 4.980955249488336 4.432766352042531 7.148171554196663 0.19480271633861934 0.6313459512179771 0.07620878325209456
Ni 8.048170831067411 7.217859614015606 9.380529199950436 0.40910673593495994 -0.21843423971463025 -0.6778240401748584
Ni 4.689269920585147 0.42482878657986617 10.138517337246642 -0.5801213487150461 -0.49197004838909464 0.9855110408097351
Ni 8.462143479991866 7.037652424653295 4.928409267619205 -1.1671378818880287 0.14526090085474985 -0.3369883207021551
Ni 7.182948760433992 6.127477889164917 6.902751685003781 0.2380890378310803 0.18834539074904982 0.8175681249764372
Ni 2.515793863237715 5.065288529777703 2.67708543827064 -0.4533824179238837 0.20626700822447702 -0.39207446304302157
Ni 2.1842762076018576 5.083150316736946 11.35669572297999 1.0751160428630775 0.3753432663312697 0.522230647045849
Ni 1.1784715791415974 3.3937756431600166 3.8410490563764843 -0.8584892886708311 -0.10250396950319766 0.014820095731968023
Ni 3.659571314220864 2.733286855610499 2.822203878599822 0.46790092325503296 0.802576022442979 -1.183010587254227
Ni 1.0375549029540412 3.288754115184286 8.304258106193029 -0.59039444850628 -0.16101816368900657 -0.8109747880296355
Ni 3.676791955136575 2.4731711966817866 6.656115444373382 0.9344065088244359 0.21013780403379292 1.101224052804039
Ni 3.7802331935683884 6.7328732681005095 6.245157084876123 0.4777757591665837 0.3795390495801722 0.004546481720101848
Ni 0.8581640460189875 7.566083187687156 11.233926188892179 -0.3729215442636545 -1.129146747356236 0.3956945762941121
P 0.1936829955702376 5.629560259667598 8.016637281996795 -0.9843579010418984 -1.0681997753592183 0.9462870623121057
P 8.419078332363641 1.6851033766953711 8.00872048289307 0.736793576730531 0.38004529979262935 -0.9559775501269923
P 1.6823852786798343 3.002333408018832 10.464796558800064 0.4632199728395958 0.7927135278266025 -0.6692753792738989
P 3.9138895680798926 6.248076556930685 3.9991990157961026 -0.3688923684996034 0.38746678906768106 -1.2624839001902062
P 6.887913217697701 4.03426248019653 10.362315233388355 -0.43236236402879086 -0.20380054896185548 0.9516966633634512
P 6.158758591908504 7.855339385805694 10.33853864842188 1.3282414062019898 -0.8572363901003366 -0.2726868304106078
P 2.268925545800009 8.42583294138564 5.812853980264828 0.6988950019125446 -0.4634873675683695 0.043912128001917926
P 6.852009039259909 3.723586586088444 1.621828583356941 -0.21353885929554192 1.1393370576256763 0.11535177200014328
Ni 5.137241370268728 2.6404290420099454 0.9263404460113496 -0.20127752542968563 0.040205882794924305 -1.3984584906470239
Ni 1.5155970051018683 1.037013089396127 6.9413838947056705 -0.7943523489816061 1.1860684002439446 -0.48385024749543765
Ni 6.956714509326857 0.5304724971246018 9.013199474181635 -0.8422625423993235 0.0662735264162536 0.3944169951332691
Ni 2.8816354077674466 1.7052859317276807 8.982721558526356 -0.4701128433046871 -0.05348768750549498 0.7604816643760903
Ni 6.56287023407892 1.874999998518384 2.742587085332098 -0.2366124532855538 -0.4262629359992723 0.048536771258122856
Ni 3.990158856582302 6.827808033673068 10.577006146644123 0.703236566710692 0.8443795887423264 -0.7263029616118524
Ni 8.229786735680298 6.936766740169643 0.4618798037152421 -0.37540034482145024 0.8160858840039559 -0.08629907760856105
Ni 7.409905429618346 3.9568012018667083 8.256030378380476 0.9936832922078823 -0.08334796540003711 -0.8694599287497218
Ni 2.980001659206796 8.31915888205827 12.247564538377285 0.6333704378471737 0.6269815036016945 0.5912238863861108
Ni 0.20998435948268723 4.8514798695987364 10.073438304760355 -1.339472756141435 0.04176114309718614 0.4710734074457435
Ni 8.503628338076174 2.5601142122751086 5.816779419491918 0.6714191650897792 -0.6088084322370934 0.18714597112430995
Ni 3.5765925678262818 2.53467606573103 11.532516931590985 -0.2422537107317312 0.5079435409992155 -0.7554055354047635
Ni 1.1079726050309757 3.3749476220224928 12.686912122264063 0.2459848956393893 -0.7695190919880102 -0.6759113965331779
Ni 3.1602088485691078 8.508269874222307 7.9833446449081515 -0.02425784410610016 -1.1210027780928629 -0.15793438255736028
Ni 5.616710248119063 7.928023674599904 3.6037834812302134 -0.9923298635037814 0.5943295218946281 0.05860186880360876
Ni 2.9247366762995326 8.403826280708353 3.5743630050354644 1.0302294667630323 -0.29658060630906985 -0.3189371196273991
Ni 3.321443533178451 4.174817947345476 9.256848516062732 -0.3238993487286809 0.5051145561908527 0.10061266601775576
Ni 7.064029714697758 5.9924218296288005 11.47854056192896 0.7729990801168106 0.017346461698247544 -0.043959693410401714
Ni 0.34768627522661816 0.12880172503259127 0.1724484192129779 0.36209797128558924 -1.0916281815854878 1.0140579992094925
Ni 4.595897384104575 0.2707984162455899 1.5332104608470671 -0.5503916828610973 -0.34926713806950815 0.48696436764438716
Ni 6.09761493189787 5.4811846168327545 0.5485401732358521 -0.5234228675817373 0.7879112213419527 -0.2431217151589813
Ni 8.085276029558576 9.087477597858708 11.151678890800781 -1.3242235432918483 -0.8368254305441523 0.002697601436821161
Ni 0.012394888159887178 4.90467693075996 5.870689868504394 0.3898198626808899 -0.570697484297985 -0.2556866963081854
Ni 8.218209985992862 8.735786417416506 2.5325340961320757 -1.397905189246715 0.5907544029488601 -0.4353404728205083
P 8.718249718592011 1.6074795542981761 3.797909860895344 -1.3155648391755859 0.7875924045499532 -0.7775409338512221
P 1.9290549311463054 3.1241150353860467 1.5487000074452417 -1.752036083166428 1.5625794616310704 1.5373507689712687
P 4.748634626080629 1.0089832680000248 8.036607626718922 1.1734792507250242 0.7559272122361884 -0.4502610986860826
P 8.39753221321058 1.7464095807733795 12.393356633563473 -0.5723900415090594 0.8342414718670601 0.3053272421534483
P 6.334911209812423 7.834867863542498 1.485300596988491 0.4176690236826742 -0.5642242178688153 -0.031254330028591334
P 1.765652992305304 3.1942437702320934 6.067353741665758 -0.5292474446833144 0.45158238860066746 -0.17549604559020743
P 6.85426659575122 4.158256512925227 5.952302341710436 0.013901440572440573 -0.8040837173367571 0.3311683715862684
P 2.460474698974661 8.638350279251576 10.060010358750045 0.4105414114989574 -0.5294055675277334 0.8328003685451594
