# total energy = -340857.3576174044 ev
CRYSTAL
PRIMVEC
9.38493099046308 0.00000000000000 0.00000000000000
0.00000000000000 9.38493099046308 0.00000000000000
0.00000000000000 0.00000000000000 13.73579514790022
PRIMCOORD
 96 1
Ni 4.995429737210008 3.119616693137786 12.642466561331899 -0.33948049099638955 -0.5005076535464605 1.6617399685833318
Ni 3.732208666314873 1.0085046639950015 11.564069502174325 -1.2381306681568227 0.5243266103429293 0.6081209192517655
Ni 6.320197184305396 7.091854349647487 12.680638828876411 -1.4496753798404711 -1.6521250712013869 -0.7435344949987904
Ni 2.8592787126871877 8.652380643422742 0.5539840188109748 -0.7424062949316181 2.4334524686782353 1.070718428016014
Ni 0.5350255200976274 5.2993701061672205 11.700960918333177 0.7133206904195715 -0.013266892312235216 0.04740882830126674
Ni 0.7574455646284514 9.030264882169798 8.68889271670836 -0.3179636999705363 -0.4037632122348595 0.5186419012533261
Ni 1.8219810809913048 6.3645128275529705 9.767510321739781 -0.4482296700783506 -0.6065402050282069 -0.6196294341119973
Ni 5.991424288445794 4.778112279556292 7.030693694103199 -1.6326633629323495 -0.5685830090581433 -1.9691780864321957
Ni 8.72030877256843 2.541617574897286 6.61245331441398 0.46254428692880983 -3.1796537118759107 -1.6408739237676
Ni 9.402199074788316 6.705608137555748 3.976169004022705 -0.8365873463914173 1.1619239417872569 0.9401169289456518
Ni 4.608714278578163 6.7049511923996 5.9345225144995055 2.1925053925730693 1.3014075738385973 1.1202360751301674
Ni 2.9755204656021514 8.657166958131818 9.813099500097204 0.9991237464971631 -0.025747541277749204 0.4698536761060295
Ni 6.346991161745427 4.615959445157394 9.211251395702375 0.23175743918609765 1.212468487504028 -0.05198719170056853
Ni 2.5356862986303508 3.419512156919289 12.22245336821416 -0.014469911481400886 0.39964147675700207 -0.7079481132537485
Ni 4.251824130035431 2.019430640136948 5.135552385044028 1.052355352127794 0.4970937427689051 1.2693358901150333
Ni 5.722527251103668 0.6374855021296899 12.64914206261144 0.08076374961262865 -0.36224760948957613 0.29033771072315157
Ni 2.3520888973486254 3.731467256781506 0.8624648172902499 0.5075802441225258 0.010990694683548814 1.3625260384164728
Ni 1.1654394768679257 0.4773757671664112 6.559652755228214 -3.0668982398480344 -2.3862359588934328 -1.748103580881241
Ni 1.032323618370763 8.421192258043504 12.90100169657541 0.9592842459027221 0.17528110136592395 -1.0651018531601848
Ni 8.983462232259663 8.262549387764595 10.74244884222795 -1.6582998325535312 -0.8611658070617297 -1.0123983521188822
Ni 4.634804386208036 0.01717254638170532 3.3064396951361976 -0.9134695015614527 0.8131473702009221 -0.3262678489608574
Ni 7.371881914920917 3.05414741586225 1.1661940253044154 1.0381304667776636 -0.16110686674807093 0.5438345984688698
Ni 5.292537876543283 5.276818117449745 11.385380419702106 -0.7017191016249011 0.0009646779061144676 -0.09064167084797294
Ni 2.4491009270500617 6.481655533824938 5.5436157457714375 -1.3651825022027133 -0.8416166812852086 -0.48382247958129576
P 2.2291838435641607 1.3570891487778636 13.150306752375046 0.17017129094318434 0.07031298659294986 0.7890908434723507
P 0.5082596974500028 4.411039481093269 5.939055436076926 -0.9616185504628535 0.3538791829202228 -1.2361324067798711
P 7.41139247359781 0.8878501166168838 10.471826854604396 0.5758641161005889 -0.5699104696203153 0.14170686495490434
P 8.036410095156894 6.354836963895993 11.401163057832017 -0.23961447333667119 0.10898726323469617 0.3544851919353379
P 3.6761712444954595 3.6970996401841703 10.266022830058711 0.8513200246159016 0.020238952754694176 -0.5552772930881728
P 2.750807682476372 1.8074532081096348 3.736383083535652 0.26702757524230136 -1.1305369428355434 -2.2114166276552756
P 0.04432878215069785 7.659060797465557 0.92692896847688 0.8620530947626895 -0.09564426626888689 0.8972697518731385
P 4.445435252483011 7.419669982565273 11.35492819623541 0.12867934234698483 0.21378285698554794 -0.25723707151444086
Ni 7.176881822714624 1.5814828442563718 8.398998773682667 0.2451192052049843 1.5351236794129626 -0.618235124867632
Ni 0.5192072192306669 1.1133624958470039 4.26927728584812 0.6550738909625363 -0.5323541086330961 -0.5757486735686471
Ni 2.3058587282174194 6.385300449279651 1.1234616198831568 -2.8219045044773208 -0.9693920237606852 1.403147154371945
Ni 4.86233264857445 2.5704856220445835 8.160188885999034 -1.4057115726650113 0.38028826904137086 0.8071939808309647
Ni 7.57812515422814 7.859485379675471 2.3288762095026803 2.065540204703714 2.084123624132856 0.37619198748481014
Ni 0.28236253605699624 1.0072940079215291 0.4930082464034899 0.4739473865594289 -0.5552076161925019 -0.3917880421508543
Ni 9.251495855967995 2.1511856836678045 9.469690804651707 -0.48917525925277683 0.6660201055613949 -0.22394874177495622
Ni 3.7062217929238233 4.882754257999846 3.168188402504119 2.6312852300924297 -0.15699181613843285 0.20639042117621872
Ni 0.13372306352005936 7.168876476740422 6.832651007330863 0.7878186616281465 -0.010680619642297735 -0.4022256925444105
Ni 6.777205774645063 1.570755868349557 4.098527854834487 -0.05924464459393022 -0.7710779518346979 -0.1679143765882076
Ni 4.976237553719687 7.807164390453694 8.555285087837166 -1.5174308901188898 0.8684111757702334 -0.6820686743838253
Ni 6.528805426174751 7.575065666786651 10.27006116578286 -0.49492373170077997 -0.833571442383229 1.4492277507800913
Ni 8.26225845490973 8.950183267635373 4.388490307855033 -0.4761454226520122 -0.4820818427411052 0.5708005855347524
Ni 1.6748816755989948 5.361160490568329 3.411037564404981 -0.8529387911662473 -0.14088231217107994 0.5656295828567743
Ni 1.2796916244528425 8.529015728028973 2.746156510770845 0.09925666621049357 -0.34651348658377096 -0.31122766679828334
Ni 8.689047568066593 6.556922678857879 8.916838608495468 -0.5437893470532312 -0.6876022026075448 0.9857982330328506
Ni 5.838018209554464 6.6984286654921315 1.7893618770024027 -1.9884821860774464 -0.7217809053717827 0.625519060123555
Ni 1.8660339461764206 2.7466783129234424 5.321864846806804 -0.8596812520964033 1.9620278485406597 0.3874436491392295
Ni 7.933438634396117 5.541219772937659 5.754528926645791 1.431962021721108 0.01948561952843741 -0.8647902911881944
Ni 2.4863121776804373 6.560132325192203 12.042020565598905 1.0787251003705742 0.19968035614589483 0.6975973661470437
Ni 8.048188183313545 1.0885393538754162 12.58120548702803 -1.5675373198569778 1.713728445835481 -0.7757493891684382
Ni 8.152342145355389 4.203266498065302 10.714606568017322 0.6757311622015717 0.8146928603111712 -2.6476248477927173
Ni 2.1743007682334072 1.963824925134432 9.780188424760356 0.8505849462220899 -0.11365612946527523 0.8858285999157324
Ni 2.6154488255175043 7.490141427958336 7.742840074736015 -0.5138241681497085 -0.7520211923135628 0.5407035090390558
P 3.8486287329150777 4.7564143195418085 5.865033671361425 0.029415219937323538 -1.1924807315281913 -0.07330292245920925
P 1.2567923932956881 -0.016172112758200137 10.885850584884228 1.96881119001108 1.9980536318159654 -0.63778579330605
P 3.9292171337128172 0.4756573863365445 8.054271495459474 -1.1224377107671766 0.18623734326711153 0.41757414997602277
P 6.2811558721686085 2.544620752753962 6.624347775712576 1.2144153268177538 1.2169532627482589 -2.01618659397125
P 0.619723582093612 4.467893391892466 9.307759454619738 -0.012450309948210815 0.04426462624533022 0.1952500882886831
P 0.36039448170424027 4.527544012070693 2.0798874258710764 -1.1732337103731212 -0.856105618930003 -0.9343010935948232
P 6.542526195007439 8.539160838226056 0.3890316595538061 -1.7839486156043083 0.7084625909963218 2.089338592674892
P 8.159587311934619 1.074405648087435 2.024477855922324 2.6511079212453117 0.5030466179182305 2.3232542158545733
Ni 7.770535005533049 5.424593237859807 3.093630758239817 -0.6789473551460242 -1.9688132468936093 0.5014947000500782
Ni 8.167423729154383 8.363043226793614 12.922484741674527 1.187677139491961 -1.9093138059763957 0.3142571976532265
Ni 6.249303417026239 0.9820579289946487 1.5514576351411735 -2.32084097842739 -1.147979563792023 -0.34045262510167174
Ni 0.27608777132270385 3.6532157037534922 -0.01608295591558007 -0.9941879997584427 2.2806898601298013 3.254686729652349
Ni 3.2947864265592144 8.927584354263885 6.160957432427473 0.9147668802166375 0.37716515003135687 -1.3609404390969078
Ni 5.630479849796549 0.4417890480578811 6.572797289309654 -0.038513068473533675 0.11808048378521598 0.6358710927818403
Ni 8.808733590585934 3.135242602923303 4.0186818020631945 0.0030231030970399547 1.4134775897636753 -0.3014860140304872
Ni 0.19181109271973423 2.5759570367022153 12.029135994100686 0.8763597411933488 -1.4297747842618023 -3.5816757730499478
Ni 7.21466555412393 7.878696333027394 6.50512161480254 -1.3545293933642413 -2.7609246223598385 -3.1908418672822467
Ni 6.446724821379475 3.9262608805101515 4.773106357466445 -0.6574166801631 -0.13937513149793415 -0.6570479839697717
Ni 5.341123663305819 0.816345390342509 9.859388794292464 -0.4919883032215398 -1.8478042766076888 -0.29913885395454937
Ni 3.887144488926947 5.339650229169887 8.582262071427838 1.0671312248853881 -0.12399144995301228 0.813046840067316
Ni 8.031633165378619 5.941289988100909 0.947880826492596 1.7573603235928186 0.08455406989299631 -1.6390859786292415
Ni 1.9942602557256826 4.807421418451289 7.444169344424187 -0.606883961520871 -0.1992386406227859 -0.04131582802965142
Ni 6.702839582969124 6.900617614692842 4.520367355486317 0.10269937334345537 -2.093343600069227 -2.3474562670220736
Ni 4.116437118284158 6.966546753577681 0.18902470676458707 3.5975754749993394 -1.1502945850784447 -2.1173011393260888
Ni 7.400215021012495 8.657889597803582 8.441497494326955 1.3185388342022453 0.7695162637745329 3.851882260240863
Ni 4.7881447705837505 2.4984187384151624 2.780949264733516 -0.28638001162698423 0.8768222826520642 0.1806274532795018
Ni 1.302102839208287 2.171100506829887 2.1917379696637322 -0.21804780290948902 0.32959871310630334 0.9569915932138034
Ni 6.168546087474062 4.788172925376157 0.38314449246164095 -2.012882469298682 0.23637462624313485 -1.7129558293355143
Ni 8.390062442572896 4.405370982888793 7.573038521733395 0.22486045495594822 1.0209634680800739 3.5895945136763925
Ni 5.865450362289039 2.9568726080983545 10.578265108803473 0.07740563177367314 -0.9587486851142263 -0.5763333424275235
Ni 2.249061127003035 1.9671941152923904 7.38549006458398 2.6444757606407747 2.0220451096345564 2.7715911009347494
Ni 4.0325452218440745 1.3916632338528456 0.8357280879281118 -0.9760511809484157 0.3383818586155721 -1.2753332453490487
P 3.8305908959134176 4.764128732661145 13.647226637936857 1.0350945081648173 1.1673803369161377 -1.0564331217415934
P 8.184175830636153 0.25309656784368884 6.716720834118529 2.4648525802560712 2.551071696556316 -0.021278706873118194
P 5.787987143448402 4.470051925976952 2.54385588089359 0.7099890549431772 -0.45670659720111023 0.12528548617408744
P 1.1751716501097162 8.12448767073472 5.1549472830396725 0.0363836808353567 1.7323540313564683 -0.7404067480030861
P 3.6478005986806736 7.622140479690047 2.5116308439983763 -0.2633254438003658 -0.821582645452469 -1.153845792764813
P 7.2874081527711025 3.3444514803639938 12.248661725972138 -1.307498774338 -1.6306386191928368 3.7183975260854347
P 5.856215590379759 8.621513606014593 4.824368726493744 -1.237408188168501 2.1767244755897286 0.12003452218779329
P 6.539879644521244 6.541578316996427 8.054188908068415 1.084700858338035 -0.5741173086128113 1.0097040931161707
