# total energy = -340892.4571576353 ev
CRYSTAL
PRIMVEC
9.02660567329700 0.00000000000000 0.00000000000000

0.00000000000000 9.02660567329700 0.00000000000000

0.00000000000000 0.00000000000000 13.21134982615524

PRIMCOORD
 96 1
Ni 6.40136197411875 2.2081876191056025 11.367296835860543 -0.21158687777549365 -0.7256133917439954 0.5542079712833938
Ni 4.4701738091603875 0.34980173842181106 5.752671262329603 0.29657469277179893 -0.9760792059728739 0.3551050849075239
Ni 2.737760531932217 1.652166751097595 4.480497538286995 -0.44777998413544173 -0.6885694516168206 1.0928006046270342
Ni 3.3599283677112997 4.107629211240429 4.777462039284136 0.5716966149864605 -0.03356009534363252 -0.005157632941539505
Ni 5.130623480408511 4.422242532022778 2.722224840579761 -0.8693509139756834 -0.3002166603997604 -0.04140915907440611
Ni 7.095417698998384 6.0451721067270165 2.611989221787362 0.6431421725219568 -0.06459845270667584 0.8752878482854087
Ni 5.1809107016766145 4.638420715858677 11.816271184927887 0.45435018115379167 0.22976971933210752 -0.7888959538527252
Ni 5.671985140493453 7.7601279282142945 12.614725925248285 -0.8444580073887458 1.317892201757182 -0.630175842169276
Ni 1.7147572361582712 6.65036992348186 0.440322347346742 1.0205646899797585 -0.4809258747597911 -0.5140918199887985
Ni 2.781178506137849 1.700820156704322 0.176676853914639 -0.9601180546579271 -0.4156836178215293 0.8527408162228282
Ni 0.4267707039631838 -0.0585781587541473 4.650435128263604 0.7458687995589219 0.14915997879883988 0.6746572124111027
Ni 8.56695304015234 2.5131605248252455 1.442124853928013 0.4422359143887609 0.29994823722972214 -0.24925045376453844
Ni 6.8552106903526315 0.3293330069647027 4.420425476262363 -0.08196291212705238 1.0797630547167856 0.5215084241678438
Ni 0.8398985958235834 7.547993663805447 2.589675452091661 0.058921199816240465 0.8728278167806903 -0.2380126760671901
Ni 7.606431910168703 3.704067716274651 3.8568421178615324 -0.17710581327948852 0.7910140286369925 0.06172215960014532
Ni 7.655807444244546 3.9629236926353384 12.723071372772774 -0.25049898145965893 -0.4134930379281137 -1.481342371926449
Ni 7.81441393588013 8.789720646268929 6.705870009636398 1.7283081434218686 0.15640766150018867 1.3790713443696636
Ni 6.8062323269348015 0.7684313465562922 0.1583699945619483 -0.16416030886241406 -0.030804129865050173 0.2257153467570758
Ni 1.9924517389570366 6.373686400539858 9.233610308253107 -0.6180597756320323 1.1715259836533953 0.34925556810528235
Ni 0.0757774535673305 4.955958656940949 1.203490280023761 -0.18722516110167756 0.020383448752358445 1.002726633357073
Ni 6.473006144860975 1.6988252768083876 6.753642418510804 -0.6884936040735626 0.9112454973269403 0.3859680930349676
Ni 3.3741723517646234 4.396300066769766 0.3420984329775103 0.28816667121376177 -0.9639155740271463 0.9108896566494183
Ni 5.987717760402932 5.346178828439799 4.802563224870626 -0.1977090913521369 0.08613118457212908 0.7624488154047901
Ni 5.385164739166227 2.953117294634497 9.196223009425186 -0.6717757770982494 -0.27340905328861304 -0.6991076321439831
P 0.22263581767097476 5.569596350178592 12.24599719965093 0.4246182013069977 0.6473065883122917 1.1014006875912195
P 3.9769239583303357 6.29710467639005 12.820518999037706 0.3187460866625156 -0.09324876945351682 -1.1257919719513902
P 2.482605463975752 8.510816578284393 1.3957398343748981 -0.47856817316089184 0.9355730183287112 -0.016934828082125673
P 6.313849030267689 7.7440244633529955 5.773360242969792 -0.8029282635760752 -1.5402936536496763 0.9763777110498992
P 4.645001111533502 1.2349028684303307 12.54297433789628 0.9172353963617882 -2.0316494654935395 -1.8539060186300524
P 3.892462007261292 6.206847644356346 8.184087747111443 -0.5778366664459275 -0.943982068328013 0.12768766785767688
P 4.638853992940147 0.954319851755099 3.5313409050860796 0.609507258076331 -0.650044298958429 0.7997460091933517
P 0.018760897627647703 5.779988479655695 3.281989944700138 0.9402709380250129 -1.6469697522526925 2.018207223945705
Ni 1.2866253200308027 1.0086239126326628 2.624487460266597 1.1780061920611002 0.857983038458374 -0.6890613036515745
Ni 1.6657427663169861 6.314471866072303 4.670397467131744 0.9022754326178462 -0.21016582905825096 0.4936569491732144
Ni 5.783716467877509 5.450336833503995 9.384351918199425 0.23572285159174888 0.30468292370123007 -0.85306014723546
Ni 8.432664224714255 2.3557816515871592 10.081092155663 0.6214867990357104 0.15720676036271636 0.37476939610567067
Ni 2.2661835617815247 5.216403315933691 6.878833317898606 0.11029081253746813 0.009033056736545735 0.1854917233503386
Ni 0.5790919699356947 9.286301314662781 9.323355531734324 0.2545764939631422 -0.8763319732792069 -1.0583095128287
Ni 1.323742723343393 1.0546596025388422 11.31121453362778 0.6242764459657054 1.2230480627920872 1.1268219558778012
Ni 4.07820247612393 6.8832563547719445 1.737041218054621 0.6770678787351243 0.3557805137079937 -0.5546532863509287
Ni 5.452440032670298 7.635714219591379 8.203904757625173 0.19554062294590838 1.166608748857436 -0.9186623586163019
Ni 5.336141242719078 2.554953709975365 4.760102070886574 -0.15347737522727117 1.1285679920346305 0.12406421217247665
Ni 0.9165254530027122 7.59672830886495 7.340411516733793 -0.5105984621235594 -0.6244404823473956 -0.9090577456470021
Ni 4.831996278611229 4.615700748899099 6.932405321040602 0.30390002278861855 -0.5806363406782517 0.564093348717906
Ni 8.538329672957735 7.117614122817853 9.492725348202091 -1.3283375654602219 0.25343209594605387 -0.5853242330722243
Ni 4.917351863660804 0.4012073561564583 10.40507419067155 -1.7337509117039946 -0.3418294508445403 1.2060877807886647
Ni 8.43401821559385 6.904378612493604 5.178082666059436 -1.4043668857116587 -0.16115083261212892 -0.5891191813382822
Ni 7.155309228905737 6.189823465696923 7.260931349441067 0.08344026800352726 -0.22846385603649044 -0.5579545828100198
Ni 2.3923032989127284 5.181497431057771 2.3930380646300544 -1.3916422390561387 -0.41668017740684365 0.09693547427648466
Ni 2.6942522916679454 5.181668936569186 11.42105388442275 -1.6114731020079796 -0.22766295740174985 -0.3435281787032019
Ni 1.0452719324403272 3.5193382272687757 3.8849166674196107 -0.3711716514520833 0.3069987163186003 -1.4182374730461638
Ni 3.6525980096383694 2.494872621344869 2.380949634057044 -0.4391022538557857 1.1989434564343997 -0.2656309520050909
Ni 0.9279892424499372 3.4788990329982497 8.03834055818965 0.7615311886865271 -0.9442018976483029 0.520108972717156
Ni 3.5797352471045105 2.460724971361521 6.98861941171898 -0.18530840369493892 0.7733366659618874 -0.5100549309152635
Ni 4.086028543407981 6.748200277835424 6.034746376954146 0.3190592470275602 1.0039687332942904 -0.8918416388790319
Ni 0.828285867379603 7.462286041127178 11.401738753195056 0.6592915285883097 0.41883784717979483 0.30878177636095205
P 0.0903193156141648 5.579489510205488 8.116670735895308 0.9563619300496045 0.16050599993927842 -0.5976449594211062
P 8.4418442828779 1.645920339839737 8.013833323269008 0.009652178377783377 -0.4151719682924334 -0.8075341377792027
P 1.8686428129270058 3.140112461712225 10.457312061466855 -1.4195561918575874 0.35223830488269015 0.45790524549490175
P 3.7669380261171095 5.933702550913014 3.7696342732886734 1.4778929799252676 0.7399856013052675 1.0496945174661794
P 6.94819375735725 4.037384164407118 10.408878905043208 0.25016448093837557 0.43460333754416763 0.18793915644956663
P 6.419072174823833 7.818241216766449 10.119973357761408 0.600183923792876 -1.0846931450285513 1.1131017780782315
P 2.4095892491422055 8.362094220069842 5.776121481703576 -1.0988691794186172 0.3701884616032077 0.029742778480071362
P 6.847258250586485 4.057630841359972 1.5215779414031463 1.0994667037933001 -1.6944863097764173 1.184076052404264
Ni 5.287352438024392 2.866940288451302 0.37972042355789565 0.3487588309745219 1.490378513986788 1.1814632973717651
Ni 1.347094552713449 1.0552734117375913 7.097652686610299 0.6246901364643564 0.04405456711705316 -0.6846354066697371
Ni 6.660705387196091 0.6698156774925648 8.971009193119464 1.8234155633506788 0.28866443678578674 -0.03657857045498216
Ni 2.920522220859749 1.7030768081703112 9.303181970288968 -0.25063859236131675 -1.500486034734435 -0.9973157467541469
Ni 6.542167998990611 1.921024206755547 2.5460254941153253 -1.983148689679675 0.9145015423703928 -0.23769103106171324
Ni 4.181078703155445 6.754266156976002 10.458395254170528 0.2987228494630533 1.641440337794031 0.5305412237940734
Ni 8.341721170634893 7.27036234724773 0.4870603071891373 -1.1082814738714526 -0.10501208063703205 -0.3383139814921141
Ni 7.586474084603495 3.8418769079996786 8.133686790609453 -0.679333020620217 -0.18624351391469862 0.26748857403911996
Ni 3.036586319058505 8.338625044823555 12.392378958964958 0.9188490207058111 0.19782890475945286 0.4317761525080177
Ni 9.276010983977871 4.71861308235407 10.243724513513909 -0.17508209798124041 -0.10716589375524126 0.0517107981107303
Ni 8.739135547007317 2.2338592861826956 5.721598074303518 -0.69976532033264 -0.021611664732504716 -0.05124208600442788
Ni 3.8335363241813822 2.7640911412373788 11.248196187449153 0.15759242583690924 0.3658049878235313 0.38038777073371266
Ni 1.1914668410129707 3.478429649493324 12.725832611506556 -0.7031051833391504 0.009548820030699684 -1.7112391037547239
Ni 3.0870450458380234 8.434731317457102 8.0256310971332 0.30582989282147977 0.2908241634412669 0.0639911581399801
Ni 5.605657640605099 7.425177664420452 3.8095851281819595 -1.6403170228228652 0.656826869097901 -1.130010638018428
Ni 3.1425225654779014 8.085528043004071 3.6178491877044814 -0.3659227443483182 1.3368985676563556 0.5569251131042408
Ni 3.1049718850838417 4.308868362371481 9.116491902489441 1.3504565088464484 -0.9781615424231993 -0.5719187582995957
Ni 7.24613493710887 6.2975199002597915 11.586024133192424 0.26566309079460704 -0.7393119722770107 -0.985783063524199
Ni 0.4916683894826872 9.362756666330494 0.406932932255966 0.8528642291745699 -0.5718624511403635 -0.6583039678640599
Ni 4.754286228728426 0.5274742269632444 1.3986193216455005 -0.9851019782967745 -1.5375693127399779 0.22815429521587158
Ni 6.105460807292384 5.735406073293613 0.5817205175632789 -1.1931085949201774 0.8639744801551186 -1.3328897036072787
Ni 7.954660311188427 9.029133313598654 11.223702492437306 -0.3355515882556286 -0.4796110126031095 0.021524247225020995
Ni -0.004847287348944773 4.697933128319744 6.053533451738799 -0.9177537307591034 -0.055225753242524246 -0.5667374712089723
Ni 7.899399430089284 9.076884058618987 2.1571493842296183 0.9259087557660699 -1.112461316280755 0.6862042938187537
P 8.490407422425989 1.6689020783693709 3.5485555451292314 -0.17275499250996057 -0.054991268634214975 1.1090731165348124
P 1.672223869327307 3.2331406617461638 1.597053906334621 0.9211920670166909 -0.6174077438703303 0.4701120719737388
P 4.711039760034209 0.9877543998751949 8.078674141171568 0.4124406854041993 0.0564007473872319 -0.1901215088128661
P 8.44177207003099 1.80267637727321 12.423359172950645 0.4190939290546589 0.32753848814316494 -0.45455381252416555
P 6.215323627262601 7.8667501966793525 1.6022324701187727 0.6263179018757664 -0.40648138249697097 -0.5134379884548835
P 1.7215723235855585 3.1479024225728196 5.890319780470253 0.423063198115052 0.04226687908901108 1.2573915732689636
P 6.708663744151294 3.8038026844655093 6.1181765869729405 0.8810154947978053 0.1347124359149422 -0.7481678800057436
P 2.6748811954838945 8.540478005153355 10.283186126369369 -1.2491321614736488 0.006010724970454164 -0.8848482382803342
