# total energy = -340889.35818102036 ev
CRYSTAL
PRIMVEC
9.07544807776182 0.00000000000000 0.00000000000000
0.00000000000000 9.07544807776182 0.00000000000000
0.00000000000000 0.00000000000000 13.28283562215382
PRIMCOORD
 96 1
Ni 6.383588347053168 1.679738342973798 11.261347528331623 -0.09686991114587189 0.7734569935898357 1.222949846651326
Ni 4.849438338680506 0.13256778955361917 6.0219725892705025 -0.67652357619588 -0.6584808597615563 0.043195047330235284
Ni 2.6967058040384644 1.5817325815127796 5.131637574857751 0.5614350851594525 0.7979842893072386 -0.9546524035576657
Ni 3.3263694521472633 4.313079370040244 5.1268557213792985 0.1602208645986918 -0.4213079059868422 -0.23138154390391763
Ni 4.9332137978940125 4.34502494651425 2.637665477972657 -0.3559797742029934 0.9123778111591706 -1.0962991046985957
Ni 7.146570324253768 6.251912674024378 2.8148055146105895 0.9830965178309714 -0.7346842436970121 -0.9408898025559346
Ni 4.986159960720531 4.767813760610276 11.41249275965862 -1.1198858908796003 -1.3899687080084577 0.7237591121440762
Ni 5.850541916882513 7.837211906546897 12.324890187823732 -0.9457995811527259 1.1230090098896142 0.7616396892399335
Ni 1.7607276396936913 6.81184058076208 0.2589316029488207 1.425317519821397 -0.4320394334717334 0.4810909395827456
Ni 2.9811484909271804 1.867155416770584 0.31668775314216463 -0.5741101095239597 -1.3127345688156422 0.32529571485557524
Ni 0.7380871161705301 0.09503445983102138 4.241222696503814 0.5904625827400541 0.07851223457429059 0.5981211277265763
Ni 8.530821160290877 2.4119364010267192 1.4308006232105384 0.1078264101573756 0.4621745622942169 1.3610252855012301
Ni 6.898284221646995 0.6333782289186878 4.696213014703553 -0.1374529747745568 -0.09817088934548254 -0.6949393596989063
Ni 1.0553838318642306 7.404757740477911 2.451360146538958 -2.006649343904776 -0.4533222541099096 0.8897315345145644
Ni 7.689200427366626 3.8758333675001566 3.8725308120231987 -0.2714904961096615 -0.24445251815526284 -0.7314569950089661
Ni 7.7658879617999625 3.771692603284471 12.859670936080803 -0.2868068147517576 0.6157046451362944 -1.1413054942059568
Ni 7.807644097412718 8.912352988406557 6.827934980000433 0.2224233062693653 -0.49868165608131537 0.43376798612706585
Ni 7.061306491590904 0.7997783805568084 0.474994420377013 -1.0876902799836623 -0.2732686710560068 -1.2666467733186442
Ni 1.8655036852597118 6.398453930651016 9.141141398826752 0.03973614224735737 1.123940263454632 0.5981427249931313
Ni 0.2727190233406699 4.88973332718749 1.5438507545922837 -0.8910448540093493 -0.229366827466734 0.5946637653055952
Ni 6.41157702825937 1.828312499921509 6.853916172139575 1.0663125856388347 0.3594430501612455 1.384357018248635
Ni 3.2612258873943056 4.584634920965014 0.24719341868419611 1.4544573746101466 0.43281256419233205 -1.231197688482415
Ni 5.677772615934887 5.120086344819082 4.662740040354385 0.842831013308284 1.2449119527447141 1.6048977627833068
Ni 5.228156777958985 2.79511996065327 9.374041894673189 0.5555624284287594 -0.3411223974751867 0.30154129274845487
P 9.347802052269982 5.533745258366005 12.723774272251426 -1.2103236732468834 0.7955625672396235 -1.3972531574850129
P 4.038746732069722 6.384151024820608 12.621549335079395 -0.4591098073259641 0.7866151282383486 0.043493809517576705
P 2.4065728113403173 8.676010175186088 1.5406099121607872 1.9343339821698171 0.6538883552948674 -1.1510646304752499
P 6.359819749102765 7.460136123331427 5.760633270003911 -0.19595894143024964 -0.026303413781219216 -0.05108113494653138
P 4.796619232124053 1.1600963492952177 12.64474073454578 0.8614717683379228 -0.9432423619485111 -0.08911906355585943
P 3.8510846211806644 6.254562704800062 8.118163268643126 0.39942036188513147 -1.1214864025975009 1.3233200576409725
P 4.736340107425092 0.9412782258961424 3.931785318658548 0.46123662386097986 -0.7232955422440962 0.21429733472812124
P 9.229095194235892 5.682664282332469 3.676781569544372 -0.5227613227383384 -0.1378221851885175 -0.9531912456311068
Ni 1.4357449272057197 1.3333284980838016 2.3154507770825754 0.051210975656176314 0.7874170553143536 0.5076278095310096
Ni 1.8886370018597802 6.547173294764517 4.663244635255508 -0.09783124661787668 0.09162023271115835 0.22055925647743305
Ni 6.112087248815571 5.564719761918783 9.277901137747799 -0.3338433473152702 -0.04589444853926935 0.5076337230682806
Ni 8.48886536482516 2.2440224646852287 10.079613496243985 0.950390542957518 -0.3003963805107343 1.7861523081238464
Ni 2.095802250204133 5.552377152826554 6.808728609690223 -0.30035112909509565 -1.3105607010927751 1.2965697861303218
Ni 0.6263057323998832 8.978830643995218 9.062453635684644 -0.5802928412959039 0.22286065091710003 -0.35254143794540577
Ni 1.3314045031370718 1.130900633523378 11.246244167999793 0.5050793320775431 0.7836102799737537 0.6606827525088815
Ni 4.083606670851259 7.063856692440107 1.7764327022187671 0.4412951477420464 0.5064242761412117 -1.5062141954674642
Ni 5.879229407574083 7.660603691153674 8.101732170289095 -1.3121689261201595 0.8907358074093628 -0.9496559787843387
Ni 5.177388722619329 2.7555419325273784 5.0783465450124785 -0.31739548617189206 0.014384807966762322 -0.6930467706618838
Ni 0.5196401785890079 7.314148469024367 6.6537172375740425 0.5750033107621904 0.3720777082061205 1.4816460192097967
Ni 5.206294024059587 4.340841165049898 7.516464705576089 -0.5470991281527545 0.3631220416747295 -1.246127313209054
Ni 8.39775694373921 7.002588343924195 9.331085984853086 -0.024238303722074382 0.32786141870022245 -0.047720446004414586
Ni 4.813245452607116 -0.09687677574699384 10.289734617956968 -0.7573454327399538 1.7982989707887092 -0.15139272478410057
Ni 8.327431298257089 7.513790171091178 4.807894568547719 -1.266440056624477 -1.2049521245223247 -1.2494260385649838
Ni 7.197347455041285 5.827898674466988 7.132404457686077 0.20727308089148822 0.28231046954330086 -0.2621926157475033
Ni 2.442529735769297 5.464181950504285 2.3217200964655986 -0.29507085453276277 -1.137006866830603 1.1729187502358638
Ni 2.128119920040478 5.494149079344389 11.438846045160101 0.3195331013401852 -0.5213166198720119 -0.07798207310243344
Ni 1.1053986250313452 3.457682107261577 3.9459448324127364 0.41524267362936873 0.08604350995432923 -0.6999136729850463
Ni 3.673786671749934 2.4195688526786054 2.8378780257099825 -0.6282405728197761 0.18153505269543574 0.5759317361137307
Ni 0.8188123173576413 3.338122157128467 8.536173859439847 1.7036960013001434 0.5744512949134623 -1.4221728035448282
Ni 3.8491243244424864 2.37893807260073 7.379996288531411 -0.32687385797597257 1.0175251318224863 -1.6927652133202524
Ni 4.092691194161054 6.639152958845211 6.074001224318181 0.9812923747426971 1.2113415729884365 -1.1167208628880574
Ni 0.7268426362695948 7.596830519027868 11.517692628639793 0.4811585595958875 -0.9314186298407056 -1.142804961569619
P 0.15923327046155178 5.472268174549269 8.067237300510673 -0.2703180730681151 -0.051792302080943056 -0.3776122648711045
P 8.733748174483708 1.577458045569809 7.813455106678714 -1.4538338820935348 -0.2787335508253199 1.2472868807347939
P 1.7882080958196254 3.3948527817134124 10.602545339772517 -0.4278883874178373 -0.3431931639612864 -0.2687430152715114
P 3.8686002355541955 6.035789958640296 3.789274468427395 0.5188529888228677 0.5150151031340163 0.3631122714827165
P 6.778479234421613 3.8774578726674425 10.782315441200836 0.662916784045723 -0.4987932419585151 -0.7416290504459615
P 6.572738831391584 7.733878857190924 10.161634671385778 0.11222633899728414 0.21639458357678212 0.6133361449041179
P 2.126685999278292 8.70465228863835 5.8505972771144705 0.44285092226494055 -1.1190785644869565 0.5380269906481573
P 6.841435616239845 3.988577656288955 1.5729266744523456 0.530782393270602 0.8986725457579362 0.9380924423164555
Ni 5.302457469604633 3.2388276820710535 0.22613656455493833 -0.15281505905292392 -1.13161834882518 -0.37782155266843315
Ni 1.7014286633638187 1.2911276655258115 7.29129376867366 -0.5260443643649844 0.5176746522440504 -0.3338423188740057
Ni 7.105993996863064 0.6986152707846234 9.114322542849953 -0.9704885992589739 -0.837466663672577 -0.6122933054619003
Ni 3.0236125114731665 1.660552846193671 9.435647849849564 -1.1919354005476828 -0.7425024541898503 -0.8264340600074992
Ni 6.14785358883945 2.1779713551460778 2.611710604632314 1.4046263100206327 -0.012173916358372583 0.5649996625822592
Ni 4.3083692125999 6.717546677476593 10.375248932980822 -1.3301033991113933 0.5216994571327274 -0.4965944345349835
Ni 8.014564308664799 7.256183583530199 0.16789941562491195 0.3925526882310207 0.05310356469319886 0.4137141527999843
Ni 7.462132721861053 3.7075654886920497 8.655042260445876 -0.3722468867941331 0.10141896396913501 -2.087073450789799
Ni 3.084408936700258 8.511817172467989 12.33778821432511 0.8240570751348903 0.21607448123320208 -0.04406176620590476
Ni 8.930621864952627 4.6879951966645725 10.30251284854657 0.5752015428159255 0.5521839988748297 1.2128394976902015
Ni 8.781176465010171 2.2579442017054343 5.6579826943271545 0.10005859328649865 0.40412753755281366 1.4353409654956701
Ni 3.6142517337756512 2.482588762631871 11.396154230872781 1.0504884741223843 1.294768471255525 0.8511199927899536
Ni 1.1729471834677152 3.503467741725031 12.89412678143342 -0.07944837323531478 -0.48030135380191474 -0.9290696699925547
Ni 3.1625848445829514 8.61824494954488 7.990861053939001 0.2834060166003248 -1.3413236933072448 -0.46975545996526846
Ni 5.51804473356486 7.777958307456334 3.585528848837418 -0.06710502117861346 0.47817196616373775 1.6143910469857228
Ni 3.1070521791157817 8.437017331189935 3.6949923632241277 0.29483688414508574 0.4540717306814244 0.27710501408296145
Ni 3.355810205011375 4.360906980272633 9.38632914353346 0.21522036076302287 0.2717625188241255 -0.2806418235916263
Ni 7.085311051185718 6.061146759966538 11.376337082921463 1.6655482865858282 -0.6609761153795842 1.4958940444883786
Ni 0.7042311579215877 9.016148885603489 0.25045967236970595 -0.5358796052878513 0.8393181150590189 0.08854725021278943
Ni 4.784594263706992 0.5803649077779903 1.5466795716908484 -1.0936963769684263 -1.1265550753696598 -0.17175020539453
Ni 5.938374101290304 5.684842389819333 0.45319065688871807 -0.10475111366616154 0.6613065021358095 0.07665666942279055
Ni 8.13070281495396 0.03259447099613367 11.333420197527166 -0.7144707448636146 -0.1749687123318277 0.09037813277394112
Ni 8.91818850138178 4.991450946824039 5.700342347222729 0.5606678679761248 -0.7027531993163704 0.47003468176858404
Ni 8.212436298398531 8.917044994951176 2.3804963269986237 -0.7134728997267196 0.04296004850129376 0.22423721954965253
P 8.515701464152897 1.7178370730981942 3.6349809642370934 -0.3170198480000282 0.07397423749462098 -1.6950586373401195
P 2.2622913412313004 3.3928198813923394 1.5923726365861102 -2.141776241649318 0.028794041413556865 1.796794875439357
P 4.97456153835298 0.8193150971691924 8.232714479101235 0.6214567171287233 0.003215164503188011 0.3326061324740594
P 8.823286543089543 1.7831621468083905 12.640450770341443 -0.849743424157401 -1.1547706185719273 -0.6515748766703424
P 6.230222353634357 8.000579043509559 1.48212500350413 1.3018642017600417 -1.1350278887273613 -0.29270363985216685
P 1.6822250156879677 3.3960507408311873 6.314938936791147 0.5663464064181408 -0.46515318530656663 -0.8168435881055868
P 6.898801522175125 3.8065604739700194 6.170593938547095 0.13763680865058875 0.7419373257149997 -1.0133005522181775
P 2.443373752420457 8.630052107213256 10.098142838143692 0.3797676206512105 -0.8101803171527981 1.2684329186847896
