# total energy = -340866.25924693164 ev
CRYSTAL
PRIMVEC
9.28659826047510 0.00000000000000 0.00000000000000

0.00000000000000 9.28659826047510 0.00000000000000

0.00000000000000 0.00000000000000 13.59187525794496

PRIMCOORD
 96 1
Ni 4.895903770598242 0.7855607570507676 7.311585656385882 -0.42744512923283157 -0.8193267595387567 -0.33756579047217994
Ni 0.46551487165434136 8.984161396699111 9.232009554332999 -0.6108347186385028 0.09713344921990368 0.21595878159094417
Ni 4.5767326827367025 6.755108556979678 2.3621047157448816 -0.0009024572096113491 -0.5178443450526953 0.3611777734641651
Ni 7.2405376094600635 7.9051051380337025 8.027715163228706 1.7547169724327005 1.0895265618614525 2.534472140326422
Ni 0.46295269925651195 3.7022044591919694 9.777247084137562 -0.6207496637593696 -0.29071514866722836 -0.6496630043596102
Ni 3.6816810775348365 2.8376686151327903 12.796219810025345 0.39353716363147706 -0.23888068049444022 2.069854001587719
Ni 4.790807340637258 9.311207519694248 9.570188451052372 0.1891825419383645 0.16893896119798002 0.07849012308710354
Ni 5.9964770769105185 6.895085449159753 9.892710143484905 -0.37390627677442706 0.4399879988948487 0.11679030421888273
Ni 6.257811232210688 5.6018059470252295 4.51583210148362 0.38396006146600326 0.423000977418549 0.7890342792028023
Ni 8.874245222358015 0.42346794173171665 11.608480637237873 0.7866264410922581 -0.6595314125132578 -0.35140218213464
Ni 3.365723152593374 8.545156047795201 3.59547265931704 -0.04177039906856677 0.41322358631681094 0.4585873591635909
Ni 5.466620939431164 2.9014211106423913 7.044233785559096 -0.19818397410602642 0.6390363778836995 0.5074375478970744
Ni 5.767766740506958 6.065968690005689 12.189751096077657 -1.0180020714589049 -1.650841833613589 -1.4146194166776025
Ni 5.865322452863601 7.533659789833702 0.3319587333555982 -1.8515992248737467 3.4123141224922526 1.1961944329343528
Ni 7.739070051767693 2.489263316657381 9.904739073919513 0.8937090311050737 0.17938638178354913 -0.49541738350774683
Ni 0.8648868774648985 8.83955049209962 1.8741023469490259 0.6668814251204257 -0.43873715720688305 1.824942798628483
Ni 3.754060822618861 2.3623805277065184 10.662785498312473 -0.24253061854220168 -0.48293210655654245 -2.484035066721793
Ni 8.348085150896551 5.392876064436009 11.23757205440429 0.29988395965069 -0.35758722789942937 1.76300132392868
Ni 2.6780134217167597 7.356675804484545 0.994188825203853 2.9384991477456293 2.8607687856426858 -0.8437100734791275
Ni 4.183092365233287 5.018319705894316 8.997141274772495 -0.7383704342993477 0.10470663358147128 0.22769072531589177
Ni 1.8344002830302142 8.896124447328244 12.981042612775765 0.8017661249471741 0.5058763740575417 -0.3469989108606218
Ni 1.800550633192997 4.139138896734098 12.206903442648121 -0.7105202448562989 -1.1828889740746984 -2.4087652503442003
Ni 0.6422704066918404 8.630063413628308 6.881566019740543 -0.13942038291357278 1.7724784101811797 -1.0164581240105528
Ni 5.129814601901347 8.584549796659253 11.727151287546471 -1.587382636717679 0.7100299354834417 0.4233460194627935
P 0.3267795976315335 5.282662718957795 13.117137706977248 -1.1299139645395637 0.5809641563313156 -0.021954392783904125
P 6.41273026062892 4.8070217408061975 10.32142501310634 -0.5756180615280537 -0.5552466969605534 0.16328999044231876
P 7.702369416333762 4.745070845315368 6.0185503917796765 -1.5002546354499193 1.0089875266651205 0.02489059259409262
P 4.157665659813726 8.837971770433688 13.646785824660622 -1.0238973538974172 0.9099095521243361 0.7241838583863206
P 5.695433428413108 2.1148183972921077 9.165762678591223 -1.1400513100838818 0.44780672360831913 -2.6034155002653554
P 4.391966528234298 6.02804222363115 6.371476406178476 -0.20679614125506962 -1.2581158530294978 -1.0195897276609989
P 8.494934125622454 1.146987723290716 7.895452648036226 -1.756201784508343 -0.8078215871126345 0.34419280887039433
P 2.5882120187192594 6.383022433515269 3.1548913747266067 -0.14452068025461565 0.04598726536339177 0.7516270421989378
Ni 8.142721321952733 5.660980149703622 9.01035331779675 0.3372816835728578 -0.32332239317928835 -1.6819881773094065
Ni 3.0096656973372062 5.0405332483938015 0.10305895035212576 3.0628441243833184 1.6107871316845486 1.3167516603948355
Ni 2.4731696422628966 8.838343234355085 10.701630409232664 0.7015164986957918 1.2036316059386885 -0.9420241732706937
Ni 6.602771202815149 7.281807251127167 6.107346056209996 -1.0362227082319897 -0.03584966270875762 -2.162985528737081
Ni 8.195348473016523 5.082991574609372 2.4797696274863013 0.36410317464107617 0.446870842057611 -0.8577015026622131
Ni 1.8862845062512101 5.3511235196710905 5.081961690887302 0.07852380453851639 -0.5863321055114482 -0.00992677219540871
Ni 7.566534346877254 3.3015620467702376 7.515993894391909 2.276101726538487 -0.7631178164473568 1.4331208179158996
Ni 4.057101089693775 4.775976643575521 3.896559026165411 -1.7693614618187528 -0.6985813273268678 0.9424736021032865
Ni 1.282469902021898 7.723775024804211 4.592219013619705 -0.35651379232959246 0.19102653712563875 -0.7533260271679155
Ni 4.834185040058284 7.63264563828772 7.817842690938944 -1.025752404828285 -0.2392025826102332 -0.05237928493266463
Ni 0.6834518256776122 7.467334906668433 11.224401801071192 -0.5555302896392432 -0.8294977865344875 -0.6009660533745392
Ni 8.258079442742284 8.539769820934957 4.822846103857669 -0.02445041973288047 -0.8350328574201037 0.17846104175580232
Ni 2.688748729045106 1.3463895562961266 1.0341211967539305 0.9100509627982069 -1.3059021192748412 -0.43946246540868183
Ni 9.039825265320314 6.485212158291328 6.233138598551562 -0.08304431811668925 -0.6278402520575639 -0.03187396589046124
Ni 4.142073461713126 1.6096367507914868 2.830399066191069 0.2950369159710338 1.5974811586042617 0.045489499791366815
Ni 0.12475244336165625 7.477875195438047 13.460862560043067 -0.19960682259548201 -1.3784257403658648 0.02766944089081041
Ni 2.405813946715754 6.894156789356262 6.753436040673592 0.5446342115520298 0.5601981274285578 0.35771629727812587
Ni 3.3017942117211105 3.4216841923516923 6.538357501525464 -1.5209268190872902 0.9737510720603294 0.4449836523372272
Ni 7.017204213318711 7.09946489871187 2.437213791991364 0.6149667385290054 0.4658327278720945 0.6064764416698072
Ni 5.657627687813023 9.121993084733123 2.2429446617198434 0.2502223307595045 0.40310758092873156 -1.013905275681712
Ni 1.9256132489290192 5.26092279295809 10.204331227144067 1.2282033817407816 2.2328380307538453 0.27857105710552665
Ni 4.059450598996605 4.679470316796821 11.39568660120633 0.1884307513740045 -0.04331280385502218 -0.4775032222314872
Ni 7.132998804215901 7.851010704480399 12.063523012288256 3.9183295932308195 0.5706532613236108 -0.8337663320028544
Ni 0.9573646780160571 2.0199000787773764 7.438384865954431 1.2800944141831179 1.2607535477626608 0.23305173251748895
P 3.759558488655523 3.5705297856550975 1.6886406262538065 -0.3869122021157917 -0.6741422204478971 0.2533338798052927
P 0.17993526620464947 3.22193875521899 2.5797110668781102 -1.6642192833617597 -0.3929424674702717 -0.7936254981179107
P 1.7749196226166681 1.7255799272572352 12.419494102182698 0.4500955196424958 0.36508636448995185 0.42008637487491524
P 4.468125918718527 2.380860857795973 5.04828105713432 0.9627068984310259 1.6921895433224405 -0.4338124662117561
P 0.5720265791558435 7.0029028523449615 8.225096232501722 -0.1264260275364339 -1.2148768398352046 0.7260499650607818
P 7.717432278346373 8.676134226479455 10.10138650194777 -0.8643467758928727 -0.9705045400985738 0.11398008846359724
P 3.4459872194090297 8.745978730299951 6.371625920406838 0.1883127377389015 -2.2067009673471607 1.393860072643064
P 5.428062984390253 5.537291950476766 0.7787629672892195 -1.5453335300664288 -2.046095208605225 0.3250761426456015
Ni 9.002121677298613 1.584562936097252 5.401247932564473 0.36827273263773347 -0.30749108257398655 -0.3767005516901125
Ni 0.3247235448266063 1.221104062207267 0.4558317358833493 -1.0382862756292375 1.326068566920387 -0.6578139156015187
Ni 5.443413730941944 0.60380067433226 4.488457996456141 1.1151599461588406 -0.6802354778298284 1.4203745739938247
Ni 8.956459474761001 4.165354962986624 4.42385670588615 0.6623231163257819 -0.4504541885334952 0.99698613132887
Ni 6.44293027743842 3.4245908975366164 12.656604166508828 0.1862190884346664 0.7587626248024545 -0.6810566881795431
Ni 6.781872532516265 2.7535134637405108 4.971908074895287 -0.208326461856667 0.538414455894563 -0.6227019023897341
Ni 2.7574788411014137 1.0780440194796055 5.493550216412772 -1.4725926507582767 2.0032966253824593 -1.1142392341167842
Ni 7.977977072813577 8.815786087728307 0.9121463748645134 -1.7715960075762263 0.7717878334175289 -0.06251020271907944
Ni 5.959906453849075 1.5864759752924416 11.06901937141102 0.08737559850219145 -1.7423417386967992 3.3663152871646345
Ni 1.3657056802087222 1.6116147961729208 10.341921463629173 -0.045502612417489374 0.8518280746005716 -0.6882434357359695
Ni 1.2756813988583846 5.956098948654765 1.4202421558284863 -3.4208666400479535 -2.7359589535534363 1.6326721046830979
Ni 7.928395925905236 0.814078042296344 3.2047195451426753 0.2932865089388304 1.117611750133443 -0.7876132304855596
Ni 5.531877863822419 1.5909149691531248 0.31852845527752327 -0.37313443160540904 -1.106500727821946 0.2337749838367587
Ni 8.563831396443389 3.6060788829327013 0.4951084736121628 -1.562922703903102 0.6624974371201171 1.9202080842913964
Ni 9.112539327933595 2.874294957782443 12.13428224601519 -0.32559242016038764 -0.8842553418913417 -2.0670579268998206
Ni 1.5885840330463643 3.380330971302275 1.0536044794311543 0.6691190562016928 0.5831547362247311 -0.14600574944057435
Ni 6.9602680807667285 0.4996041157208587 6.533220155492557 1.3548695503124795 0.28233438080270085 -0.7170377342598425
Ni 5.885140053070081 4.376903666221687 2.724871738081267 0.8053708115792968 -1.866745850707198 -2.8244732936457617
Ni 2.7383577357475515 0.7367104654077739 8.229811966983846 -0.13979396420290763 -0.8638605802850736 0.5778127551865274
Ni 2.025072713882817 2.9723707196290405 3.6633502616737443 0.800152500603151 0.32430095504247375 0.3954122691670029
Ni 5.944416408326859 5.247057902091981 7.523673910966772 1.7089613634641407 0.19957236981312082 -0.1554877207890806
Ni 1.4692512482978768 4.932214368914708 7.853779039354604 -0.11260531960325768 -0.6020646857553567 -0.5858780486931652
Ni 3.367125428896644 7.026992287647498 11.93204892926894 -0.6162175802169709 -1.152962618828911 1.8907522409241244
Ni 7.338446212542032 5.953925884714598 0.20979910816528655 4.48706892536117 -1.9711850895598952 0.07238940950600435
P 2.598566575528175 2.8886613249424355 8.738909771875784 -0.05341338262413382 1.304863907818314 0.7975196909659943
P 1.3917824474907265 0.8771823332631082 3.7542799863324845 -0.8799114631003492 -1.77059559133617 -0.7991443710536109
P 1.1849420494593594 3.4108931654351364 5.81401957067959 -0.030572987690850574 0.46197273069605593 -0.24928336388500294
P 9.217190001188902 7.090243306863212 2.9043658908792582 -0.8841347571530773 -0.08917614204603996 0.28171037406545674
P 5.55870684554525 7.757596814847323 4.044384951004584 0.7215950146132218 -0.17110665827326016 0.3299398984958059
P 7.448315953892955 1.28650957216708 12.844036503307054 -0.3851275994115432 1.1115920263019243 1.0725004596171015
P 6.543578426940686 2.1817469093296444 2.205376658029452 -0.6263204729789279 -0.08355159677041094 0.6801796848912286
P 3.601686322062193 7.227944982524736 9.906234216203133 1.1244439425639279 -0.7716924454902452 -1.7267744803861615
