# total energy = -381174.221753913 ev
CRYSTAL
PRIMVEC
9.20571790339800 0.00000000000000 0.00000000000000
0.00000000000000 9.20571790339800 0.00000000000000
0.00000000000000 0.00000000000000 13.47349867984499
PRIMCOORD
 96 1
Ni 7.451458016021439 0.13762456444313081 3.0949973939040034 0.3792839961465726 -0.5552047879790244 2.0355302886051847
Ni 1.7099805413039844 2.951721439143102 12.419615589010448 -0.7187809422031943 0.5537207472343303 -1.2063559468483869
Ni 7.254170272251867 1.1850060574279435 5.897013604792262 -0.6772285726827046 1.336409029614447 -0.9681146997101586
Ni 6.840299599656446 0.6737655843274069 11.473223584872416 0.24470757158886242 1.1133306062595858 0.30759726913454766
Ni 8.591696666517768 2.721072173119741 3.9318091331005447 -2.5671274644675983 -0.04656344958183593 1.098380669817973
Ni 8.821057132012562 6.691792955893171 5.822235556981136 0.1860699644513118 -0.04393475370973724 1.1502153951010772
Ni 4.4829729642888925 0.15519643907834899 8.094595255787429 -0.5697374343775607 -0.10309738011282243 -1.1734779651734435
Ni 6.662132132299985 5.6779580200951765 12.378952091190516 0.3738160310534659 -0.8069211867855522 -0.9399976297589683
Ni 3.8795657625314295 7.250718127978916 1.231328310140095 0.12203278356474469 -0.8127365079157487 0.21099989492377208
Ni 2.2340252476558438 2.581863304598278 6.01579590550773 1.529245880475947 -0.03743937579338068 -0.3827943232926762
Ni 2.4314971057866406 8.750670211716628 2.699779347244186 -0.10316679989817717 -0.3017608649584287 -1.1177852995968298
Ni 7.423693570348861 6.744274754560071 3.9788586375395303 -0.18913677630209363 2.0650380682563148 -0.7500638114768758
Ni 1.9674184468854363 5.866003222931305 2.0631293769959247 -1.0760017879021404 0.727058094610322 -1.8472610025097087
Ni 5.305172467206891 1.7062246083350148 9.932906268579956 -1.0301646749633675 0.1759058794341164 0.6048383918457518
Ni 8.887375124925445 7.181518745312878 8.313229218597312 0.40615073863042955 -1.181780314391552 0.35299652320495334
Ni 2.102153336429157 8.75482199056223 7.33878555038319 -1.5019435931165683 0.482051246613486 -0.11021007989820372
Ni 1.8726087565731397 3.8419235813791834 7.860291319693771 0.7387339882863535 1.1889472644536363 0.3623031453178599
Ni 9.041672165349215 4.852665395908615 7.862204267906889 -0.9838051138622218 0.48571763972147963 0.4635698999798468
Ni 3.9277392851456883 5.178087529372028 6.321590527492859 0.0915497844845391 -0.6175959486217364 0.31921325610692125
Ni 1.433136982049523 8.428175496596676 0.3702493775624251 -0.25279806190648074 -0.23521248761423363 0.5019932369530515
Ni 5.368949681934883 5.72893008100004 4.358245610849503 0.4794153516525357 -0.47325138893366886 0.25554631407557926
Ni 3.723832630090113 7.596595366974316 6.369744718099188 1.5951442829409688 0.0012444139300623728 -0.7146720622411434
Ni 2.835084991307701 2.7562932504218915 10.039373159673149 -0.06006122695795462 -1.2970680659229792 -0.23336926375790779
Ni 6.508764869400396 3.414667794722779 6.95035856193712 -1.5933812775032752 -0.14310374530243095 -0.0004370875374186021
P 1.3896123470561703 6.163265064845508 9.269106794625605 -1.2240626200995306 -1.0481204881108401 0.4510730530644167
Ni 5.917546038355963 9.072281177902703 1.293042523450572 -0.21729009880785805 0.4517384545625575 -0.7504787875271075
P 7.663511731561177 5.149034283170881 0.8422578420015467 1.696469144534401 -0.7902378125926003 0.4383543199461676
Ni 4.997397695266797 3.769014294334481 11.28573993083802 1.242166785899409 0.10575487234032754 -0.108141113184317
P 7.053605292852507 5.564635630761807 6.932964357660484 -0.27218752217668607 1.048020472197866 1.7289221228567837
P 8.120925450586071 8.716526203427637 5.187956979705439 1.1347990605460068 -2.330522210270896 -1.380181546714707
P 3.380127940557157 0.30217309249985264 10.024498560429864 0.12730534481759365 0.6761967889840806 0.18503406698762973
Ni 0.5258996585411913 4.258961020987657 10.422883374102733 3.884525243086865 -1.5127751365144333 -0.9224917596647211
Ni 5.76706937092759 8.35200738535831 5.273109871771538 0.7331778343548147 -0.9970357536198827 -0.4251049111354291
Ni 5.251475513755913 6.4654427602043905 7.955562216480934 0.5898550310630422 -0.2876830467091239 -0.46162948842402435
Ni 4.897985145923901 1.250955821618379 5.766455349532908 -0.9072368903881795 1.3828354393977862 -0.020463410060674432
Ni 6.800843892046143 4.080130741930789 2.6758233071335256 -1.0582483205734612 0.21823857876405642 0.04847197945845845
Ni 1.839854811711391 1.694579374987597 0.7871524136872047 1.8189032773026221 -0.2684586512618731 -0.424304783831637
Ni 3.1715355750084306 7.112015573950819 8.792468774573505 1.007961142283135 0.5999949477105215 0.5986710866927754
Ni 8.766844658350156 5.0541509471140955 3.3203690217628785 2.9592088694891547 0.5662139946053345 -2.2941323587879525
Ni 7.545706157532003 4.696877029158931 5.104717956424265 -1.048990292310303 -1.6994973898377634 0.6182338393160514
Ni 0.6569817191582275 3.919960453383974 1.1842972171372312 -0.39950983627514425 -0.478060380286538 0.5251910152257535
Ni 5.2277523783122 2.162809812734402 2.4659872490747317 -1.1858868803607576 0.9266844575898299 0.0726424060570749
Ni 3.667088583960877 0.10967600440932823 0.3559970848600756 -0.06845279345575954 0.8746702693060678 0.0520445273010652
Ni 8.770287596905044 8.265372372684357 12.015653030764296 -1.4025504013282104 2.1491118560787825 0.33519986134316465
Ni 7.479029141614732 7.346752178793353 1.481707271112219 -1.3204247383710486 -0.4767151791125531 -0.15357199182360648
Ni 6.596762328347405 3.3280327820488274 13.376045508122415 0.17503376124180822 -0.08395191753262315 -0.7687451899364632
Ni 8.762168153575066 1.6703591307685803 12.92479041448046 0.03285689862902083 -0.3304160668012761 0.23213333446827764
Ni 7.67596706809798 3.3942587177810983 10.82018927761883 -2.126359907094247 -0.7437952048593448 0.7016352836618432
Ni 3.7682502197354015 1.9483718162168142 12.236254255523859 0.3030579865032974 0.05410783758799713 -0.8515812486970884
Ni 1.4054185649672502 8.599770081257441 9.54918064034774 -0.47913073053258126 0.23095885454420226 0.9893496978295347
Ni 1.3983301620601265 8.052665051162275 4.766155581000296 -0.27301541739462015 -0.009531850749835197 0.8568882627322985
Ni 8.304156062876192 5.833414980994658 10.342783500680428 -0.0601905534469673 -0.02500269269192468 -0.03069948596638584
Ni 8.183238956142333 -0.14011379060687923 9.502225954804786 -0.5446696927756555 0.23709144980450134 1.2894596574481019
Ni 0.34736212131867017 1.3631643190663432 2.334930043896461 0.17491060540038264 -0.6320164949224406 0.8356653487977801
Ni 0.010434681422369967 6.5766202172295 0.17877596532030612 0.4128944851121663 -1.1704543478557714 0.2999526081050963
Ni 0.2465383353969917 7.509279131163835 2.6370193643619566 0.7554901246987699 0.5677512571854674 0.6266094649742563
P 3.0287825050334054 3.0680725097186063 2.0701091524299264 0.8665646094797979 -1.1278036030647802 -0.994606318242784
Ni 2.968485051732547 1.4930662066279334 3.792278064446939 0.2719622935397574 1.846055412237382 -1.2024864365906518
P 7.177827252370337 7.39852513716954 10.769947230156221 -0.8646056859812141 1.9156495183864362 -0.1147521907429314
Ni 6.789014544337502 8.172873317605422 7.415153425703486 -1.4676839006027498 -0.9726712087325894 0.20353058312992045
P 5.666579752571534 7.555841653117383 2.9738575087930634 -0.1526546222156597 -1.9982960868440744 -0.5720894795495051
P 6.401122408110788 2.602355233002509 4.436298132574997 -0.8479899318014041 0.6209759208375628 0.059355973360813906
P 1.5536950657789954 5.9935760638234115 4.04438033584012 -1.0163470523539853 -0.21166426798064839 1.767502040012511
Ni 3.49700373706215 6.962487095482752 4.089273861109173 -0.14586022500164555 0.3879930938847963 -0.7045938520695348
Ni 0.6114189381861251 1.6106508434236386 10.58511758463887 -1.4771725568194753 0.7058292671385329 -1.0825079644517743
Ni 4.035538243642337 3.739473145076091 4.401697520670172 0.4646551626242255 -1.8348104354511823 1.2830686663200934
Ni 0.8928579918967375 1.2041999795855451 4.763097441460366 -1.6373476557818962 -0.6583772443041563 0.5069804057549978
Ni 3.874834023447973 4.904594851491843 2.5611909441200478 1.5201678294340788 1.0354395502090619 -0.5483774806445458
Ni 1.421215577160269 3.3793178373677715 3.3177279012511205 0.9565647900890301 0.8661761157921275 0.9634124091384828
Ni 5.667353032888674 5.644743789330367 1.1208173471026157 -0.8521808299543001 0.689974045273831 0.6540763029359573
Ni 5.405072919607031 8.220697022933356 9.788901220948608 1.2146133017611727 1.2225186726511783 0.13017880971064674
Ni 4.759549557719579 0.13011822193602848 3.379369389388914 -0.7704588301934602 -0.17446220500905438 0.46217096274979114
Ni 1.950581188551502 0.454802056810933 11.89744976971488 -0.07892181130788345 -0.3669499000612519 0.5655866454339809
Ni 0.8430311223186875 4.4227491567325234 5.4463651679705425 -0.09075737049023079 0.4662613307690809 0.14331920374734672
Ni 6.3340955749071925 4.830111386658675 9.304016718657286 0.2885353674070902 -0.5285504186162897 -0.4385921469885866
Ni 1.2029111790569773 6.935293404329967 11.656354775407475 1.9282803197765692 -0.9624161066634844 -1.6604644443050176
Ni 7.353785347392109 1.9980550765931093 1.6579277290987362 0.8642339044640923 -0.3684470534320687 -0.8606179049780599
Ni 3.585608773401198 8.000919709940272 11.67073134530365 -0.49125373904836034 -0.41333800040748814 0.26112612215620196
Ni 1.884548572898516 6.27201221230246 6.808779221014898 -1.2107746447413728 -0.5411367399217325 0.7161640734056375
Ni 4.282638127841063 3.857379982003938 0.37157500096323787 -0.9548431794122331 -0.7961498072016612 -0.5955199426583034
Ni 4.799594431285798 6.255073691069853 10.641289035104698 0.8329332945785978 -1.3415052131904315 0.1372619418096733
Ni 3.827848038463609 4.7025109286123845 8.827001264164679 0.8076966314989961 0.1853264014170679 -0.02963042127192316
Ni 3.0212246105051603 4.856789557600033 10.981036186443143 -1.8981364492033377 0.706115430920384 0.5865298233445512
Ni 5.915134140223928 7.917571138614169 12.372134336394392 -1.0539265532696558 0.40986006916121676 1.354816328477041
Ni 1.9442108316531517 5.149061900325065 13.027997560808183 1.1446630978242802 0.8341296288795442 0.9845833867891431
Ni 4.1114117719027465 2.538136143807579 7.9305419953623995 -0.03147904444488772 0.03251442768793755 -0.6973734230616958
Ni 6.721619482411458 1.202073458713408 8.181620590907174 0.360115907858554 1.074867160077065 0.40096173823032233
Ni 8.717640095313042 2.7462590177351838 6.838595621243318 0.9696987563678268 -0.3050588189834101 -0.12593597527389278
P 5.465582104423297 1.2809572567798289 13.241215799682664 1.3318532919229644 0.4609252632681482 -0.382797922837102
Ni 1.2887637056957266 1.6878223779306765 7.976877136079836 -0.2850947171566574 -1.1343789422894526 1.5760522993065245
P 8.513954377490936 2.603367861989241 9.062827826025657 0.30464230027128175 -0.2971876437654494 -1.100108451142357
Ni 8.904691080598562 4.3246530250723785 12.656034999114569 -0.9949847846281251 0.04243374368417853 -0.8013377791605037
P 2.8841882914461405 0.3730304249887136 5.542485752534755 0.38904981728408483 -0.36094508862806873 0.7654410652638947
P 4.299641089100098 5.8651286797154905 12.80020114681199 -0.3420212551403723 0.41335368413677204 -0.28967256633532695
P 8.535863986476592 0.017229421923341537 1.0467214429998246 0.03595353527647356 -0.23791008905105476 -1.0395319751108807
Ni 8.752750703998458 -0.09659928190339392 7.206220448586495 2.829085595606792 2.0368132690826664 -0.7937733365496845
