# total energy = -340877.19312097505 ev
CRYSTAL
PRIMVEC
9.14117609672117 0.00000000000000 0.00000000000000
0.00000000000000 9.14117609672117 0.00000000000000
0.00000000000000 0.00000000000000 13.37903522179072
PRIMCOORD
 96 1
Ni 1.1432045998087494 3.1393631821024828 6.557292730487434 -0.22290795921526774 0.46342591820281476 -1.0993402055177648
Ni 7.659720372820817 3.2830167614437205 12.040101479264345 0.15439371639395344 -1.1089191074554516 -0.28407373209131076
Ni 7.019170753655781 2.272642588705128 4.295352630531445 -0.8086667087217493 0.2479934414289858 -0.9425247670561961
Ni 1.261527980718261 7.474346466650855 10.969296820855435 -0.3928684196992266 -1.8680085194697054 -1.4918653829449597
Ni 3.768440625507209 1.0275687246151983 12.126342075101382 1.2224073438842948 -0.30265715152045297 0.7065864570195315
Ni 3.707542111630574 0.08622414172040867 6.6910025386796175 0.4925557456892356 0.830356534990357 -0.848955638148783
Ni 0.8341396142380777 5.416137582316503 6.520339526892974 0.5681770318689764 1.1521802321369317 0.9091703599654664
Ni 6.406995344498713 7.168903214973597 11.420290445874143 -0.3906035349244499 -0.652577606903244 0.834577257939924
Ni 0.23259265030532078 2.5079455976661715 4.3217496041912415 0.09051902922717958 1.0019504173126808 0.8280543692197417
Ni 0.38503821263162996 0.5520968587590783 2.805181901616254 -1.0110269256926523 0.2027245422888573 -1.6475024848277111
Ni 3.1233752654452873 4.303491933556927 7.301180600901524 1.2216856352269216 0.5572783826786016 0.0834171280750757
Ni 7.9323193794727445 4.747085776680835 5.624372655306351 -0.46827424743405155 -1.403531277184241 -0.40285201327449977
Ni 6.433385919335375 0.35136851942211167 11.662424655588712 -0.7046193059908317 0.6824198870756569 -0.8462878615086328
Ni 2.0546164022038327 2.915148419513754 12.166627237313081 -0.08411518258336481 -0.5326413008562116 0.5911194995977626
Ni 4.563366423349612 8.198482998287814 10.250668761818606 0.3002629402566635 -0.6166610955122928 0.6037374454720893
Ni 4.7563275055204155 1.2800937089805617 4.180814610564041 -1.047396465460622 -0.4378696670002653 -0.24390693006443803
Ni 1.748286456463826 5.479348813697009 2.580842819035222 -1.3514121878914984 0.936639769030329 -0.41966394262551593
Ni 7.032352329310256 8.5559212585106 9.192105966181174 0.05921816223136898 0.9870552453684034 0.4708517783532407
Ni 2.8528238821959966 3.661013526276015 4.548122598411053 -1.1002981985556597 0.1567493611103236 -0.4436001417261392
Ni 2.3282940676125063 1.1037330022525633 0.8133772614058948 0.9247373611657881 1.0165496552830944 1.159480879563403
Ni 9.169879196969069 0.28848271390381014 10.263418873970382 0.31496322258131565 0.6132620971330729 -1.3568706399029082
Ni 1.9973926410408582 7.457682102976717 6.4012126366214455 -0.8977569759222023 1.0661542056840994 0.00953853561805454
Ni 0.5323692870392995 2.7539346412597254 9.997149217514819 0.15236280200685373 0.0073852367204776045 0.6102665048398587
Ni 6.4084122267639305 2.1376822676491924 8.046312585356235 -0.815924161615111 -0.14497730817605997 0.25598597271615914
P 0.823337486671578 8.868412356810326 8.177828511331306 0.26436468369815763 -0.3923865949668016 0.021130611331028126
P 1.2681827567768307 8.47886114563458 4.455138557109171 -0.5360295006021542 -0.8674709233441511 0.2990180121059689
P 8.339321095450426 6.540931853853331 10.692939876789113 1.1403107343928554 -0.5324081017994832 0.6787480946510247
P 1.8885303771926372 4.682466804211017 0.3649596197571134 0.35554037267272964 0.1769556608548694 0.12147896794380368
P 7.359103662021203 1.6765008020847783 10.043360604065487 0.774227296096957 0.603104954094413 0.8327049806178756
P 7.921907580117373 6.001913275461005 7.341023330199437 -0.6089256745412481 0.9961590074418845 0.8173961181749471
P 7.191902413549642 6.054219083987288 1.4416850177994518 1.4115333215531112 -0.3866741179630567 -0.19563009733592115
P 6.028139309131383 4.997106078848331 4.7889852705572915 -0.7951684171249983 0.08318367190803093 -0.048470179686245556
Ni 0.6248267966090743 4.814108878413572 11.673128058455443 0.20339765709648197 0.7428235849746948 -0.8941139798529764
Ni 2.956247146380964 3.644330880250068 9.992734029552883 -0.3440693959186526 -0.4594232248013249 -0.8053924088458517
Ni 0.9195200254224891 6.78997405019903 0.23978309927190158 0.14178322671879454 -1.2444255000265987 -0.8157472697176145
Ni 5.787598406376988 4.6129207379286035 7.570326071296683 0.7419632938569286 0.8866418398456473 -0.6432648141427502
Ni 2.2529982016860814 1.3525740927283614 3.961800262947455 0.6830179256709721 -1.3218558143906203 -0.4334370851502084
Ni 4.782818633292029 6.130803855716267 0.3126931182872188 2.3280416099408874 -2.0019208280808556 -1.5029555793208504
Ni 8.6671145222145 6.962577733630226 4.545340024465684 0.5963311257056891 -0.8089595573718197 0.6917841018993763
Ni 6.715071254836505 6.251851307045358 9.272688174133247 1.2234463266717703 -0.4015278951464375 -1.178083068045623
Ni 4.703884579355561 8.65726033458931 2.2415635047469813 0.45657341405735563 0.9885228310528654 1.298321478714106
Ni 6.188466393322663 0.6335301101878711 5.971183384422415 0.12372894032024499 -0.8892890476605072 1.3474390621763632
Ni 8.96872762118772 7.313489194257107 2.206805097487222 -0.5723103373110595 -0.18583342296047348 -0.00015118086588361058
Ni 1.9213471986902535 1.6991617771523522 8.148996328410517 1.5994220843807163 -0.46227432109687483 0.9164147002327055
Ni 5.927357844782854 7.001720248853846 5.838370325586475 1.5630900827189016 -0.18193048836164152 0.008693928229572124
Ni 7.789616482425588 5.528574045943434 12.868423649156718 0.25537327883282473 1.2986444092711633 -1.1482922099364352
Ni 8.284428334143131 8.226610396546356 7.052905349214222 -0.44023636746022893 -1.3552608722136272 -0.6338298939820955
Ni 6.3785205815557955 6.715601443038973 3.180249833688705 -0.44503147485602707 -1.5105305634546307 1.7337221153485882
Ni 8.183957669775358 4.373933835077994 3.2110354859003136 -0.1519866496143576 1.4482062514941123 -0.3805610630867833
Ni 5.080519308978066 2.903950479030584 5.843146589996645 -0.3416692711175922 0.8484478452744292 0.8831094012123565
Ni 4.415471338388627 3.0496699641262675 0.15728398673262906 -0.16745414912233741 -1.0708667806684202 1.5435934074468707
Ni 0.085551351173828 3.6134702703960415 0.38407199033851075 0.019452966518289077 -0.9190845337553848 0.036918470292904154
Ni 2.2347524145804427 8.228941396402035 2.3917566813303903 -0.12552099922366125 -0.7600828862757748 -0.4688776853460054
Ni 2.8396331653656173 8.593272103256911 8.681709323663831 -0.2533125396490541 -0.6282128049056342 1.5069315332494628
Ni 8.509666908433179 8.28419066356961 12.130650311305235 -0.6859119593893155 -0.5004410619745832 1.6364164022168783
Ni 7.402780200493518 1.371871115063032 0.13123346363961866 0.6739347324227813 -0.0897834366127357 1.9684484073550228
P 5.837463520936737 4.446286242363129 12.53772150021979 -0.0862967636157159 -0.14573064140231679 0.04897488723680598
P 2.8568002937145103 2.000939417291854 5.858746006677893 1.1221651738320804 -0.15379902023274802 2.2796804450286805
P 5.280619649530385 0.6672665339814932 0.325386555148386 0.9558510518514569 0.6091025664387446 -0.20751862124339102
P 3.9193065926371986 6.548034547531227 6.253682284579054 -1.7817585499315247 -1.136413199110662 -0.7800431314477857
P 4.828734759860978 3.411011506460329 8.98344674262935 -0.15663674679185927 0.9338488365487531 0.14399334699623587
P 3.818909057676663 6.674840939680235 2.1597371827542897 -0.43750405613073035 1.8783055305203393 0.6589763113407361
P 7.720125263198602 2.3550045836058313 6.186291707574952 1.367351227719258 0.18629724997076946 1.7289293219456354
P 2.2524497311318035 1.0878639208821281 10.712365789704043 -1.661178953873539 0.3999302116420145 -1.4810538941517526
Ni 0.7524156734155175 0.8470496969681844 6.065505693876734 1.40899975649798 -1.125021926554585 -0.2334551386034947
Ni 3.7126794524889752 4.6854833922595445 1.8611571259462267 0.12258839895789857 -3.3363007430804155 -0.3872940109352426
Ni 7.554222061705499 3.959546048969374 9.85404685108063 -1.9943934093555584 0.34654331138044187 0.9723598481397577
Ni 5.189664949279331 3.5688156261019315 3.5107124838169312 -0.6520006513538513 1.3141725868137497 -0.4767879413320176
Ni 4.6265410900265 6.855671681425596 8.151123480043523 0.5223414615921004 0.7818737568986212 0.4602308083042848
Ni 6.6911579386699955 7.87373358309998 0.43198089325466893 -0.5320072668166386 0.40195804070532065 -0.8524441109180158
Ni 8.159111953666578 0.12962370256281358 4.755404246754048 -0.4551536508916935 -0.26708645350469484 -0.6324481831432204
Ni 0.6886166644243437 6.668432975371089 8.806803573565901 -0.9002033805801659 -0.29627130259876716 -0.8365338674456626
Ni 4.289076299155328 1.4618385683163864 9.718276621839545 -0.6887026347605752 -1.7273887169313926 -1.685900110769303
Ni 2.966585816329099 6.119569350529479 9.719949457030092 -0.4172782160021588 0.06649515550875645 -0.25607390444427514
Ni 5.283279731718632 2.66374779978466 11.34531452110438 1.2808150943992265 1.1980888217435883 -0.4107571270541894
Ni 0.4204840363194176 1.3785076087697925 12.384651595579195 -0.8972036745218935 -0.0612418775296171 0.10169355778676036
Ni 3.927707333293552 8.099977686739537 0.2589027827940226 -0.970655206743825 0.8808481159820055 -1.62913349540222
Ni 5.112531706996075 5.16568764488149 10.593426293538558 0.2981037278218156 -0.23569996877361343 -1.1388529189004062
Ni 7.0507992222857965 3.9334388505857545 1.0802356095897157 -1.6570669885876943 -0.9107019661186445 0.41803257766968005
Ni 5.9580996193501194 1.8993992353432403 2.168514539857914 -0.3884558924538278 -0.6603683065922562 -2.0385598194601275
Ni 8.672471251294612 1.417595276937984 7.960284978917775 -1.1081416058594786 0.4031381770563508 1.0570746119803343
Ni 3.4206005999842843 4.663718252430623 12.061172803842107 0.021790099291897954 1.2012461364256473 1.2560453436537142
Ni 8.540271565361875 3.900283805579667 7.95437155222507 -0.5200794050308011 0.13051202468034942 -1.504098948896674
Ni 1.9844944418394275 8.66551481643119 12.64124805969248 0.31185655863153383 0.038871480254216925 -1.1466490179060576
Ni 3.6065138355326196 8.314886732257353 4.481762231931402 -0.9375514822113209 -1.2483847417846627 0.23921775211888474
Ni 7.106112477684704 8.908386719041266 2.49822669944437 0.7490315135576197 1.0946435713730438 0.6237329147574097
Ni 3.7758998250453866 5.691588635850675 4.164933645664929 1.2887335779153548 1.148621568251396 0.332257233775073
Ni 1.461354085993441 2.8597985994112283 2.121954874505279 0.38803654552822203 1.0358370427577968 0.6925736876802072
P 3.1442719935632684 6.768931063266575 11.78313022693897 0.7901251982741361 1.2234920923080415 0.25044370274169125
P 5.7382177741401845 8.424809372510511 4.208201573574308 1.3620141317770609 2.3207062526217386 0.5264063756900934
P 8.227570220016341 2.299097151773123 2.4560292032334243 -0.27502370607390053 0.22569066416672742 -1.8576809122914522
P 5.401210042064244 9.199222371622929 8.008222219479237 -0.8509333307004442 -0.32361061384366846 0.6208378525978018
P 0.8322821272942572 5.048918263875765 4.422975329688736 -0.17282081275088945 -0.8955792515445932 0.4162585164883928
P 0.4594967468451912 9.03220394666946 0.6649848964756979 -1.2264501464951005 -0.379746794715604 1.082277593608523
P 1.3608468569220502 4.377919387772412 8.6381205404802 0.8428225286678517 0.28501398451739296 0.30442324228194023
P 3.5895203895259153 2.2440489904754504 2.475442318502084 0.6415501454444887 0.8417804605565825 -0.8879397327214643
