# total energy = -340894.5730468163 ev
CRYSTAL
PRIMVEC
9.03791904795559 0.00000000000000 0.00000000000000

0.00000000000000 9.03791904795559 0.00000000000000

0.00000000000000 0.00000000000000 13.22790809354771

PRIMCOORD
 96 1
Ni 6.515164772970618 2.2375989836271346 11.558294733699087 -1.2936251016797011 -1.2345182682152158 -0.2583660429125615
Ni 4.578392928034686 0.297344828445214 5.984953438833706 -0.6091889555049638 0.11412252757873248 -0.01732974952769919
Ni 2.6816229132278586 1.4694933493789986 4.668062642816863 -0.20439010291673831 0.17901280049421428 0.1914739090757025
Ni 3.196621621862441 4.339828014323015 4.899167658067494 1.0432323067806033 -0.826007513993042 -0.9438193174979036
Ni 5.2950456885989095 4.323162091422411 2.985776909955781 -0.6728211876436284 -0.6536962938887193 -1.3842989113171902
Ni 7.164521187592385 6.162893798514647 2.714842688831685 0.5725286239694527 -0.8954239569136515 -1.1844894857925987
Ni 4.925656895285161 4.4580711104773485 11.435420607775628 0.6613031597016998 0.7575840311133211 0.3395900199910603
Ni 5.646313454029952 7.819011140287656 12.589158887414115 -0.07304966879782257 0.4102012545507193 -0.37131563322911537
Ni 2.0880846872363112 6.398521388504683 0.41178567201587984 -0.7106667977364922 0.3700797039394852 0.2056784827108587
Ni 2.764220456280251 1.7457011963233229 0.3283150659742254 -0.020838791122222176 -0.7346549331209735 -0.46639734212631284
Ni 0.5557443595091974 8.95671343998984 4.616751664463503 0.1562359118090148 -0.45915403030033825 0.06581175628848665
Ni 8.57839518256232 2.394587639149628 1.2041382357421822 1.2920161053213683 0.4675481679013045 1.09084039557687
Ni 6.672397452309985 0.604725362307364 4.694055698273552 0.3385484661004234 0.29470627210449246 -0.17302392990063103
Ni 0.8540996273146542 7.1898092853558815 2.558449632180748 0.8637446235324995 0.166035671508256 0.04497836448290318
Ni 7.607749780308481 3.7890301079610516 3.8134342972323143 0.34108743047219325 -0.24805411946359213 -0.1846869680608561
Ni 7.686171804716579 3.879797929919163 12.744692437954505 0.8105510702286557 0.4527920926380525 -0.6014591909608737
Ni 7.832902422011206 8.727087028311086 6.797054759680457 1.5486677366459844 1.0968678327178722 0.9167330028040728
Ni 7.067291253446674 0.8149473615850376 0.3421918870271463 -1.6614581756768547 -1.1342545008964464 0.20247797349568997
Ni 1.8966615597771053 6.779053936122359 9.30399457928669 -0.034080229513160656 -0.8677511735887313 -0.9823532119070435
Ni 0.13924179749232807 5.177209298806033 1.3553715443540981 -0.3375408507715154 -1.4760011622191938 -0.08748487038654609
Ni 6.404170087969367 1.793240651018102 7.051202853579341 -0.09921681411149365 1.2459298524862672 -1.983396801134739
Ni 3.554505144106522 4.263430483803059 0.34608813396990656 -0.6305807909171786 -0.6493241329629527 0.18588253103085406
Ni 6.015123820518518 5.443909254811402 4.831943615478185 -0.37623055403222944 0.9572880414082997 0.8364649618809401
Ni 4.999008647053759 3.015031750431357 9.208396893338294 0.6830559779977592 0.09197144540298999 0.737701176146465
P 0.3590783351548507 5.606591799394296 12.33503790727266 -0.6134593007455434 -0.11092073281198317 1.03490373231025
P 4.069973824536566 6.1375966628320064 12.752246330774637 0.9322262133436654 0.3544139723777703 -1.1851644003724362
P 2.5268756616529515 8.287970688805279 1.5780631606740505 -0.1249209037458171 0.8257588883173456 -0.466391428589042
P 6.246322830128241 7.846631021190174 5.895506960654373 -1.9436087226035237 -1.3500230208534556 -0.7150183898369686
P 4.788886064886664 1.2904702469846667 12.638591786169455 -0.0012819520362171472 -0.6935301380562056 -0.022764804500341438
P 4.113934263250521 6.356820429576601 8.125017910439995 -0.8577202717152905 -0.10722502912795083 -0.3027718227214463
P 4.585704604621772 1.1958341956331395 3.6260212944970767 1.0232646054094248 -0.9356205837371951 0.18855776387017203
P -0.018259308045601205 5.578312150394303 3.6759169347125646 0.6159710114238037 -0.7907116669052253 0.9055589884651243
Ni 1.4448379059555467 1.1259801185730736 2.427982750384839 0.08206189959876191 0.11365150147958492 0.4129009128700696
Ni 1.5603153988519711 6.318499652408185 5.0072792468619705 0.5503405179081877 1.060854647848057 -0.617513159099943
Ni 5.843195484651829 5.427026421851354 9.241162061609202 0.36128858801041647 1.810795046373191 0.2809706676859548
Ni 8.509282214872021 2.4389186325484666 10.115738902327273 0.9359298874474977 -0.04191412373528265 0.3984371720362558
Ni 2.47058750122727 5.0855828745292895 6.967377057315346 -0.3690936858771321 0.8278417389883033 1.3743857659685361
Ni 0.4589545720257757 0.12678483353685008 9.439871559481894 0.27961055411363456 -0.4281789220750626 -0.9545277050543431
Ni 1.491925464693151 1.2451902720757613 11.413859747866907 0.4417497187809618 -0.5920610375754256 -0.5926264231605922
Ni 4.2892066292003035 6.856481789424674 1.6520204530252631 0.3663893995720916 0.028722564745673113 0.028516876492770245
Ni 5.658740592852257 8.161331365766639 8.11378739211229 -0.6946663085431778 -0.8671279381824356 0.0015213217405328637
Ni 5.088502122412638 2.6822917192444766 5.138539657958679 0.5443084527814949 0.5819576305928365 -0.7423304473883603
Ni 0.7029856192354322 7.464480686045811 7.278325761655348 0.7513408784170866 -0.7083715739444123 -0.7537520589617406
Ni 5.201539377140319 4.568758506227721 7.10045047499224 -0.3948890496736812 -0.06910893898251969 -0.39600799376947277
Ni 7.936458899557363 7.115481438319786 8.93387823348189 0.23525516792671097 0.5480890028698495 0.8483804823716034
Ni 4.729308101892751 0.5343073190927438 10.569284279745668 -0.5271710217702599 -0.9021041971473045 -0.2065485440206378
Ni 8.00153191739052 7.224713729088056 4.835396100590999 0.6966748543327744 -0.32775883168408715 -0.8934928013292096
Ni 7.293989379322937 6.012141307201166 6.790811365136132 -0.1764877200795154 -0.06381735156627719 1.2355523659066852
Ni 2.5421858966820303 5.1214724514481045 2.5130648174097785 -0.6793692731747912 0.038580431376359366 0.2451127774470811
Ni 2.377867488734164 5.269350884473956 11.448675619991475 0.12202635580684146 0.254454109452665 -0.10259987165111363
Ni 0.9792856529550201 3.431471950806136 3.7712769233874854 0.49893568107365044 -0.11525972650696924 -0.13612217177827524
Ni 3.543876551193773 2.676055555035466 2.40437118662246 0.530940259004705 0.2167123719275171 1.030432583912774
Ni 1.038158658255741 3.2393800173303116 8.080479044900857 -0.5587361981710507 0.11934392387867189 0.31834936544472914
Ni 3.629971768954698 2.769833004068361 7.062274304530121 -0.40753219235898847 0.21848926132228175 -0.21636167345631768
Ni 4.0596344450364095 6.881516825452152 5.877926400336448 0.29420799231183525 -0.30213573179934416 0.1502717238057799
Ni 0.8489082465586311 7.441235158008745 11.330470483097544 -0.6495203081341588 0.8306516976332727 0.6803090113802412
P 0.04898913692539561 5.449639295548377 8.079566215067363 1.0011523468914179 0.5696818985492769 -0.6933542745999736
P 8.41016335562532 1.4846680156209253 7.979550794241628 1.087779497263359 0.41838764701625364 0.12791598181839905
P 1.7909630953939415 3.4350509667869598 10.302635839879416 -0.2264923341324164 -1.279448553069003 -0.6479457645581873
P 4.033885413396594 5.9530333160027125 3.8187513050644317 0.5263665235910935 1.0429967937310294 -0.4041090256100524
P 6.883044233787403 4.021620957118873 10.499228657088702 0.402734513860029 0.6720110330375072 -0.27410865045879884
P 6.316140755511734 7.734497558376842 10.260492022913303 -1.691422840359745 -0.6768135966324732 -0.34143298673707007
P 2.3564114686875084 8.358773747375412 5.718411646413348 -0.18457383952175954 -0.3159754658959139 0.7110627476233303
P 7.055912513245016 4.081732157342252 1.6575498519572527 0.007778615504154346 -0.4321595039893654 -0.08293915999739265
Ni 5.405705970591852 2.869421835110523 0.7982724007652908 0.148568367961428 0.17721945603921735 -0.8699805771398824
Ni 1.3950841610706113 0.8250472362278922 6.862163025398274 -0.9439455586631226 1.81895058560079 0.6185860804491476
Ni 6.648944052132618 1.055095718730649 9.14684685638727 0.4472989307339651 -0.5040223515679384 1.9502154292867642
Ni 2.6739768336324623 1.556890027496587 9.012332794398905 -0.4207186091422754 -0.05802285637168717 1.4277544113976637
Ni 6.545306233314171 1.8681378869602379 2.628398607391821 0.041779655039947405 -0.15057948485418585 0.08434143966155798
Ni 4.110174488886829 6.855939514276065 10.478778557442716 0.8001075062978286 0.7526238588945683 0.09875170154961703
Ni 8.193940178036367 7.270183500298975 0.16782150540788524 0.18063593791993404 0.03790680234810246 0.17072176413001566
Ni 7.469876323774478 3.825552339219911 8.315301356295207 0.4361840517677262 -0.27000285582054145 -0.7506127420018104
Ni 3.1814650314588016 8.259718153562718 12.463070877443228 0.0007638747492180393 0.8908741327594399 0.28012117520146596
Ni 0.15587247250827163 4.966029280099149 10.180846264253175 -0.3460401464917782 -0.4423768108419994 0.1900816567138662
Ni 8.463975126205684 2.168196802524243 5.651795855782396 0.9030380218154835 0.19597462515953346 0.6559056428352124
Ni 3.537296946057309 2.634923985013424 11.336489737247112 -0.04544373415509593 -0.05988484928109041 -0.14316905132272764
Ni 1.073713832166247 3.3901234707246504 12.483150422404329 -0.11921819693408499 0.23543463092736874 0.38997824263562514
Ni 3.0824817409992535 8.443594618537105 7.896862871997801 0.7537985959289598 -0.740162493202764 0.21558134364686743
Ni 5.631482228715479 7.610822672817269 3.6163380679267374 -0.321854036163878 1.118999374509589 0.3128832001238353
Ni 3.2561453573414934 8.170595232888722 3.7552707685843574 -0.2439113009398122 0.19804179210120734 -0.821438920785753
Ni 3.3317837026533956 4.673598368292252 9.283901477446873 0.14722342389775933 -0.5997985154289993 -0.08756637435675887
Ni 7.308224101973941 6.143489386113565 11.471744908605245 -0.1100082483000428 -0.7246119470626746 -1.1221119519966418
Ni 0.8254674994680647 -0.052479581298613055 0.3125583577394577 0.13438616292377503 -0.007797384557231732 -0.246278258510092
Ni 4.62470322572595 0.37923108726101395 1.441815625793962 0.06674198141223989 -0.35950012865142605 0.46576202253515914
Ni 6.179406076789811 5.516447593857086 0.29741803559027635 -1.233390582368676 0.9777373104015872 0.6938206727134308
Ni 7.704021695024981 9.003575050748859 11.102911043526907 1.057771638047359 -0.42393120254230215 0.6861055634573603
Ni 0.17350545275722867 4.614038481136626 6.031780705499978 -0.5062216732121024 -0.45959985958850524 -0.41834059582840216
Ni 8.28781704417984 8.753776003541825 2.297515868588929 -0.6545370446224599 0.897708382072454 0.5862482875483903
P 8.562352876082619 1.4898738570475778 3.5773023913540714 -0.5784519314324231 0.9152800724076302 -0.6093514492247569
P 1.7129839290238742 3.315289500216519 1.50747881974719 -0.7195350467603995 -0.09586229581696393 -0.24680044956214914
P 4.622552200969798 1.2139100339201279 8.144369902910045 0.12506180019905558 -1.606724788689717 0.09460374081951449
P 8.60581622924368 1.4769225189149509 12.305235368896989 0.7079897651249614 1.6400745677947564 0.5285337064457413
P 6.533014663279019 7.905883619094922 1.4269609018897151 -1.4232526668725682 -0.3399445751170016 0.1506134234159148
P 1.816413875702021 3.0726755987285626 5.963167534738313 -1.218804971245017 -0.5950491736694721 0.006654014981407896
P 6.962171215888695 3.816749405974148 5.930362599623172 -0.5910287396561691 -0.04306057863490003 0.8385038466878397
P 2.550898450736359 8.582787611266058 10.341631749607851 -0.24965874494655066 0.7756794551624512 -0.5345847977358277
