# total energy = -340892.5142209957 ev
CRYSTAL
PRIMVEC
9.02488493840516 0.00000000000000 0.00000000000000
0.00000000000000 9.02488493840516 0.00000000000000
0.00000000000000 0.00000000000000 13.20883135670718
PRIMCOORD
 96 1
Ni 6.575305574066844 1.941532530562501 11.458053534436473 -0.8215595055240175 -0.4435965421817134 -1.0563423618
Ni 4.67332911437026 0.38418123118829073 6.156411927781229 -0.6544640252926793 -0.6478097532009552 0.06461285088437904
Ni 2.4890993769343335 1.449558975665468 4.9310816343667785 1.1525437861239378 0.15857921523021073 -1.1658944963992308
Ni 3.20851808308914 4.187447356834507 4.7215896867990725 0.12541944064879046 -0.5519119761603656 -0.7187518887374718
Ni 4.821797497170897 4.508200793897142 2.4903800081129495 0.5336900538357002 0.19456977439220685 0.6599515307698118
Ni 6.828823618030899 6.003263239630133 2.6423473388202057 1.407530371041305 -0.9450902137905272 -0.38183041671751017
Ni 5.1051337611077985 4.78974110572309 11.334894539072838 -0.5073244193579779 -0.9445783071511151 0.6877325575378221
Ni 6.015672456477186 7.911972263521556 12.421373367120996 -1.3479013465247627 -0.01145246481131576 -0.8177488735286755
Ni 1.8959658863001212 6.461853744987348 0.3236215455091764 0.9425227101736671 0.4119732588494776 0.5381025810810991
Ni 3.0818808970543383 1.4113476126615234 0.4646759852990096 -1.1807647286428438 0.41956366960222574 -0.3425280195734617
Ni 0.5931082209562691 -0.10373383293338245 4.465073576044769 0.06982319144072492 1.156695603508782 0.006330313093402002
Ni 8.643511390204067 2.218740897598204 1.392937749791484 -0.3750830706913476 1.0641055506851869 0.3181146237261038
Ni 6.776515384688703 0.7666143421560184 5.010598090945701 0.41995344884147673 0.2562705938361135 -1.1347049581703037
Ni 0.9715108182920738 7.327665110397466 2.6175677121315117 -0.23584652165380673 0.33959464797675065 -0.64075310346449
Ni 7.5877171710868065 3.862064153777298 3.840626441996578 -0.40272088701327413 -0.6253928189583359 -0.34496542537036073
Ni 7.459103535241455 3.718902403344711 12.606720137414078 1.7704577802067252 1.1341760822500273 1.1139258166414236
Ni 7.705194098867238 8.874891391312978 7.150389294741706 -0.5175543246161023 0.23007079551229412 -0.05545689541672385
Ni 6.815800709005228 0.8098976905185405 0.30375596869191535 1.0647874072435597 -0.31347815339535684 0.8912338300917039
Ni 1.8920129866790234 6.386550104716938 9.175184511638193 -0.9814929207892774 -0.50482119332015 -0.6156344540199913
Ni 9.010824208876846 4.689276086129346 1.505965409276936 -0.9005666774568554 0.5615857518047037 -0.3593880285535939
Ni 6.220022927071972 2.306571078220403 6.975794772413408 0.08199222270309105 -1.3376449589040769 1.9546210145536274
Ni 3.4730464867283994 4.275864154980384 0.41628184457249734 -1.5417969776680804 0.32481928943978894 -0.07821141550442014
Ni 5.968409133838628 5.600672145571804 4.776788590800259 -0.6894456835741868 0.4927699185825707 1.1407383088485774
Ni 5.282490800728374 2.8419001805597954 9.528876973899646 -0.42083816543927527 -0.2806346245027747 -1.1155407265370272
P 0.2566271168395536 5.572045210416273 12.60525359360488 -1.0565573060242834 -1.741195283797182 -1.543042162929091
P 4.067732257579116 6.157570723012619 12.746548997823671 0.35181047331665216 0.397050061880742 -0.6023747607966077
P 2.4771775038761823 8.39724032887869 1.3564411149336775 0.7459693296925282 0.7828381776944195 0.5355507611935227
P 6.294054058560247 7.780560913332505 5.890927788822622 -0.8224863882136608 -0.5731305192195096 -0.02530813974748545
P 4.858853674897442 0.9811493954503668 12.52197195501244 0.2397831377040516 -1.1756523471169429 0.25080597117711645
P 3.9912192827214295 6.158698833635079 8.03123341106247 -0.44715057808155895 -0.33878757869442294 0.4393814756591013
P 4.705214033003452 1.0428074096315076 4.097207531922735 -0.2680120506427578 0.23841196838813777 -1.9617799941959118
P 0.009928275966140664 5.665317396681216 3.614227274907948 -0.828074938045032 -0.7214913991558219 -0.8658472716977991
Ni 1.60454332542143 1.2531684536227565 2.537284140329317 -0.23921081014034934 -1.1283414778461212 0.6098001067264014
Ni 1.5143125253946375 6.411891981739866 4.913024644499445 1.50683408843965 0.8178224070790883 -0.7670834859633241
Ni 5.8651463999011835 5.45379214252759 9.000339097507458 -0.47975550860077376 0.5945344388165825 1.201641314981537
Ni 8.820002040866594 2.477574598815288 10.235470416009838 -0.13145433398896073 -0.795049889269263 0.1570283258033231
Ni 2.510343956176489 5.1770259948558905 6.702597064262673 -2.3129278942279003 -0.8650589714685488 1.5856134606323982
Ni 0.7150975912265386 0.17264063473019842 9.150193702640975 -1.3295806938387038 -0.1811488730006106 -0.2143389865993341
Ni 1.6161673772752514 1.0564349859508173 11.416868471831727 -0.044328903824362366 0.41311200043961105 0.13644073145995858
Ni 4.152403728458428 6.768086142117687 1.83037392475634 -0.17294653969547635 0.05877233294320201 -1.1817512609258294
Ni 5.304502495193802 7.941835607919301 8.123629280995885 1.073463851971635 -0.9672739489764179 -0.43832063849475483
Ni 5.31456524194614 3.036873795660698 4.96093324641405 -0.3590159899261559 -0.41676810913495965 -1.5684413197284859
Ni 0.43722409016783365 7.475537850789443 6.863758045298725 0.8725622218241295 -0.5089753246978395 0.1997675165430624
Ni 4.750816776805751 4.375634258430694 6.958491360441877 1.9314941987281768 1.1077096605283825 -0.16752999666559534
Ni 8.304202789623218 7.34782670344206 9.09236494715671 -1.0863689900690774 -0.35997269741247034 1.1287942491128238
Ni 4.595976825209464 0.13333455317821907 10.377809096932278 -0.1292213308933839 0.9257133519258121 0.22347591590359575
Ni 8.034187255916317 7.373610799828992 4.633684599631542 -0.6707843597192577 -1.1734527683624631 0.11436112595209981
Ni 7.144857040249166 6.1312541584118865 7.200913308323422 -0.638415713580565 0.1375257369940212 -1.583393570162944
Ni 2.1725425113872467 5.179462713800403 2.4532895358234805 1.6009603754021138 0.5581420162304775 0.2700583916488252
Ni 2.4672050059736415 5.145068877142861 11.10895744609517 0.7459464468743927 -0.13014075738385975 2.5550751612887543
Ni 0.9991089165599205 3.6297816641704186 3.668171719896961 -0.5596556246615264 -1.497842683574317 1.1829473381164595
Ni 3.804918582085995 2.4593443311563443 2.5208787044132634 -0.15091655647863042 -0.6327127496585168 0.8777810470209076
Ni 1.3201782245968448 3.354288025280854 8.25561190640415 -1.3071023102305295 0.6611190687153518 -0.384459369699925
Ni 3.49220631754025 2.5058946878815087 6.999029338793583 -0.22462802723016798 -0.424832631310649 0.04129551631467727
Ni 3.8016244990684136 6.898965024092935 5.9248216468522905 1.2682778811641642 1.263884122971843 -0.7800680711484501
Ni 0.8890188571353528 7.301953213090371 11.323218142886136 0.07398040814220808 -0.11383996334130717 -0.5354443175226455
P 0.02389699293768191 5.622647740497312 7.973867632177662 1.9750016350925084 -0.5609378338080597 1.363530568421587
P 8.439377516848793 1.63010179968387 8.066514393913513 0.04991899631763016 1.5148878119820621 0.3006223804786113
P 2.080091589655454 3.1127730783397665 10.551465933711189 -1.0033539825284268 0.3093998695609252 -0.522730469500403
P 3.926736479541651 6.051212453527147 3.8596472895797413 -0.28971704642001717 0.2463710753342144 0.0007489623508825812
P 6.950145146812674 3.924841253695919 10.480494238231023 0.2771911460388646 0.24406196758506352 -0.8293430061241783
P 6.274939352173296 7.7456255835761825 10.106909124497369 1.442945260205489 -0.8874411958184909 1.000911177414889
P 2.1247737951898262 8.45809512829664 5.866081377985078 0.8989209143233164 0.08654230396761868 -0.38312676693143044
P 6.723431011238253 3.7732773353472537 1.6688961702575018 1.2355958175501107 1.3914519774222036 0.0405457826328463
Ni 5.287003243218213 2.9821288433739888 0.35068898054021813 0.441612164761833 -1.1257480060873322 -0.020015009669346176
Ni 1.315449184867495 1.220534469536251 7.0216565304146235 -0.08540433370843356 -0.8871354916526141 -0.12755654159645127
Ni 6.829184613430087 0.8389903097390213 9.295146892742027 -0.5789363272680094 -0.522936671973938 -0.34002556486658214
Ni 2.6622688699243406 1.5762412861251687 9.157881099666662 1.353420733681095 -0.5915727850850974 0.24458750107123034
Ni 6.3764873579646 1.7854561697239988 2.487698714785488 -0.010950071253600495 0.12303140003258811 1.401228082972361
Ni 4.124543908526172 6.721237964188192 10.434633382718307 0.1784445866955701 0.9459093672577128 -0.5632644250587073
Ni 8.332495804034501 7.373294928854704 -0.08633024473857684 -0.9734469105563494 0.19269775418047458 1.3833478602578304
Ni 7.696620458136546 3.8725691198936403 8.401556028875971 0.2740212329513152 -0.5452121955426867 -0.727847680391153
Ni 3.157157462669809 8.284754162492018 12.275349825661353 0.5795577629020922 -0.3664259092369819 0.5741237363707145
Ni 9.360610700919096 4.799415782421302 10.279007363640288 -1.1804461689611605 0.5691440237679359 -0.01450025049870406
Ni 8.442545251476659 2.3142512553381063 5.855330032508792 0.39808107424841765 0.5771422114820641 -0.31036223347419456
Ni 3.9338210142506957 2.651312659559015 11.580987810164116 -0.7068597652855761 0.2686957069733437 -0.5825890935292483
Ni 1.0815963652741516 3.3696032550913624 12.649107314698119 0.20961304187857446 0.38109945208875656 -0.24742137097559969
Ni 2.7853683010471104 8.090827434048759 7.926712608158859 0.7910181424020506 1.2561918965339076 -0.6689069401908867
Ni 5.760087713852785 7.900357236552714 3.648714970369279 -1.0995754614570223 0.7783022374972789 0.33127635791904236
Ni 3.093134928623993 8.283499703479844 3.6528366353394968 0.381718059509362 0.11090941995807352 0.33694641172062617
Ni 3.341590012114451 4.334877877862481 9.008938007916095 0.8077657941740346 -0.5115891081716027 0.35841486600704725
Ni 7.231847906568254 5.9569204552595005 11.307459791223126 0.9669186225195282 0.8039479630898413 -0.9129915334837696
Ni 0.6497835961401313 9.249153371420109 0.3641017645970114 0.7558220541168919 -0.6854643303289356 0.045708557780708384
Ni 4.803720652556607 0.05669793739631135 1.555775554456759 -0.5108560866603202 0.19405709642184643 0.18256837905595655
Ni 6.279623267477747 5.7404134645970935 0.25144863783821597 -0.9963600677090969 -0.3646251085828172 1.23530631133415
Ni 8.21278972966409 9.012466737943146 11.24442728705958 -0.4433479165060171 -0.3232514307320369 -0.2158374255217315
Ni -0.11657624425946024 4.917028083476429 5.806879937495406 0.6175298712704913 -0.4257433160503764 0.2748265024614299
Ni 8.197068380029496 8.883519181353549 2.3171987827724685 0.9498318422405708 0.9605453720033328 0.8709002607406743
P 8.506441437132759 1.6573750020924485 3.5938454746698496 -0.29530173959664624 0.13084266854689078 0.7560544818426721
P 1.7493476049203183 3.148349174929646 1.5898941321224214 1.074815223793207 0.42870959776755196 -0.543350973964232
P 4.643574068592271 0.9213866071149579 8.274791591962956 0.0001604368372642398 2.477998887830042 0.18375082939983192
P 8.594587488729248 1.7339421262600125 12.463853500720326 -0.11275238670408325 -0.2743901862549597 -0.8907977709955497
P 6.655031407977295 7.823835236810048 1.5716656694404734 -1.8710622186943648 -0.757111976572909 -2.0168316837544165
P 1.5297631284798414 3.1829505839417207 5.903818934527591 0.6453291528709467 0.42638146385500764 0.3548675149754211
P 6.953980722929035 4.089085135441027 6.091820825981694 -1.3170149413585512 0.19608081172009453 -0.09291246916002062
P 2.4039044627261994 8.394614087349604 10.089156273253849 1.0263026209048003 -0.13414653610914315 1.33189674356639
