# total energy = -340886.07437393774 ev
CRYSTAL
PRIMVEC
9.15005176542122 0.00000000000000 0.00000000000000

0.00000000000000 9.15005176542122 0.00000000000000

0.00000000000000 0.00000000000000 13.39202566010333

PRIMCOORD
 96 1
Ni 6.77988642760349 2.4603940270808455 11.485215467157635 -0.3844963935854475 -1.2672234717577209 0.09767363799408985
Ni 4.754696313998014 0.5343218495332714 6.012122051666857 0.9441363345176902 1.7128301023909276 0.2957966769551938
Ni 2.938081631035499 1.9186743606721697 5.065761474784943 -1.0953971617096168 -0.48227030460282744 0.8582059531024576
Ni 3.440639075766093 4.824392258512487 4.899699929792187 -0.19720644068410553 0.3390230917439968 -0.07083106387994897
Ni 3.3204531454526354 2.7879567312522555 2.964712856781773 0.9898652040133726 2.2641535530376746 -0.8925576911094498
Ni 4.9717355425503715 4.868870660282851 2.8847898993772088 0.1503105474635153 -0.502843757878805 -0.5374029839109132
Ni 5.221568556732225 3.200953469023723 0.5635910352117404 1.1440640307877006 -1.2430563875932141 -0.25615617974543625
Ni 5.806650318592403 8.157033272954656 12.57449619304024 -0.35195085554925837 0.6686752837960548 -0.57964158086515
Ni 2.3967554168539627 5.90625778242128 11.362463862321157 -0.41996424747475414 -1.351209327852073 -0.19870513671681908
Ni 1.1249165175993001 0.2499117046272817 0.1577725130726219 -1.1660703598554627 -0.21473390804490758 0.6715040114941015
Ni 8.007878278661572 0.234863529446961 7.276075436285498 0.8668340610911006 0.40713804224436334 -2.025615343484318
Ni 8.95427728576102 2.802203361895427 1.2709678143238794 -0.09072111793565667 -0.7837447486690889 0.4666081725855384
Ni 0.5751265055083657 0.7357163195283432 4.939488015012975 0.6964354846284586 -1.9817235271973743 0.6239041502279513
Ni 1.7713127765306977 6.956326876346116 0.4761092200201982 1.853111804863531 -0.21360493664678695 -0.08305820207376018
Ni 7.7267978376033986 4.184785338012197 3.91665862527871 0.3767645721588285 0.1651257580994769 -0.4507259541376431
Ni 7.935666069903763 4.1310653839299505 12.714469110358104 -0.12835744023119186 0.18765787776372198 -0.42649150707031064
Ni 8.154215057002121 7.525331997204333 9.2138605951345 1.1805556979558314 0.07114988067194843 0.3621910452200278
Ni 6.993128384661359 1.0227104390609427 0.323490931123105 0.36455800279030764 -0.054705104852363844 1.2147611401929468
Ni 1.7977015259044329 7.089286278963921 9.108961656353186 2.121794399210752 1.2051387866118342 1.4958153687316433
Ni 8.914941213098853 5.223069165226432 1.1635754864287144 0.5174494236071218 0.8902773797157055 1.9311201032182097
Ni 6.443191971741722 2.405576066783325 7.121638117091768 0.6017319850062863 -0.01943599723742459 -1.121902921309629
Ni 3.798360350650343 4.868824910023881 0.5414945751345444 -1.132810055140436 0.9677876553880428 -1.0734029168267127
Ni 5.91505098219526 6.038659031879653 5.02249179485656 0.06768326227958667 1.2317461047867173 -0.22985559417769447
Ni 5.813146855366104 3.2859300000340834 9.198246031748134 -1.5593131321749727 -0.9562284897955339 0.9820135691794377
P 0.36763810101852723 5.9765942305613295 12.619949075326659 -0.9653093690508794 -0.9260560799772115 -1.2383862358110544
P 4.013331667497269 6.620519975508363 12.491840115164825 1.3677569477981089 -0.05666454257157983 1.1179099981001523
P 2.7652554527514797 8.807208503276954 1.4504900005107069 -0.17299359088332786 -0.14403988396345518 1.3878724876010613
P 6.852116936464885 8.185160532169242 5.638417466308944 0.2718591923029899 -0.15599937031817648 2.6651726268684937
P 5.104603444650236 1.290047502324612 12.79168822745756 -0.5289006028668569 -0.32367951940839096 -0.15851262365833346
P 3.895689451582528 6.133435268361328 8.295650152596657 -0.6689046261980416 0.9620759497152462 -0.20654931535158622
P 4.750825842089176 1.5199425536474613 3.937041280654901 2.280237860194047 -0.1754227691501108 -0.05566438344183962
P 0.147449424638694 6.021164132849632 3.3453412863321637 -0.0142433972928916 -0.19974566216619147 -0.13162171280476043
Ni 0.6861651290434174 8.062860939891383 2.3426804407621113 0.8836986980569231 -0.587533324908401 -0.07699014150280935
Ni 1.7836470463489345 6.866839369801341 4.565944470566635 0.8583154820971283 0.6641408862608111 -0.28981037746477184
Ni 5.836287336352989 5.85287638025541 9.189259765881303 0.9814175874666518 0.667374048486128 0.6402825915859747
Ni 9.093925376240197 2.5030515685442136 10.347724033377919 0.6529187922927465 0.6389170786970158 1.1962993339433334
Ni 2.173146451113553 5.874955455234197 6.793158577730605 0.6090030647464028 -0.5507364677950257 0.6280312850224473
Ni 0.6108382426549508 0.2519530811825107 9.130455128017159 0.8089603287027681 -0.3071028459966324 0.4296999867052793
Ni 2.0951239594665907 1.5255789855525308 11.86565632064625 -1.3795367140418564 1.4062530469907781 -0.10315291594110622
Ni 4.3336109304407 6.983740431520773 1.7842061145135446 -0.05341466817571446 1.5203807167758332 -0.10666478574910662
Ni 6.1723046883820025 8.090256194962452 7.88573332225903 -1.277637210891877 0.29373670910237154 0.052516838951793425
Ni 7.096148817809378 1.2085754411513323 5.106419729931334 -0.1073175888417571 0.13812069026554277 -1.2374022746312303
Ni 0.33920706008438367 7.670598219484992 6.466004880874385 1.1622568996466436 0.549401551033686 0.5896817387099714
Ni 5.293643514713124 4.7932088819987255 7.089108767959118 -0.3770826176198796 -0.067841899344638 -0.04493696972200648
Ni 0.7925967015002182 7.738116451672506 11.53251574490125 0.13383131886156951 0.594319494592299 -0.7714435627042326
Ni 5.225878231127174 0.5987327241315626 10.442485629776723 -0.8009852809170914 1.1308817277694716 0.35027243940557096
Ni 8.500416416677796 7.889037405961823 4.285769884636062 -0.058797786864498734 -1.7342846727202776 0.9132175334516467
Ni 7.746836451032135 6.3068562000119535 7.21176612726212 -1.1746182494254738 1.0056312085983778 -0.482535385338756
Ni 2.5463587636849514 5.459378402856837 2.4725965361532496 -1.425182022684797 0.16284570381604857 0.7842895654289654
Ni 3.616978873938986 4.1429696013138715 9.577079221136552 1.2329547803828378 1.567072464405417 -1.8758640109583822
Ni 1.2032409609554628 3.7453083503490543 3.917154558085942 -0.11271330593603168 -0.21332134396809713 -1.8074428420715065
Ni 1.5623072934534232 1.3327690941505377 2.5921200027168254 -0.8591462055285398 -0.41076638302557 0.09664699650178839
Ni 1.4970857242661886 3.656113645461686 8.138374487336446 -0.6144376054984129 1.7335984452865305 1.1096472438707277
Ni 5.378180843237375 3.53305459888493 4.859818514043102 0.8161391058393945 -1.5638495865927455 0.4429866765118564
Ni 4.163667018471774 7.591422821311993 6.3743497270596245 -0.8830512942809113 -2.6851855796553115 -0.12613729265142148
Ni 8.421259318608385 7.713319811310918 0.2839032320366052 -0.08381359218254598 -0.18608899061470532 0.2687782393848209
P 0.5025848948859758 5.966593223950548 8.138628858776316 -2.3159713090399143 -1.5736017808835028 -1.2358855808763878
P 8.829809131207995 2.176980322815216 8.23502465442552 -0.793678205732717 -0.44011732538386134 -0.46023183674554935
P 2.1000375372799387 3.5474750805121857 10.706870886331666 -1.3697472387552603 -1.0380283939821606 -0.16794034473013655
P 4.1277439151287485 6.766673752813034 4.0209957508798775 -0.9355683903430211 -0.6425346208449451 -0.40265429544139686
P 7.207834350006262 4.328093449208952 10.495317113829778 0.34495822628150913 0.7752881332613035 0.3985539001197781
P 6.322996891376471 7.971278071485794 10.274950926445142 1.302766401859337 -1.0398675040734287 0.2770574486744777
P 2.342907362046601 8.901426586599197 5.935212206318038 0.2039792406315648 -0.015036068397516039 0.6123537263861906
P 6.723604459018938 4.4998033211741095 1.450798357256163 1.1765874573367028 -1.6907265856236688 1.293498603404166
Ni 3.173000060793224 1.8301384595139651 0.833576123464577 -0.3093785294046866 0.2353940074974204 -1.6628789672837814
Ni 1.4452872810606703 1.5778898316585102 7.224033601702261 1.7770673151034428 -2.0843622225062233 -1.1773585311747723
Ni 7.4832234588486015 0.8066905262784306 9.362070389077271 -1.752806128563233 0.7555209779367053 1.4983119099012518
Ni 2.8447053524782975 1.6206571737434057 9.636339531580033 0.22912000156325057 2.359222406419066 -1.175852121832575
Ni 6.565592214589316 2.5603308927743043 2.690832591480255 -0.41408644853773846 -0.809983884871276 -0.383807595048539
Ni 4.175735936787986 7.447501656645044 10.366231843141529 -0.554366094127813 -0.3664994427873946 0.08026289871681017
Ni 7.646716584302798 6.391137327085974 11.370432642428502 -0.8167983366899482 0.006576624776253189 0.6003996393481079
Ni 7.709549989971813 4.123132289024601 8.257924489050225 1.9325372952807107 0.2989930724053045 -0.016599299119577866
Ni 3.3950352176250744 8.946664442668457 12.663754033284988 0.8187341202600803 -1.3248218389974797 -0.15776880351377345
Ni 0.2241021535321032 5.146785183420319 10.169168092660533 0.34157362607999237 -0.5127347917402718 0.21510209001760372
Ni 8.918894035473837 2.6928785430613806 5.985083648615751 -1.005799872965758 1.59179105019802 0.0815394514363886
Ni 4.204485399524559 2.8209975682801884 11.615010781865093 -0.5987032254822915 -0.15861315379193971 -0.11477764466422814
Ni 1.3974508102819296 3.918024728011546 12.676328949465406 -1.1770960215420052 0.16171698952824407 -1.004737750249831
Ni 3.441224679080905 8.892999388896975 8.460827802586117 0.35043261913251905 -0.6101754877879492 -1.4561669011020857
Ni 5.862154532774469 8.386104819616051 3.832088356568001 -0.5373772728793004 -0.19536681637220546 -0.7063028643408416
Ni 3.421057964927052 8.855557376956154 3.8569700924112738 -0.9956676696277628 -0.17835896896029926 -0.14182744969316863
Ni 3.7639195556979375 2.9019755266565945 7.1997941994949235 0.2125654396386791 -0.2054679093619494 0.3888487570168722
Ni 5.146501531814707 4.913001360085044 11.357014091472683 0.5620323524238191 0.8636466645020545 0.725782313221692
Ni 7.902799083859916 0.239691096773446 2.7992149549795244 -0.43230091466323606 1.4790736304969299 -1.5612190909484338
Ni 4.889586377544341 0.4114448889872147 1.8958953067311457 0.4300864235104206 0.43561789485161106 -0.8458070652174724
Ni 6.093751493730992 6.08050221873336 0.2882366965662172 -0.18879404825069424 0.16037307390583994 -1.0259750623620525
Ni 8.058679366221549 9.056776165956782 11.724410631123849 -0.7616114071051594 0.7016175430500303 -1.0579305322227264
Ni 0.1082570077896926 5.1882166179433 5.4704948007813 0.6732780726753889 1.0800607884628626 0.8531455078604147
Ni 6.916478400783489 6.3920157320581925 2.6994171700733336 1.0811360238049121 -0.45523695463411923 0.1037841217672019
P 8.868339999312294 2.092406394083789 3.6697627777227124 -2.0555208727944985 1.1214972012307782 -1.281124140999213
P 1.8653936090760324 3.7681102794195636 1.2486444329621937 1.4209996091723334 -0.8104181441952172 2.78627621375075
P 5.110660778937827 1.2640247550226344 8.279150779201816 -1.042635553736869 -0.36861700335102965 0.13444092742111038
P 8.865283882013118 1.6978744608325012 12.697381388632913 -0.17202274232962633 1.0271891372748116 -0.759455537104421
P 6.611763375941558 8.03938190698812 1.3747852169831503 -0.8301261641471057 1.206983810240373 0.30030999144451503
P 1.8959730821713943 3.659233813123421 5.914414138590402 0.17706621829080474 0.12299334770580109 1.7977531255875683
P 7.2209006239680145 4.677186225251512 6.032049949468887 -0.3210027439071762 -2.6439777379584335 -0.2646109953810088
P 2.319583880023837 8.94574028743727 10.496816807318805 0.4958668123403396 -1.0053645852005524 -0.09994443630613754
