# total energy = -340890.20610964677 ev
CRYSTAL
PRIMVEC
9.07571020270792 0.00000000000000 0.00000000000000
0.00000000000000 9.07571020270792 0.00000000000000
0.00000000000000 0.00000000000000 13.28321926850945
PRIMCOORD
 96 1
Ni 6.189044526499477 2.3659741540568064 11.350351984512058 1.943269079875918 -0.4984291737508771 0.18881590262756515
Ni 4.611468253432037 0.2857178824454617 5.804248929481674 -0.21596675201074422 0.0017033558443519052 0.2555709966659276
Ni 2.6320467539136625 1.6993813814577556 4.7232873577420404 0.9727660824392408 -0.856347816847796 0.37040263449654276
Ni 3.5174458269509894 4.443985094931562 4.916358573957712 1.6287959095571434 0.27755598557745104 -0.3985086487041395
Ni 3.582219171603525 2.9886223372194585 2.868670488879311 1.2791114814445583 -3.2732896894655172 -0.26890525188098846
Ni 5.358435516747474 4.533997990022475 2.6524861611564785 0.3311909972940877 0.1773600953821397 -0.490689124794142
Ni 4.8138293667454155 4.726430276230644 10.928450345794397 0.6721429306296812 -0.2981214684336285 0.16849133213760015
Ni 5.706788506490821 7.80867764125388 12.297591132622028 -0.6362996956788267 0.9736047762904522 1.8990844149389035
Ni 2.0822220704696517 6.986472739271003 0.05274167546297875 -0.1692744901605278 -1.7139361909709125 0.028646974312731305
Ni 2.994412640412441 1.918931890143406 0.4678456071406027 -0.11207027303539409 -2.083290329598283 -0.03188476452373864
Ni 7.867960181154449 8.981849337556248 6.714866678823611 1.4083744642091551 0.35738591052190066 1.2628903916000058
Ni 8.77363439107755 2.6173713303038615 1.2514714796364412 -0.27127246656158444 0.20461558866398308 -0.09217636232494447
Ni 6.781289080043804 0.9309863660441485 4.841932303794116 0.8076194984041575 0.5042889749657639 -1.9732967365862593
Ni 0.7262392484840062 7.524744043460049 2.2055192256388483 0.7001625557710587 0.28710094895340876 -0.1269099091513879
Ni 7.990237226482123 3.930554009926204 3.775410187195603 -1.1174808809825336 0.630279971847308 -2.4980887166013814
Ni 7.871526935315645 3.8999053361288647 12.34155841133426 -0.13436507987785246 -0.05025298261828119 0.39613680603785323
Ni 8.150895450811559 7.554485146224006 8.905933743326871 0.3237962474919133 -0.6964167155753813 -0.14686784033055353
Ni 7.130567792241202 0.5811122872488517 0.21566247437863795 -1.0008399578573215 0.8444716342355005 -0.5235910177284853
Ni 2.2461203233882645 6.671926770521168 9.144367174933084 -0.9093829901969047 -0.052187737747148834 -0.5175502108510441
Ni 9.568793676265617 5.360305113076243 1.1181284206987299 0.34357497278073734 -1.572984201904162 -0.19364057770971813
Ni 6.523212180991051 2.1734329593246304 6.806295384726601 -0.08827779860148668 0.30263221181978844 1.037955117542064
Ni 3.381473534729568 4.223844665074213 -0.12328989460092941 0.1011788229338709 1.0401858066447955 0.5172493917811738
Ni 6.284085365115332 5.849948761296636 4.482913539266454 -0.5070565104085719 -0.045096121007690074 0.5866681486946284
Ni 5.344077742999358 2.7626734527484587 9.197739612264265 -0.4061427682106295 1.1181233996625388 -0.1907969376133359
P 0.29090555847227817 5.701533670207534 12.205126888169948 -0.24107588837354613 -0.19712519382420887 0.6549419933703624
P 4.076228236494488 6.259853218524009 12.602733757894983 -1.3443539954931363 0.2710179273486171 -1.0639499989439287
P 2.5354448931203897 8.541913354834236 1.4462235174059377 0.20087129113020244 1.6179011170215103 0.4367098423642092
P 6.5801804147564935 7.978556787282486 5.413309984138903 -1.5177787603766117 -1.397591000440406 1.0593137857234982
P 4.99034285702805 0.9746677598808661 12.672775552396306 0.17214641239168416 -0.5466738676898778 -0.05140715082738243
P 4.2777271573261535 6.152106385440795 8.20812597260565 0.4780596089555895 1.811770265802267 -0.05080011337100284
P 4.832307512985091 1.412625237750104 3.8003820041791325 -0.5644016239869442 -1.4025262329584942 -0.2916510302179364
P 0.3404144659143472 5.810759844075163 3.4895815810840687 -0.016815786005758136 -1.4096052512924626 -1.1478934318361198
Ni 0.633902971547633 0.17789753610854336 4.800688645753065 0.3830835723983209 0.3259343768808387 0.006897498450781669
Ni 1.9775428274792717 6.438172775163076 4.74552284805992 1.0165612252473204 1.3694883286669188 -1.1182524690412354
Ni 6.306620353874228 5.91166359156667 8.89071105438394 0.2566009805923387 -1.7406874909228278 1.654950456465324
Ni 8.67630647345757 2.3378757548632727 10.049658389880097 -0.00960075631455766 -0.03618724855383445 0.8854012825703268
Ni 2.4465483104005377 5.5647627154767365 6.9160143696653575 -2.126529857013209 -1.7997917532841519 0.13024591550315634
Ni 0.7412522885182258 0.15307093049035492 9.140249525154626 -0.6479174824234132 -0.7839833470424563 -0.32604107766203205
Ni 1.6971487567156338 1.261732477739868 11.314766124293117 -1.1814702393503007 0.3104077420001493 0.3340670332903021
Ni 4.19167127194079 7.0824756031822425 1.7316001531428475 0.4398864403199779 -0.5699312955559217 -1.3832355030496823
Ni 5.85828026338309 7.870229108737907 7.938490248871732 -1.0080968965300507 1.8667682193047008 -0.990561715859765
Ni 5.6112212766756056 3.155025486190208 4.660204817924696 0.08083085540513821 1.002250207941287 0.3813092541067175
Ni 0.9194692896305199 7.509224578789202 7.055687736560914 -0.2570511807558799 1.3589025827312726 -0.6531648468652816
Ni 5.212389186055503 4.670914156118615 6.800716545584397 0.7908973005534701 -0.12002346644419976 -0.06435651189919885
Ni 0.6254525776558052 7.38356229350701 10.92856923759977 0.3927226381499817 0.31808351337785223 0.12057419674134719
Ni 4.817269060961936 0.4877513626157891 10.382217828500517 -0.6767948275793957 -0.4330159384523898 -0.49261410973099673
Ni 8.332917897266828 7.467548916936261 4.230732221646556 -0.4139753768811709 0.062388589539550614 0.6347066401600939
Ni 7.423722311734202 6.330997711830892 6.611643179770778 0.28952935588924333 -0.05626216492683859 1.0094392694905583
Ni 2.930791910972302 4.95028267161453 2.488027029339235 -1.8808329249278832 3.2749560214243463 -1.155581544508997
Ni 2.3275112936620403 5.4495465727887815 11.176049337266745 0.2313290933994274 -0.20809711945468032 0.772963856003501
Ni 1.2336794570980034 3.451147762962371 3.726779808513849 0.05446419248615136 0.6602968299243724 -0.21083791542461108
Ni 1.5269882636666796 1.2548530893068257 2.504471308893099 0.06984453159696358 -0.9045881399114227 -0.4989302817570117
Ni 1.1367690221533806 3.2966791730806064 8.248135334041299 -0.17680756531277939 1.5998805120743738 -0.8573672592512459
Ni 3.8293598397040145 2.6671243743539104 7.177481046527794 -1.20482691179837 0.7899555054654911 -1.3215033161472078
Ni 4.065428141197232 6.876611265680006 6.176789594835709 1.7752233199161687 0.9177840697764065 -1.682973424040811
Ni 0.8653943923195017 0.09519512569152928 -0.07799211675375697 -0.11627428381441264 0.09775488485398648 1.2142839434462118
P 0.305435770716738 5.690116426607578 7.919282415521217 -0.08668500019307006 -0.45542233117204795 0.9933323366263666
P 8.732494196134304 1.6626792088677524 7.886287670602583 -1.4704090128433966 0.34465123656405156 0.003714472737109732
P 1.9714439501349388 3.420344802089356 10.360419787420726 0.581956602151572 -0.19861694787838696 -0.2636108362512686
P 4.156339531611195 6.204418779804984 3.813134284769195 0.81086757302781 0.5489420948987643 -0.1824814757691051
P 6.9972728345682595 4.084378224374267 10.173843149519943 -0.9820408228729475 0.5704280326866821 0.5566456341906091
P 6.475383187531773 8.00466760591291 10.252014965338308 -0.5377236004751256 -0.625647101060987 -1.6409150614181802
P 2.500167607052797 8.389686465404926 5.743119482528171 -0.2867026850737256 1.4931522200771834 0.31840155883890325
P 6.9652809556415125 4.043156348038017 1.2691373498012386 1.2585465128090132 -0.7679499477286773 0.6824468836588504
Ni 5.316079176619496 2.8345712300130503 0.3927087088578682 0.28123343442903825 0.47238724116116065 0.6627247226395747
Ni 1.5296837496358267 1.3078189348150502 6.952981552997108 0.7154336229975162 -0.7499715088733858 -0.9121759795610097
Ni 6.948372907289589 0.8916186573290997 9.11485205735644 -0.16356689825278928 -0.4820101089629054 -0.6965331865485875
Ni 2.5324771358412277 1.6252056008993738 9.233989814479644 2.191265606628697 0.5554924944227724 -0.7867364843075613
Ni 6.634752660993804 1.9183238175510393 2.397262665432681 0.6220490992970836 1.9028531379527163 0.6806905630893761
Ni 4.4560376382548865 7.076975722719943 10.351453893181937 -0.7315120166166176 -0.12393514279378011 -0.4040293214120526
Ni 8.311962082106017 7.4167521661978215 -0.09428210923194612 -0.3193181571159017 -0.4223947112931176 0.9070862237429281
Ni 7.6712804625100475 4.0659454566862605 8.04678797757221 0.9669021674592961 -0.3066652442385815 -0.2123201563970924
Ni 3.151576716263353 8.75739794529033 12.245428487478348 1.6526143521329797 0.15319969608585227 0.973858029951839
Ni 0.07676871100075686 4.727546588601705 10.20883182799892 0.09509533574395236 0.9476245501766066 -0.5938793217310869
Ni 8.642072894078368 2.5030627586492886 5.532766298694823 1.3070339188864393 -0.9542124878067695 1.3919039773579578
Ni 3.905514125115171 2.4739025013466973 11.491911284014986 -1.7100263143935452 0.6002160625823921 -0.5531440487952538
Ni 1.1920854766380664 3.3186514677988055 12.477419072318577 -0.20741911955104922 0.5617325617952132 0.4463219115326764
Ni 3.3113455209800735 8.637907143035141 8.028975988471037 0.07012452473122763 -0.11177048240678815 -0.3913861787267453
Ni 5.876377229788744 8.054511407066299 3.3437712188607764 0.43187205465593365 -0.289000994189599 0.4952196656746439
Ni 3.5473321410802874 8.35297521710459 3.6964542300043934 -1.4717241321103944 0.7333809515045563 0.2614009730841434
Ni 3.329896272902419 4.452597944038365 8.72259894915733 0.019166545626121828 -2.5484874807689075 2.2436490053264198
Ni 7.1255761515575955 6.200089665975747 11.410497624465375 1.1651877001401931 -1.2616786306800916 -1.3557190427969683
Ni 7.967602404909555 9.00127135767064 2.3224915182764 1.0271446571901213 -0.019977214452875272 0.5667295007891724
Ni 4.947814078403728 0.5457741939220228 1.7491607450677729 -1.515132066782384 -0.6202508697460801 -1.1385592989193876
Ni 5.829092778949497 5.351510749762762 0.05932156545500456 0.27526127600600336 0.7885352280791968 0.33004788482858
Ni 7.994484658918355 9.053111815097472 11.236620628034718 0.8016547961802903 -0.001866106674461302 -0.25100420323085154
Ni 0.2404936178519933 5.1348100141219355 5.580851227185515 0.06481442537222386 -1.168860006785458 0.9717785217149908
Ni 7.533302438304849 6.0811797091819235 2.237943108377485 -0.6633014210786512 -0.37504938923993475 -0.006328256210872973
P 8.669163889424848 1.7186854173378094 3.4628427232985426 -0.5338738877117322 -0.12061636283319227 0.14900571260916273
P 1.7823061467779486 3.321165439561276 1.5094385625941549 0.4195955512814258 0.6267871282027011 -0.6208411950319114
P 4.912682003701478 1.0910274420708839 7.935262926277023 0.7635926992012463 -1.6125334249516938 0.647653173018433
P 8.671677861187318 1.6505994384134264 12.317688385585257 0.24112165400981697 1.725627254155596 0.3403577513950203
P 6.435740484793609 7.760540073643253 1.268234316623023 0.22337898531441527 -0.38185329953564556 -0.9648514555778545
P 1.9931712006741247 3.4724575308262007 5.832515229316384 -1.7390350429210693 -0.9794368095911972 2.1652969504790773
P 7.304549159340697 4.184456082225396 5.779249885367143 -2.036366154242919 0.7493328468481224 1.0007124311405216
P 2.525261946125834 8.529760978697238 10.250899560538283 0.2779236533295149 0.17545645060152362 -1.0081516610273864
