# total energy = -381171.79021784937 ev
CRYSTAL
PRIMVEC
9.15298302270400 0.00000000000000 0.00000000000000
0.00000000000000 9.15298302270400 0.00000000000000
0.00000000000000 0.00000000000000 13.39631585142827
PRIMCOORD
 96 1
Ni 7.05783766025445 1.5954747563980582 4.833671966957534 1.8629082221286626 0.22227855316138495 2.2306482221913773
Ni 1.1329745301325467 5.469264252967894 9.50123010833814 -0.6303470776398177 0.5029409455783015 1.1780972091130097
Ni 7.277555014925014 8.123583530938744 3.2963644169302926 -2.918540702345832 -0.5625928529129794 -0.33211530888056995
Ni 0.7874896985369103 1.1835996785884055 9.90972315896384 0.7606156188507933 -3.159093371226056 1.2879733027105622
Ni 5.620398306720043 8.391619482372729 0.44067585382325003 0.9704220076870964 -0.2377851334374163 0.4787653767733625
Ni 4.452862113132547 5.810222019217973 5.673782164223921 1.0163059147034046 -0.7221907392156917 1.2210667706960006
Ni 5.841397078997518 6.074139128344033 3.795604716582501 -0.4683269550488579 1.6584134753132598 -0.44453242373242147
Ni 8.41482229404071 4.501473605348976 13.436772949981558 -0.5834997782689758 -0.6228654245507919 -0.8070600263562617
Ni 0.34141175420224323 2.4951763641755123 8.268018516501625 -0.338709674268636 1.9506458319559632 -2.9537455323817388
Ni 2.221996436348074 5.742554016590209 5.204106914658003 -1.47750165802412 -0.6591218357796649 1.5343320367496027
Ni 3.463790780256015 0.911120869251605 4.230061118520783 -0.29235756936665774 0.3303607880833085 -0.15049592400144404
Ni 6.644772694666951 7.817471170613714 11.703275787844913 -0.8338686619086737 0.7838637907454564 -0.5923109488027024
Ni 1.1542094504756295 8.716010349562042 0.2281646425949743 0.4082927246740969 -0.581120993624154 -0.7674308420004138
Ni 0.057215296148539756 9.21064669881228 7.704354946662008 1.539821084888632 -0.7849801637380869 0.6237367714121516
Ni 8.181137487454825 4.66677647664039 8.386401366817733 0.575734275390944 0.6106161748697936 -0.20764229130544884
Ni 5.246489802006558 6.9411096692478385 7.6710920914814915 -0.1339490753863564 0.38095547031172455 1.0552632698032083
Ni 1.5741940711404427 1.3450857560078082 1.9025317045590395 0.42884098113909375 -1.8444667275940234 1.7995089319364106
Ni 2.656250557364123 9.138713406150087 7.961778929714194 -0.17668183836819248 -0.4698364497148489 0.3122571365040622
Ni 7.639509723962609 6.053050655727454 10.446420210564323 -0.5682698486930987 -0.7213152785892738 -0.3334319708094644
Ni 4.397102141266141 4.253446074548603 7.54425554615294 -0.38674430907935975 -0.3458393433348818 0.44513071943805277
Ni 1.3890566858906406 4.611162952500488 7.106021708169145 -1.4876783414468056 -1.7299621340855238 0.32458763304495714
Ni 8.928588377565536 3.084582698439665 5.78410032130111 -0.7255943655806021 0.630943573573236 0.95618889480685
Ni 5.739030118171207 1.8731396458496825 3.243114192976849 -1.2620444986599426 -1.1817111517165133 -1.708884487479618
Ni 3.5033042074633807 4.299458119619586 9.733227104876066 -0.5307078312789246 -0.646613676010325 -0.23125478851806625
P 4.122796396541204 7.940002152783047 6.029373719544917 -0.49886060486134093 0.7077879335268004 1.109797910515979
Ni 4.633670137467575 8.855657409766533 2.4525170567431815 1.890731672098834 0.2139155259086703 1.4109802772631184
P 2.7448148199674294 2.2603016698117817 0.4267706421916932 1.3852376210813757 2.163595137296622 0.576668100059123
Ni 6.678373294916718 7.193686232552743 5.650766988705524 0.5135855697763414 -0.7455391841336451 -0.5467687413965293
P 5.857762612434342 1.510571686957352 10.688250256638707 0.8065653461080303 -0.5876086582310267 -0.2852744372676313
P 1.5027184276235739 -0.23605634445695975 3.8866595058346665 0.18213052018758955 0.8824098040421706 -0.016256313957862326
P 7.146145639336375 0.5625075480985265 1.900361532311908 -0.22809387429158134 0.7331819481198728 -0.9021476487907302
Ni 7.06097713339138 4.291348576764426 4.316065291805141 1.9178334134116326 -0.9535404014404094 0.20000611491642975
Ni 4.7437622158669726 0.06398575760447879 9.282695319059096 0.22076957271602624 0.18854722234721077 -0.7071608414657627
Ni 5.119537929093384 3.1316290305790817 5.101062633096611 -0.24793764849038594 0.10309018102397083 1.1166825534509541
Ni 5.604224985924255 8.984815151560174 4.879273043096015 -1.0662665628922476 0.4766930676253662 -0.5176592256250826
Ni 2.8406831629301244 6.031431310102298 8.03156035609507 2.233573623368289 1.3527010819062508 -0.3943450042447531
Ni 7.78357767491094 7.422922689446068 7.542621738704129 -1.1276583357361674 -1.4013787496176122 0.789199344025757
Ni 0.6452770572237273 6.770644515597158 7.634506703505915 0.7882709186742166 -0.08435198118451925 0.8574587905237877
Ni 3.6012960424603837 7.208907643126254 4.024534548548458 0.4620084690299978 0.9544747403292207 -0.16456294361747142
Ni 2.5778735647357514 8.039321170301493 2.198629786286067 -1.5326045125355348 -0.6717858044005784 -1.2149256907952688
Ni 8.926034695334621 6.3587694377875055 4.305910972568669 -0.9271680820944677 0.2352014318706401 0.3153802555140762
Ni 6.362961503958682 4.911554698508954 6.7325864126719255 2.0282298982890294 1.0776118127017376 -1.2089532752619179
Ni 0.780903212037392 5.911216032608309 1.0595630307309527 -0.554718078150593 1.4892233173364224 -1.424146125221115
Ni 6.891253371356126 0.882442743208955 12.855238181016997 -0.8231317351071435 0.2285484453304967 -0.722995237394858
Ni 7.697731848230863 1.4412012295089787 9.121632109449973 -1.106710786950223 -2.0028945048480344 1.306235077134228
Ni 2.3054441815066467 8.367345771704688 11.45350186790598 0.08002635722597186 -0.27410376536279246 0.5233511338035374
Ni 6.387482345165199 3.129066195365261 12.876257090963488 2.211596090655933 0.9518954096378188 -1.2485441501806627
Ni 6.7678437028277685 8.213758718533596 9.51119679142503 0.7875813488063598 -0.6949437305742806 0.3643379163597016
Ni 6.3083090430239634 0.0026818239916048875 7.575361958560685 -0.258714941611548 1.8582213581759546 -2.391352968405023
Ni 0.04228220453658286 7.900598561370559 10.106502223172422 0.26102816312575694 1.0256649873208015 -0.4432023920670883
Ni 4.567457459121944 0.007438629208113624 11.679523797202544 1.5714878198642936 -0.8591518619554945 1.6074899489905154
Ni 4.4686967735607945 2.7320006438983278 11.675263998957856 -0.9671770183872377 0.8365351529972432 0.884737937954715
Ni 1.7028850108058513 5.845232178835342 3.038645707828516 0.9937015470403272 -0.5099603143189282 0.03552518948980333
Ni 1.8011880472216755 1.4779870678102076 12.122460437803698 -0.8409754481567839 -0.9176370026755808 0.16570014254570817
Ni 8.73236673001596 8.681045954859208 4.8760850591496805 -1.1551565411564364 2.071008941127769 0.7274013368823536
Ni 4.520887082093665 1.863931745045742 7.573272332563131 -1.341570262100412 -0.5731796272898902 -0.25427747466548467
P 2.4236274967953917 2.382649592322985 8.372871427485343 1.903168098089974 -0.174497429122364 0.005790124319215834
Ni 8.557508144570159 2.3488476264492757 11.508306268356948 -0.8015470669578324 1.2446458435675207 0.5233868721374793
P 5.978911494184794 5.028200312669408 8.98210952981301 -0.45176005182911233 0.4409272228796664 0.23976256887876124
Ni 5.212660377184129 4.961722197819489 11.193626716031432 0.5731960823501224 0.05618991692800645 -0.08389432482181035
P 8.786351023198504 9.547751059258722 11.9781151514733 1.6347523842508944 -3.1435752209857992 0.14037477640704213
P 8.978371451593995 4.487744130989224 11.08999298237086 -1.5043077224733705 1.7195154848309033 1.3292675334736592
P 8.01348229955644 1.3447470956402676 6.718855107715592 -1.0473262743443188 0.5115520842860803 -0.061562236983513326
Ni 4.865625030284131 4.5610503710873935 13.663170151577287 1.208343666702377 -0.6553130035565359 -1.4283421655803334
Ni 3.4984714324887483 0.2986709852220446 0.5836060889963028 -0.048685638131161314 -0.1318374283599923 -1.6645167599975206
Ni 7.488586188817309 5.748109877214456 2.0676405326128355 0.17415187285748718 0.17312574558581798 -0.2164650318034014
Ni 1.3320976732634828 7.763624172174767 5.799868164954139 2.426320485619144 0.744215323115899 0.09343543154302619
Ni 1.2932432608253848 3.5904314517503666 12.766313290887174 0.847026025226238 1.1816113929138552 0.4026195855487195
Ni 7.215104212553955 3.17563657239354 1.735117240111096 0.903350925070212 -0.1682049112454329 0.5923436018128508
Ni 2.6333497941320565 5.4449722363340385 11.728246955810429 0.2923061473034321 -0.9353040809380408 -1.0888308213460087
Ni 9.037399038358023 1.9503359036831145 3.6070788970607115 -0.29770366416991956 -0.8894582262485198 -0.8696525043765023
Ni 5.04765955432863 2.276749580094765 1.09617770825183 -1.4819085288425637 -0.8311476634330848 -0.8190819905178023
Ni 4.420661919267475 6.729547622346967 12.65890212118109 1.293245092632463 0.9277735768889507 -0.9422602005408999
Ni 4.395948865419922 6.989272665301848 10.07921351993498 0.16158663459796688 -0.39602804837413086 0.4055727546397725
Ni 0.8046094377652303 3.5622951822957822 1.7075878134232119 0.8069337851910425 -0.8944736771852402 -0.4839446069814569
Ni 8.105478930749685 7.864581573633476 0.03266608069501257 0.007369038770561503 0.16914850610562482 1.1750450525502474
Ni 0.052168341373894936 8.13468609920433 2.2471653087443713 1.331754818671887 0.030448546297844332 0.3863283045878637
Ni 3.1563146254779157 2.924259049849388 2.683697607205848 0.6289746227723232 -0.18980577734466023 -0.08859815805538289
Ni 5.247185428707452 4.139363295601971 2.696155732239887 -0.6305543085546172 0.4153468033074008 -0.4761919596192315
Ni 6.7356068970310705 5.934501221122449 12.861280065033577 -0.278101830778592 -0.6042244124108368 0.8360461291759667
Ni 0.5515614958406416 6.604499569878346 12.046570310631024 -0.71386139341439 -0.9082691883074357 0.21041522606489566
Ni 2.9604407912787876 4.839154603718529 1.1874265407416136 -1.358647786407989 0.47240755287613484 0.25321200951544776
Ni 3.2784886413138956 1.2697292477385829 10.44019069039816 -2.2394632493798463 1.4761446297755934 -2.585717054544327
Ni 1.7622054930228865 1.0567027235726711 5.953389316648305 -0.9035512140064762 0.4232804563321807 -0.33434008444603064
Ni 6.944853239256598 3.4140168592104607 10.149169768289369 -0.5849804765795602 0.7962225694211255 0.5142867096084239
Ni 8.858925024664154 1.5756310894567636 0.6711269115482683 -1.1130254163143414 -0.0038450847777030555 -0.3229125593353794
Ni 1.3111098834588755 3.3510626427795445 10.37357070431319 2.720044339205709 -1.246433531595563 -0.5601415631590095
Ni 4.98709426643631 6.385331394182171 1.5719772186804881 -0.04675936764272592 0.7836835564138503 1.0764231917102751
P 9.057352541094195 4.488137709254203 3.236697036661101 -1.5884874397460838 0.08432447038069349 0.7404453145505054
Ni 1.50607757235026 3.408287091910991 4.355745303301406 -0.17927633856824607 0.6969985562207802 -2.2032893705624508
P 8.62189022633449 5.350348699046629 6.216546728193125 -0.5428508943993618 0.025507914463117363 0.7368624822952535
Ni 6.602733044177391 2.8640964932049546 7.709606012955468 0.016262227495133286 -0.41472022546699544 -0.8883711638319282
P 2.2892434017621395 7.341964555638064 9.661476871872003 -0.5086909606882014 0.02633015325409659 -1.320349919269055
P 3.6504201017195763 4.504091358460236 4.196556624591535 -0.29741492928490715 -0.583536287933866 -1.1265260219039372
P 2.5058853541761192 6.860490195807374 -0.08607831244590103 -2.1580148149953673 0.7402411689594993 1.649940147734926
Ni 2.8640232693417027 3.2443663210384583 5.989733981173441 1.4424007005559287 -1.0447227752832007 1.7863988769170138
