# total energy = -340858.36409370316 ev
CRYSTAL
PRIMVEC
9.44652148496758 0.00000000000000 0.00000000000000
0.00000000000000 9.44652148496758 0.00000000000000
0.00000000000000 0.00000000000000 13.82593906227493
PRIMCOORD
 96 1
Ni 4.973527290476997 9.14853069670233 11.652528575233099 1.6423487085409132 1.9115244404744693 -0.831044305086001
Ni 0.7851589460462801 8.81905493000219 1.8029158051939669 -1.2837656923871181 -2.9222734299153865 0.9711635138388114
Ni 9.206664588217688 4.770748266221443 8.100203005620617 1.2319345666484396 -0.4222741265548534 -1.660511238382553
Ni 3.814117956507877 1.232317584654127 8.222935987766236 -0.39777202764843106 -0.2811799554832835 0.05524760761939517
Ni 6.886740677298088 9.068556448153577 7.03202439487196 0.6076288101066954 -0.08643508896579308 1.8307694326125887
Ni 0.5851921511544123 2.543381370099938 7.4629378509580375 0.7249294783030935 0.6395117748582213 -0.5182143267976043
Ni 7.384043339783385 0.5579134318614484 9.954717598958098 0.2144963381128048 -0.7685251035058571 -0.1644852963020006
Ni 5.662858836082898 7.815239246853588 3.837706864616912 -0.6617957830674022 1.9274763358180353 0.15401962088398635
Ni 7.215073414932034 1.0558093358786205 0.3869172282109357 0.36992929440455 0.9622027051010978 -0.3165279959652742
Ni 0.9461163316088221 3.8766822664698886 3.5826602385163024 -0.5393598505269679 1.3101210424521954 0.12541944064879046
Ni 2.12385191672188 7.495115536149582 6.638150748443293 0.8194085206192857 0.30852955114082986 1.5029100707948957
Ni 5.193801272010166 9.097916236068711 0.5840840742166885 0.45270724623373 -2.5085052839490154 -1.8524345762908483
Ni 9.248418211958002 0.48917109702926426 8.024242583933235 -1.8122274079443434 -2.0316895747028556 -0.26780893349301615
Ni 2.0112021513139102 9.352046549612124 9.570563478200565 2.003679719753491 4.033442252636964 -0.804883073309601
Ni 1.9398998092342998 4.663454678338532 0.7651786090387837 0.32960256976104524 0.6054996795788347 0.7005165966763677
Ni 7.587955946583924 4.7641073618120675 5.805953794692825 -0.8475266190117403 -0.23169547559991063 2.2808194437291296
Ni 8.06540202148955 5.973753295566478 12.479001881783507 -1.1217607393048101 -2.2986263900035637 -0.673102466329473
Ni 9.11095243533605 4.271112312997718 13.662488509008128 -0.7822943893758075 -2.047671551953409 -1.460774060856794
Ni 0.44949948656324246 8.045441522176592 9.654666801169428 -3.511490056063481 -2.5266904394984744 -0.8911536116730717
Ni 6.362628787623876 2.682736450963533 10.5842120452748 0.3765537416996031 0.6088963639652094 -0.47694966372086245
Ni 2.5271050140581828 5.505697062741817 5.107190842312642 0.09771503275498655 0.07927199555845058 -0.3624730952368209
Ni 3.0193821272607084 8.086174921626416 4.4140693523980055 0.11112924927836344 -1.062772947916692 -0.9438581411556389
Ni 7.482239927742784 2.2502558170090117 6.9007338091638175 0.6566718315772755 0.5671457623909846 0.061090439553417364
Ni 1.8984106880878173 1.8415709699779848 3.0589195971255734 -0.6012409043024807 -1.1580536601985731 0.5904669536154283
P 6.085883502307995 1.600439069617076 8.586529755114087 0.1728524373197733 1.0507949496192097 -0.5513540467743666
P 7.688674755705917 8.114760094802477 8.763778611152318 1.1178729742146294 -0.08227735804367767 -0.44130337527216257
P -0.0942772263101114 4.866913852121077 1.7502949034557234 -3.9852098999931365e-05 0.42523346629349346 3.088045049128979
P 3.65291307208968 1.064991354493006 10.373504555769191 -0.062478835260511754 0.35681255451693383 1.823513522381124
P 8.025537701990881 5.299262234778683 9.669613087025068 -2.1328784249390558 0.6280158584034797 0.047203140048363866
P 2.240686491025089 8.576723321447838 -0.05950930500327429 -0.46477189070774794 -0.18183484332404168 0.27839262254613345
P 5.0288177791086826 1.4819513541024292 1.3523772012978208 -0.8527266751554411 3.6817757610973434 -1.0928036899508276
P 0.08561760031854025 4.062410319944613 5.832458843898836 0.7555806275300471 -0.863667490437661 -0.4375541926423755
Ni 4.452750022789285 3.751733130448822 9.19390328271751 1.2435803784174841 0.7243129277650171 -0.5447954197202424
Ni 4.020259942313555 7.504089731297387 13.240838311618825 -0.93704214667507 -0.8814646665200819 0.3554997492427813
Ni 2.6175082220208052 0.7690101180408357 5.313902453347176 1.0653805607428684 -0.5103089559075986 0.60524231215239
Ni 3.7394054202721008 3.1344218625343565 11.427649414610922 0.0385763176113013 0.11234152441890974 0.21630973717245972
Ni 0.6261881638938258 1.9676347955016205 5.0900605207536636 -1.1326408765524234 0.8664869621643271 0.4071516690911182
Ni 7.116999631748341 6.359757045176579 1.6544117685402153 1.7960857651874744 -0.6280497969652088 -0.7940664423100712
Ni 7.268370687588785 0.312704412947074 4.9618117148745675 -0.14925202429201392 1.0137317262183252 -1.4127342838397476
Ni 3.599426869008764 0.7981054033621394 12.981643718055686 -2.8977296791377514 0.48056694875847555 0.8119500074587114
Ni 4.66521173128326 8.548506562598899 6.29954019573481 -0.6037868106527859 -1.13168211218358 -0.280403225218259
Ni 9.198861761699701 7.012530553706686 7.002451115577519 -0.8418287972960147 0.5044244721023635 0.057951379703803416
Ni 5.535529176717361 4.9393970093517146 11.72063515918797 0.46509353571322476 -0.6000826223283214 0.4305708193460069
Ni 3.1236622748781993 7.544870363353253 9.001515431790994 0.07081435170940062 -2.0765509539919207 -0.8425546197184457
Ni 6.5572271245131155 3.353722852383079 1.897803276774129 1.0036584011427232 0.6770977035317951 -3.5238166959496344
Ni 1.5890371185187602 2.101199158864579 11.214122138524662 1.5542364889830136 0.08474767396104115 0.6107403591524837
Ni 2.316608181975517 3.389421256028925 9.37845241034545 -1.9772726905148719 0.5412678661829582 -1.128294940878902
Ni 1.4802604268061588 0.9942085710798473 0.7710080572763733 0.5750333926691774 2.3088668367846497 -1.9260835692355667
Ni 7.435696917749906 3.041675917312097 3.9648919922079626 0.4875876030506828 0.09580290333393823 1.3802946752538034
Ni 9.301639912445086 6.650332037541287 0.4673335739522325 1.1739474486106944 0.344991907732922 1.1106733711423968
Ni 2.9912126010178097 7.205541875032944 1.9688552860417219 -1.324858605772686 0.19582704383807564 -1.5878518630446137
Ni 8.002318152861088 8.142419508900131 3.3470658888876494 0.9842679124312532 -0.7139210430077317 -0.08741082261550108
Ni 5.507010129189759 5.068625419480103 3.3056712329532494 0.6244196564117891 0.574160760256237 1.2756782873932933
Ni 5.375287837462401 3.9563258867763533 5.665289425989772 0.37234587426584265 -0.23469492454786675 -0.12663994331945286
Ni 2.03513018953432 6.883566646172127 11.187645428882275 0.6601194238062438 2.252512626364637 -0.9160745432844676
Ni 7.263439603518097 7.7081534824372575 10.948829815521622 0.7359453697976228 0.18172068634368058 -3.124478609365664
P 0.8490013703277629 7.199732264489891 4.95390308731905 -0.4616616272135404 -0.7054356312445399 0.7828142664350196
P 5.056156011485259 6.372056415789675 5.227075698313984 -0.9647103020142999 -1.199683419924218 0.8763998504026647
P 8.87898366054711 3.938254691705037 11.057515820630625 0.859552696938339 -1.3644991029824436 1.0684563714547146
P 3.6348418770183635 4.957836618750151 2.30291733878845 -1.236972129072347 0.3875004705190939 0.3044582092849337
P 7.422764630215859 1.0671640543708956 12.122555352381793 -0.7304141555667485 0.1534004992427487 -1.6761450882650681
P 4.6813558360281 0.531786243503766 4.2574346949403425 0.2882443185292326 -0.5434077953440963 0.6507181850970019
P 1.8196550407749248 2.80815791304501 13.366018887409492 -0.096708188757027 0.4566122377150911 -0.8377641403083379
P 1.6986923367037257 9.887673748639152 7.234698562742102 1.1958918140922694 -0.47004470907091306 0.2510934205105482
Ni 9.46371387681444 2.0011699457907857 9.654542107089481 -1.0905550031259672 1.3608334812053984 1.2780915248204763
Ni 5.094877301917733 6.944175526244038 1.9439126914435498 -0.41094481758496326 0.028577040306744333 -2.101005487489859
Ni 4.514492485406182 4.669519344954206 14.213064827847155 -0.5321617901166319 0.31550829645150824 -1.1183987648111127
Ni 9.356618665876901 1.7600002593450441 12.775900375444994 -0.9927263276112516 0.14214498093358743 0.9798381587946737
Ni 8.564934062979987 8.628972030250479 13.159597284576051 -0.23207291354398743 1.1541910919193734 -0.5881308492830839
Ni 5.4608166404815845 2.024814588374949 12.646448082763973 1.0858473132376525 0.5466718108073488 1.2096083923474137
Ni 5.397005389720089 1.3236937843011953 6.451569674103467 -0.7722645159436312 1.096837236590253 -1.5723172577441245
Ni 3.513945298595622 0.040588867675339486 2.310272400201167 -0.4500646664045604 0.7872928710316635 0.5581569286288129
Ni 5.077854670700529 2.78878309804696 3.3295350348294432 -2.1667894758642037 -2.1140378951937846 1.580084303284053
Ni 6.516219775948252 4.268618431398749 8.26182826023258 0.8102219690240111 0.5219298279759785 0.09637060291195015
Ni 0.9589919400156199 9.30627815435832 11.731281388589627 0.8511079086050954 -0.9860995663233534 0.7569582246038641
Ni 8.810250772236133 2.449294018866112 1.4830254235638036 1.0454645385452317 0.15647553862364663 1.0730794720490229
Ni 3.140590440883321 2.56073462955943 1.3045031764667057 1.6266446675420951 1.0831605104341087 -0.29823408275209284
Ni 1.132817376767993 6.599141339113967 2.9541746806646385 -1.7248402394779263 -1.3134999862267571 0.3155399210203921
Ni 7.028325137166822 7.198948203229611 5.532739619004575 1.207523484793927 -0.21631307960656943 0.8104464263299913
Ni 4.736788022477908 7.129280109319021 10.984777607327366 -1.0149018352670263 -0.8946048034464658 1.0835713727192824
Ni 0.7273944135101632 9.188905128346244 4.173732849122828 -0.21532834709579693 0.27207696474075077 -0.27879577152182305
Ni 5.3471277577407115 8.350526371117118 9.042910087725394 1.0315175894468365 0.530364331896577 -0.45924530446256395
Ni 6.353966327675943 0.3728636386094735 2.4224148874202553 0.9936136153122113 -0.06646815892556295 3.906956832617503
Ni 6.4001314768204915 7.417181736181804 12.85542685888848 -1.9110477579483667 -0.08041125136921635 3.264510143500675
Ni 3.2726905934590063 2.926966810280736 5.033554264842481 -0.9057829315504723 0.6234369807835457 -0.8268901737083114
Ni 7.985720615098254 5.584377137885044 3.8432793674776384 0.9546966265320396 0.46670844560882846 -2.209870623324394
Ni 4.252559345344783 5.496902351496968 7.12136770315502 -0.7221969098632788 0.5853926244163145 1.1732717626999085
Ni 1.239903141184324 5.040087478910083 12.071274912002995 -0.3631294978738972 -2.029812669395117 0.21762125689503167
P 5.1936690207132505 6.0804423060920625 9.340431107134503 -0.003227762908678312 -2.0296278070778206 -2.4485253038509573
P 7.71131806704201 8.554779052681154 1.2610661826470893 0.06994480462025374 -1.595196219224827 0.20667992739217952
P 3.507776720246657 5.5756296592462355 12.161889722040682 -0.45744450380839924 -0.6901835901814758 0.5937001158407452
P 3.7014681910999077 3.211042596054192 7.060809834297633 0.5313652623572654 0.49855001559945755 0.7488039709278459
P -0.13419822493603004 7.299922068424225 11.585224000928802 2.445018576249279 0.7479637344147376 0.12600770905209266
P 6.561950385117223 4.5498791538521575 13.768339613102544 1.7777946801877704 0.5420744212446534 -0.5457079042321827
P 1.8456046345338928 5.5524856822861075 8.41203267070381 0.5489611210621578 0.9606543867773714 0.08287513952867663
P 8.675675631103896 1.3691221047915036 3.413859406394579 0.532941862815766 -0.9232183534181003 0.23571796649574242
