# total energy = -340897.17476301064 ev
CRYSTAL
PRIMVEC
9.06076709120294 0.00000000000000 0.00000000000000
0.00000000000000 9.06076709120294 0.00000000000000
0.00000000000000 0.00000000000000 13.26134851435566
PRIMCOORD
 96 1
Ni 6.413274236227105 2.1691838386024918 11.539866114322342 -1.3578222051829 -0.7476176639292286 -0.35929469750883924
Ni 4.400923211873208 0.30981570864195607 6.026248108535061 1.1501899411797805 -0.6421134741471265 0.41148192103535586
Ni 2.8510246692591004 1.5039966975055872 4.7947865942669665 -0.8245224448070831 0.866050903068173 0.3291042899683881
Ni 3.5123791059578795 4.352185346725412 5.014447672267436 0.6812487495856913 0.12238425336689246 -0.10603923634996576
Ni 5.03496849713948 4.630178735942648 2.568762752755914 0.7397768277285712 -0.6096625527072727 -0.2514556889459734
Ni 7.22137685361629 6.193623125070225 2.573430859862095 0.03133094890279765 -0.49738042077138855 -0.3370657109073098
Ni 5.1258479891328586 4.598302957993225 11.520689907258056 0.35349557432855894 -0.22873844985411573 -0.8962356541816695
Ni 5.632471709503529 7.949654114628439 12.38044976888978 -0.4736033729564489 -0.1338817124835307 0.44870223883939503
Ni 1.907037730690981 6.54481845006159 0.3023922223218987 0.29475229485107945 -0.36308784600268434 0.43470129657461265
Ni 2.5413004743628202 1.5474611963183729 0.5093192985230153 0.8217523382611139 0.42865740437337785 -1.1211760704459337
Ni 0.5590973397107748 0.07761362317707758 4.6574652354579085 -0.29603913198330306 -1.175382638395324 0.6292494737002647
Ni 8.724965816611439 2.3146725726939863 1.307621790434629 0.22328899670377025 0.6340646357007209 0.0283096455779706
Ni 6.917252212663371 0.6723469591002114 4.852008961538651 -0.4666691077304608 0.13806721131978802 -0.3325935340685692
Ni 0.7903507628813654 7.419644554892375 2.4759596599499534 -0.01567164509898591 -0.2872601002390924 0.4724556325052508
Ni 7.73213228369274 3.8998446808445077 3.7816859379493866 -0.019310013182521582 -0.6870573858476684 0.08791681571764214
Ni 7.680259393198015 3.9967495828254838 12.512187883135894 0.08941936840509762 -0.5161687571224852 0.7326299322711447
Ni 7.923794685899715 8.76565772075324 6.973254094633807 -0.15436492003854707 0.5585981299312897 0.3409547615490709
Ni 6.822521894738069 0.8251857872998846 0.3780161010880345 0.21484112304673322 -0.787103894949309 -0.4301622710536785
Ni 1.7851885374380434 6.25591589749839 9.439864855297742 -0.04051030140922055 1.4392675542435858 -1.2547158262090135
Ni 0.07449853151732447 5.115609322537393 1.5051501331317843 0.509158130132607 -1.4496406699477937 -0.262532001364793
Ni 6.3710329409456365 1.8963188434498877 7.053061329477046 0.042247081594669174 0.31200156884983044 -0.6281233305156214
Ni 3.529694231501184 4.3715482055878105 0.6080490389573782 -0.5846107519449673 -0.14672334433288922 -0.34767819631583347
Ni 6.045687983916097 5.526234217616951 4.656934274517648 -0.7073253920680851 0.46628575624911306 0.8787344120731124
Ni 5.319476577756839 2.9413695760054597 9.268700626045565 0.19822202643281345 -0.5750840434014547 -0.04501564547874183
P 0.26924250054652704 5.5676419223437446 12.54198602723546 0.17418941096364196 0.3465183716797774 -0.6802532184416414
P 4.0606732932954035 6.151001277579014 12.697833936122171 -0.8044598697292532 0.5884288401394769 -0.8178046664672755
P 2.389423899607783 8.502188740874526 1.3618604471665898 0.047935904449330345 0.12793217976831514 0.5164608344416073
P 6.233309284086277 7.858194733553546 5.8296620855953645 0.1340992278109755 -0.9266248079964879 0.669105686465254
P 4.6001694759743454 1.0920126873912337 12.552781024918502 0.33292134972163306 0.40564834507271424 -0.36453100620711415
P 3.9718687169218128 6.165489443849942 8.296830083423567 -0.10545251060856034 0.2783116327965529 -0.16741661101618266
P 4.712042764871878 0.9017202731393339 3.7003401848867585 0.8364834738237014 0.4324901478559068 -0.12355436241559366
P 0.16504005690538448 5.528372558605031 3.701162902521155 1.0604481564382575 0.7130635801034428 -0.4171285777981719
Ni 1.5230152472258367 1.0747066226148274 2.6796547605983245 -0.5404044897413984 0.24347241363018066 -0.5169051210678774
Ni 2.0401947610334243 6.405871589670914 4.645874702441166 -1.4015199031811671 0.8376021608091768 1.5106377784564566
Ni 6.048551186256068 5.702103703119593 9.161470074106896 0.1256788649577642 -0.33411716980194717 1.1038090399223957
Ni 8.398180197645015 2.4390406591447467 10.209461025521078 2.0962774858865707 -0.530580304562125 -0.45522589889052567
Ni 2.270084538785769 5.313124980160891 7.202821309084561 -0.024701616511738102 -0.5137915151395603 -0.7392461520360817
Ni 0.5680720293238797 9.311840749403379 9.142639082261448 -0.4042815466321747 0.07938640964912778 0.4431406855912175
Ni 1.5788295713214715 1.1763412449168948 11.368516139348744 -0.97795893949409 0.4973009736837048 0.3628829290807299
Ni 3.928277367372446 6.853410049095539 1.6886605633600504 0.7658668399474036 0.5846374914178447 -0.6637063698265537
Ni 5.477369501732575 7.843335075839773 8.235495940133278 0.136229643890417 0.9893563826977542 -1.1358383004437989
Ni 5.388646472261072 2.780414112817983 4.707393685376186 -0.14758029301654582 0.19063521522449103 0.1281350398077406
Ni 0.5468317795600831 7.159401208029579 6.814582850781479 0.8978521067391699 0.5053166448993298 -0.1480808868020482
Ni 5.151544324057408 4.716210717645254 7.115442897420817 -0.3064927232164592 -0.5221851385198943 -0.4081734254874132
Ni 8.453278721155657 7.333802849294639 9.20621395320577 -0.8628447374260494 -0.7779101442651829 0.14703059116066292
Ni 4.726703085713881 0.1994990594976099 10.403527249186263 -0.2784671845378108 0.8762376137931878 -0.011633727584186414
Ni 8.081207389229823 7.095042580748525 4.703746726699482 0.16474832015540014 0.8088397439645038 0.39205749376215704
Ni 7.218296192870752 6.061272502981762 6.963202079836455 0.18946356351389304 0.4053935487494309 -0.2603974715202935
Ni 2.4035768175034615 5.13458256842315 2.7634922245580795 -0.7602991160516389 -0.9659467455245624 -1.4208186035097787
Ni 2.419822772552727 5.167654367603193 11.367720604015043 0.06897524161813283 -0.11462286425391874 1.417577727974978
Ni 1.1932939397842541 3.208870597154068 3.944773399588114 -0.29171916445171053 0.6000252867278247 -0.9562112634043533
Ni 3.653736130343593 2.5939978946453226 2.6681829236279535 0.39793709247138564 0.2420552215676799 -0.08270338983750272
Ni 0.9489975426630681 3.1772575814447057 7.897649843013683 0.04911526946941219 0.8893409839443651 1.1285875324186563
Ni 3.7612240080621833 2.766034675749838 7.178778564119015 -0.4062294143871649 -0.14303509684802462 -0.6021024809718276
Ni 4.006236205768362 6.857460211899232 6.002550578788353 0.9279370990500083 0.16556464540910842 0.21875202806536517
Ni 0.9110963547260487 7.562106992839722 11.4636795619318 -0.39156641305835144 -0.7578159446184691 0.09367145881323222
P 0.041662312276645824 5.472938786719138 8.116607805502817 0.9499159173139448 0.34689272430006063 0.013118282549512892
P 8.374096679228424 1.681551485651376 8.006207797303002 0.4786381071668789 -0.375247878403986 -0.7389715582184563
P 1.7791268843828518 3.2336336730880566 10.270198064272746 -0.39059453606338534 -0.2174111977667546 0.4119375205155357
P 4.049890980686019 6.176163027256542 3.7517419155027545 0.4903584809276007 0.21031803836539906 0.7997676064599065
P 6.995573481735232 4.002756871279283 10.305539585560897 -1.5202357065575367 1.2861244224272819 1.0092659771374877
P 6.443745595307238 7.688658724113056 10.215017993860014 -0.11343167215929495 0.39957565651607313 0.2162338896292018
P 2.2608063134815595 8.454094190176535 5.808815073114969 0.5939687961210997 -0.8788992197857508 0.22058702439157496
P 7.141488071870963 4.05549053462938 1.6346737959478719 -1.3393570564991772 -0.4387708386582959 -0.8701926931506884
Ni 5.419942361128981 2.8787053121344517 0.508573597407257 -0.22806430660522656 0.3476982509204915 -0.17185459218287824
Ni 1.558904944911358 0.9690852628773574 7.07398807670615 -0.3206361045963768 0.41433224599995744 -0.8161329351918074
Ni 6.908689787944154 0.6998980330089122 9.285768392652537 -0.41807500087184124 -0.7317583282994687 0.1072725945364346
Ni 2.801145147482076 1.503471173025466 9.197527395980043 0.17988671845873538 0.5091339617628908 0.21535508656867428
Ni 6.487400370224895 1.886089237621321 2.488810545642297 -0.17328283998897254 0.6703189900470649 1.0950030115949916
Ni 4.027157516537327 6.9494994820556375 10.445460478393176 0.06274160200359517 -0.5210564242320896 -0.03442064357171491
Ni 8.254141186257304 7.206435649000429 0.3642120227179534 -0.04314619637017085 -0.08210740812471666 0.07023302528463388
Ni 7.564961134412795 3.853317642819981 8.164402444816464 0.2704602550729342 -0.06381400913216752 -0.3390328619360097
Ni 3.0317779081201097 8.426413547301184 12.437871473033233 1.0727372582182557 0.037434233587058115 -0.12801496929010858
Ni 0.06701433805904616 4.854405534383342 10.415661428216923 0.16387157397740165 -0.7560447116506593 -0.5978547614390671
Ni 8.75050811849871 2.3199821820965907 5.7156015275684995 -0.509190011811807 0.0682825864264824 1.0093341113712617
Ni 3.5156500428082893 2.891435689627044 11.638941976052234 0.2132598946025424 -0.9086682235180674 0.14600137856520018
Ni 1.0355188057782008 3.444323685782179 12.609261315381186 0.2322230659686065 -0.5349797191814013 0.15354422390946462
Ni 3.0086729525285723 8.228517337467943 8.05573847955443 -0.12827465070939845 -0.14937235191996212 -0.09472638244030782
Ni 5.72146656198199 7.870308978897031 3.6133196735155106 -0.8338699474602541 0.3087331825112038 -0.3810099776987438
Ni 3.0287969158104566 8.42810791071123 3.643555452656279 0.8485550602762547 -0.6257656289167223 -0.42829153639352696
Ni 3.409974318469427 4.30242361491807 9.243093086636625 0.008476412902127337 -0.2984019757885248 0.03854906391779168
Ni 7.3984967249509435 6.182487442551795 11.477975639944477 -0.42838872409302353 0.08088587701278974 -0.3917690159874608
Ni 0.5497094791270918 9.162156880237815 0.38378237314233027 -0.47161359621992976 0.06056927694262472 -0.46919933035148226
Ni 4.561054145272908 0.34769333858503915 1.4057961058581052 0.15442971183821144 -0.6343929655744172 0.5003752417336543
Ni 5.993670121150994 5.573123686317424 0.29786818140940674 0.353337708594456 0.6674031019518506 1.0204677593905778
Ni 7.920768389755568 8.70939941907957 11.589132222180329 -0.3187466008831478 -0.14224422551561308 -0.6975935094923019
Ni 9.358322483593414 4.848343881328151 5.765477425038765 -0.7486713020047235 -0.4692949753890821 0.42736722480704464
Ni 7.913447290101465 8.924076169209096 2.4630435367359396 0.3412494099713542 -0.6418172830629463 0.10266234945793286
P 8.543505837932335 1.6126987179885954 3.6119804921678913 -0.3121002992112238 0.9198615211307254 -0.6270097857364686
P 1.815261222774636 3.253540177964373 1.62834756849924 -0.4314000001155215 0.29433114815326084 -0.13334872279819615
P 4.659146007717606 1.0138545121235476 8.146021773085877 0.6123141313975068 -0.3739695259121947 0.7701551829101123
P 8.420904601026809 1.5721246038164765 12.26007657456463 1.1367782957595647 1.066739388763608 1.3498507569416496
P 6.372636696686696 7.754956355510418 1.2851121272283328 -0.7999882071111449 0.40670583980295116 0.1673587611950537
P 1.9744860794844723 3.228913013533864 5.976465536963852 -0.5637830165663387 -0.31593304269375266 0.4257312318655184
P 6.8911209609276876 3.9240641107645775 5.95832406947939 0.14717277316548202 -0.02137383769008577 -0.24729255870721928
P 2.3401242669122717 8.528573694083372 10.1687491876921 0.6710196156585153 -0.2534189833199313 0.31427468115472323
