# total energy = -340869.12512851943 ev
CRYSTAL
PRIMVEC
9.24492165941675 0.00000000000000 0.00000000000000

0.00000000000000 9.24492165941675 0.00000000000000

0.00000000000000 0.00000000000000 13.53087733955699

PRIMCOORD
 96 1
Ni 1.6165577505139088 4.117965439648005 2.6776658178929695 -0.6137719468899558 -0.6157527247654104 -0.06517849357986195
Ni 7.759207250755298 1.7965471296408357 7.59539555998084 2.0249872229820154 -1.9049735267298287 0.31337788037206676
Ni 0.3316504694089859 7.397971183160377 0.03940925190519613 -0.7233433647628962 0.35908463838056226 -0.6139712073849555
Ni 1.5351839503662277 8.455155705801573 11.516211196980658 0.9608081387464162 -1.6190627414297794 -0.4808086324556364
Ni 2.0340306763567684 1.7708462475219362 5.919474318725248 -0.4922161029616297 -0.7271221150790381 1.8406951763667334
Ni 5.1959048113384565 8.192618421480526 6.1187578492846 -0.3301463580796572 -1.5736490891816706 0.30927877060202863
Ni 6.34218264368463 5.4846052238596785 5.37077065490053 1.2718260035267388 -0.22107219155810956 -1.944494724752903
Ni 0.06695819385703389 2.4141263840677176 4.00174383192515 2.0557705269114592 1.835460153220039 -1.588902158685999
Ni 2.683024174467111 2.2389073844995506 1.1445758422749184 -1.6546570935946212 -0.6078370694627597 0.39377936154927023
Ni 3.0870272495016122 1.8547346663517545 9.38658618203186 -0.01953061383375991 1.9285243174665756 0.5476922816520632
Ni 8.654781298461069 0.8818934126843508 5.334494506934217 -0.25999817919934576 -1.0455015624307542 1.4707931356556927
Ni 8.588559924857588 6.152005360926399 8.5178630846952 0.6745710804551994 -3.482881905408485 -1.8072566942026294
Ni 8.877112418632802 2.795442421433233 1.5789854645357004 0.2560847030775525 0.3173003553549245 0.33577373156876367
Ni 4.378810903311584 0.4929096373226427 0.6990362588691929 -1.3341454303912508 1.4724921206246704 -2.7987483780758313
Ni 5.666628485744216 3.9959602089562356 12.912664928942418 0.6393947896643827 0.26895101751725936 0.3454696187002889
Ni 0.08152079440152693 7.940167346652903 5.686635420633968 1.3828678352976185 0.34171452253323087 -1.1829856475535625
Ni 7.958463046549775 3.8960965655575475 8.562880306058426 -1.3954765252005643 -0.078541030929697 -0.9412093906788823
Ni 7.723965609518879 1.7526522417629453 10.04497159602155 0.1176721926032038 -0.39490833294739086 0.4185115741886276
Ni 7.153609414755069 8.893679318185704 11.581659695136247 1.501841520321065 0.9313669506671637 0.911131083236263
Ni 8.03367972889487 7.971452161433607 9.227774144872473 -0.40319422710526687 3.3224964902074716 2.9589977819196136
Ni 8.332956331755668 5.168151556618696 12.463088088262836 -0.12220736146939598 -0.2511517845523094 -0.08191586093920085
Ni 1.9407863968419408 7.267664012848905 4.172719412467211 -0.24257484151657574 -0.8293802871200169 0.06602901450561531
Ni 6.8355378862296226 6.5160888643819765 2.6739040592835517 0.7916699170534365 -1.3320438106672157 -0.6538922119496093
Ni 3.1074492813723493 7.238764387847581 13.45053077114556 -0.5013746295324463 0.6305553369958817 0.6090004936432415
P 1.9686228558563315 3.453375758755438 11.033631835082353 1.1763342036753162 0.0813507324643502 -0.6181230247698
P 0.4838634815120875 0.6499068963669423 7.4099146974083645 -0.44014689307021615 -1.4982010953550005 -1.396049624095215
P 1.6112049408927425 3.7677770533955592 5.145238018369885 -0.5341680219133832 0.5288453241488892 -0.6181906447829417
P 0.5709081165848529 5.039416022983559 0.8783821914509846 -1.302620363199776 0.2613814327001176 -0.024807288851666952
P 3.93544295199569 2.3343057307531208 7.069883706545859 -0.15696481955523936 0.35704215402923667 0.2587144273909157
P 3.8547440311266703 3.562105281992984 2.1896883462575327 -0.10897903570458006 0.27791953956445686 0.3282694527719185
P 3.9165925568012887 7.119671307467846 2.275744699208532 -1.269163369092911 0.939975004051149 -2.088644651931661
P 0.6226426980011701 0.976245233809914 2.0709687607114677 0.29822174145691865 -0.06580944229564151 0.6859685236588638
Ni 5.243377483885417 4.956165503745901 7.280409986293987 -0.5230621418082089 -0.8458790561059883 1.8522263169347843
Ni 0.8407063623505705 5.8151019270498026 6.40317601410889 0.20428674456965462 0.6636325791658249 1.4994208266947144
Ni 5.648101662806707 8.520665220439891 1.9113718297060762 2.0382523155220382 -1.856603105846241 0.9816201903957612
Ni 3.497437055222587 6.752934511505749 7.688718421329485 0.44977670285049637 -0.01996693004023013 1.6237339216532036
Ni 0.9943930149607774 7.720138211965921 8.063645293359615 0.11070990235275772 2.183126008240698 -2.281494615419284
Ni 4.612984768085587 1.2275406934343491 2.8110802063627722 0.010201623123350174 1.3485868026275614 0.9459260794282611
Ni 7.487961250263027 4.660901196870571 1.0899133941798043 0.9723819596269448 1.3938004230497223 0.2770523064681551
Ni 5.800088174329984 7.34313030807789 10.8045001505629 0.49880352637116027 -2.267391343248682 -2.7643441895643486
Ni 5.902022680172784 3.373065124594689 1.9865496833803453 0.8022934582055538 -1.1527960113440598 0.8558068567426614
Ni 2.6910025418299206 4.979518175771923 0.7230046426754732 1.2569290318102482 -0.8919987332821863 -0.6783246339603608
Ni 8.758158012077448 3.8161464833401935 6.183029468917264 0.11530086415754981 -0.3652236613987645 0.0784394723548262
Ni 9.209495085834527 8.172214879453039 2.95748463420857 -0.5128348076532458 0.44089045610446004 -0.2441900085224956
Ni 5.649007665126007 2.108646438796207 8.839762935265767 -0.6702919934638715 -0.6529745852313464 -1.0552380729922277
Ni 0.6798401036059974 0.42156565264647 9.647028567112567 0.05681726609936021 -0.39683640320803915 0.20292843076954725
Ni 2.452770156462322 9.122084351865391 1.61822553437515 -0.565734998086387 -1.133587299626093 0.37886362077970237
Ni 4.9131488834224335 3.3967321239559785 10.661695695198073 -0.4019876083916754 1.7200857555120763 -0.7794234955859157
Ni 7.524608119586523 0.8777396693980121 2.9947351969142115 -0.5369833798749913 -0.15197919341518987 -0.47887516287834947
Ni 1.371031121983788 6.521820715789788 9.884454795314422 -0.7721745273329863 -2.3602593323240124 0.9266356066297653
Ni 2.6273420115167037 8.11246495098741 6.178266485295803 -0.6149531116822506 1.199344291417244 -1.3109584507518262
Ni 0.3402602649188173 5.290702237686369 4.280845242322613 -1.4415717768967302 0.3329799708737104 -1.551598022918902
Ni 7.0899581293634775 7.882238667747498 4.388185253839845 1.0085409260460048 0.17651317400081215 1.4596535740991057
Ni 7.741457001234331 2.87306278340096 12.9433257115134 -0.26687690859705004 -1.1915265951450382 -0.5094990584117935
Ni 8.379412062923823 0.5229685754958047 0.39906721137864476 -2.2896763798991278 0.010214735749472731 1.3773191375652474
Ni 5.731148793768606 1.074574220218769 6.4331609929090465 0.10449323201908454 2.1085349630976853 -0.3469276913030541
P 4.26974856289552 6.181468926146878 5.695998677256278 -1.00119734119674 0.07262646521747493 -0.9729460596605307
P 7.624712130947474 7.81130238411501 0.9590996021632553 -0.7157017890572384 -0.8474201753408631 0.8512984273493467
P 7.595091402059361 4.379772375160637 3.424218200440763 0.3908819853968171 0.5284146643693738 -0.5540290225033685
P 1.1681328270688638 4.600300735615397 8.306145134549546 -1.9419025385456943 0.7731728866905135 0.29134044095605305
P 8.983687875131606 6.817907820689787 11.315994853829292 -0.16525559880912183 1.4089179954174509 -0.5766197633196908
P 7.0758318891197085 3.751367317510291 10.80272789908729 -1.396687257679214 0.0780239820839624 0.543732782783683
P 4.492606643599907 5.731546325398502 12.66234388405731 -2.182102966292822 -0.12028931851107673 -1.2478224415232897
P 8.708679191537755 1.1794948357466075 11.877782855230587 1.1258498217725192 -0.10798967520811724 -0.8308417021568916
Ni 4.0734141623347035 9.219285457835936 10.419113574205674 1.9988679001871446 0.13538040851624425 -0.34893957952676036
Ni 3.140841938283668 4.789904833232847 9.187330386237383 0.12843920131172074 -1.4425955901755543 1.3057707359032995
Ni 3.1302287682575898 2.5999308188970858 4.053973016648433 -1.2706373825352761 0.13914218955152163 -1.07714875702239
Ni 1.5363025858829134 5.779471999105112 12.213403093985564 0.26897210056318194 -1.144660269610803 -0.539849902789509
Ni 0.9959091821073599 2.38001262326961 8.436488360055357 -0.8141881527606107 2.1918322777654446 0.0989620177882102
Ni 6.032930770389914 7.140537095576607 8.175653990297727 0.31295930477740935 -0.07111671344116784 0.2883918998506904
Ni 7.526096551968228 8.756891457814755 7.075011864571525 -0.2314720467351949 0.0675307958621224 0.10147964200374138
Ni 0.8425396303089078 3.3342826783757022 12.976828382992062 0.8368871370200233 -0.2007306517872801 -0.37874149337954127
Ni 3.5744380074414055 5.3406617941505905 3.354981133403042 0.2380646123510481 0.15573171847908662 1.739521238528869
Ni 7.149523159396596 2.7199761262042483 4.707161860192428 -1.8769405318520127 -0.07253236284177185 0.4641537975077748
Ni 1.9077265571091404 0.4496924021999017 3.884755820199542 -0.4310883824123737 -0.08148160161525968 0.34465432188784517
Ni 6.374798727179407 6.396968049237364 13.106806434093665 3.163763523008216 0.6570790943180232 0.34827237825640667
Ni 3.678517335101324 0.2874283113055527 7.767278067334363 0.35280163358532785 -0.8572736710961752 0.2027343124808702
Ni 2.794573398800436 4.586082046155372 6.8484780030288395 0.9388650588164218 -1.6395333505793053 -1.3191057624493088
Ni 5.077440385629255 8.178908202709904 12.65000376267159 -0.8456106329359501 1.8105145390182946 0.7696782432736938
Ni 5.409610419633594 1.747576779790544 12.146925636053055 0.2465104291255561 -1.8398351423592831 0.052288524991071235
Ni 1.648841016830167 6.855275793900073 1.8906021887822204 0.1452138496668983 -1.370704717572523 0.5683891478797823
Ni 4.160140772103552 8.194781733140893 4.002176494257224 -1.0745714832135171 -0.22324554506034458 0.5222800122265456
Ni 3.497871566538986 3.1381516660906468 12.738441607433318 -1.170457947400197 -0.1870953203920326 -1.1331880073051452
Ni 3.6020156086502824 6.508471048962561 10.794812397191535 -0.11754569432766852 0.2155157805162546 0.8484900113662741
Ni 9.119098242180355 4.028188005742741 10.388046939575332 2.8041631213334997 0.4715040672252589 1.3840001491298488
Ni 5.001428640024367 5.605491819034762 1.2407637048353066 0.012623088080649228 -0.7722750574665925 1.1727423725589996
Ni 4.774206956312742 3.554579915789824 5.130962934887946 0.7978295088969292 0.49713153798537607 1.474500666414267
Ni 1.1732914933358947 0.7502753124863832 13.074372475554911 2.434624377499149 1.1204476769203413 0.5775774992472698
P 5.195091258235412 5.565840350182977 9.467392343991733 -0.20399903812590675 -0.15112275895216554 0.08339630213946929
P 2.6256871705457385 8.135133498813145 9.484089596939556 -0.7634073226633175 0.6392510649976668 -1.6203799175793063
P 5.758920538331617 0.23155662746182254 4.359243102199044 0.8909697777970397 2.191711435916864 0.16429554888869768
P 6.603185271015844 3.2873184765181445 6.919568676852474 -1.1057165413577539 1.2540799923972272 -1.8773562792331928
P 6.172908128721661 -0.030199460981869593 9.63739443428663 0.553758028230169 0.36263507473598194 -0.8519499448904165
P 3.455104559099407 0.5861113901979933 12.250396647870016 -1.5713536082792745 0.82955872167941 2.1672005952596933
P 6.233101813425315 1.564629025743456 0.6620658172888045 1.0409509669455943 0.43772439967165266 0.7934213525269046
P 7.766972984920722 6.728130386784523 6.374612904254734 -0.08316978795095999 -0.8052826227408648 0.8232890866206143
