# total energy = -340865.9236108385 ev
CRYSTAL
PRIMVEC
9.25055804782968 0.00000000000000 0.00000000000000

0.00000000000000 9.25055804782968 0.00000000000000

0.00000000000000 0.00000000000000 13.53912676373451

PRIMCOORD
 96 1
Ni 0.22259987477714074 0.8179620804798623 0.2862224367906027 1.4277675240237861 -0.40316800185302176 -0.5132348713051419
Ni 7.172355307617903 5.556551110073169 4.113362322792215 0.33457662593686893 1.4070230923875833 0.7279523242898173
Ni 6.574704513892714 7.202863647545553 12.03956039391772 -0.8647602092812076 0.08419745788452596 0.33595782255511175
Ni 8.50129970493328 2.051588729276589 2.0647439476547307 -0.6158907930051716 0.5959567730854058 0.48819052674200436
Ni 6.366039679524005 1.2421094103836448 4.670605754589579 -0.3202267849731001 -0.1679475438189882 0.7173048718783
Ni 2.8492550857415138 7.961326139664394 7.533806056353208 -0.2018573091925556 -0.04731524014619593 -1.2962728237151935
Ni 0.45896365464171335 5.495192159575867 12.914079460293173 -1.1405488185455903 0.8335524162198356 -1.9979194202309463
Ni 7.608990890675818 5.919385742269109 8.062779783232774 -0.9825028501110304 0.587621256636517 1.6086235483743263
Ni 4.857976729746809 7.672662480646107 1.334234791373782 -1.629005454464788 2.298315029410732 1.5432211117091164
Ni 4.6168979405247095 6.632705511875238 3.5631733664432512 -0.8816312740049334 -1.153678156838697 0.0663696856744857
Ni 0.7689267232062156 4.963090819073033 7.256619564511461 -1.3388474638526104 -0.28514922454367664 0.7959490040447648
Ni 9.097803429479868 4.167117314702334 2.927511105284251 -1.2098734730833423 0.3480638617900264 0.39906606386950627
Ni 0.42678188879140977 0.32776114194861333 10.026143166726472 -0.5953006275586457 1.3710693000007936 -1.8859309082760811
Ni 6.55698969552963 9.263508672998361 0.09450647459152502 0.1946538494655809 -0.8006968031423952 -0.28810419340694254
Ni 4.959723616000363 9.122798436903915 7.19517920910471 0.868268479544782 0.741186306481588 -0.8939257751015702
Ni 5.576375055635617 3.2701092170357624 6.0545752454136395 -0.6865035702267274 0.6672213249583477 -0.3771867472979117
Ni 3.311523964718021 8.727531348738799 5.189804416944723 1.623414847750888 -0.06952494347401575 -0.6694628126943567
Ni 7.658074350850502 8.954993316743948 8.443554022348572 -2.15928776817052 1.9554327118216452 0.2952603448357496
Ni 4.10541609356303 6.809770440485045 10.869495253452367 0.6892279111364258 0.7226946754353037 -0.5598757110921325
Ni 6.461301924695302 4.650320206188323 2.1293526191394747 0.19051463048622674 0.2782113597732628 0.8103528381749204
Ni 4.212213784425589 2.2793374645763893 3.142512571808944 1.513278301403097 0.8914546878532583 0.19588669343141749
Ni 5.645356465835886 1.0083015596646179 9.369170395351787 0.866520900726056 -0.9696820441972784 1.2510615172858777
Ni 7.627547509807068 5.124938579950583 11.103993195790133 -0.44154505896932345 1.642665468450384 -0.19322123078411238
Ni 6.907817103581819 7.563274633573803 2.403370794903228 -0.23713927232330131 -0.7762618100284825 0.08217014304185204
P 2.3865236788704096 0.34617900271148505 0.22353510618001685 -0.24470422915475276 -0.1517984448629515 -0.8597367879246871
P 8.623277561296526 1.4979705911170795 4.674614021324162 -0.6145625611120512 0.018703747057090367 -0.33722743329615473
P 1.7666160428571889 0.5374000600633435 7.861643052876535 -1.5958235683961806 0.8193329301863438 -0.19823102529387795
P 2.8519840003196393 6.438684310649486 1.7889108124325768 1.410065992978965 0.33009570734737986 -0.30701825670262606
P 5.284362694660443 4.307198512860127 4.174383627926461 -0.3224294490513737 0.6054598274798346 -1.3638031053566837
P 2.492054043301771 2.776342188437167 10.686744006906379 -0.5278536496595813 -0.9922067076623556 -0.7578789366459205
P 7.534829168056057 4.487047859395412 6.439831379828087 -0.17573721506673604 -1.71858988769284 0.47097724818751147
P 5.39950438874154 0.9031745195573455 11.981233776297401 -1.089097187633518 1.7441093721201832 -0.7803791746309657
Ni 0.16868299810391232 4.084796600021875 10.803085498346062 2.0279560758023525 -1.8678658232442542 -0.8480650080137135
Ni 7.213381531868699 0.353983698404923 11.143472726761397 1.9093536580753956 -1.0895898109992201 -0.014198917208201354
Ni 3.3977484148288837 4.640570118170208 5.164039763104065 1.1845702184318632 0.26837046242344104 0.4781076885847056
Ni 1.234560955143814 4.254895858539045 5.044136806875981 -1.4578368326053408 -0.9635705319829018 0.1817667090902676
Ni 3.7270775263401825 2.7904585397802824 12.550011728730237 1.0715895177670576 0.09445847349090183 -1.0758683476480697
Ni 4.803268930373818 3.231340128910601 10.27931058500177 -1.5887972576770186 0.12925141280037095 0.32567803789565847
Ni 7.075575970952326 4.5469637228615705 13.569724776610363 1.3387461623880557 0.1199509613350515 -1.658549486670492
Ni 2.496660821131962 4.687794216208611 -0.11753481340774444 0.6687673292892289 0.746494863178695 1.1404878834006682
Ni 2.991528666119699 4.7773673682763595 11.22297479645218 -0.07044231308196255 0.629088008421736 0.8075274529109835
Ni 4.27290669475467 6.185718554536231 13.355427277541247 -0.5900051834876614 0.10814445561842664 -1.037651470258716
Ni 7.179579993331516 3.2182690906092764 3.803451982407697 0.2259313194226238 -1.3784262545864971 0.9535339736825063
Ni 4.360703739707164 1.2401020393210918 0.6058162611764137 1.0498428701185856 -0.5580067762041937 0.4876835051985989
Ni 1.0102626779377113 2.9042311512933705 8.747818747251634 -1.0065992289386019 -1.2886803560799163 2.8879664291034004
Ni 0.20884522024760085 7.919670877476946 7.843662743501953 1.862419455417702 -0.8670724023541518 0.989202116508077
Ni 2.4139885852516083 2.721967409148287 1.010741856836514 0.04589342009800484 -1.4817810021257642 1.7209568452631199
Ni 2.263519010581155 3.0021483065796577 6.997196918989626 1.950899599837982 -0.33030962313039886 -2.078859033299807
Ni 8.06840134726371 9.082077481063552 6.18628376362343 0.37269605851640975 0.6776330072099749 -0.19225680998831404
Ni 4.697026272984777 4.908549529742097 8.002300560790996 0.7413066341095362 -0.22413103298909143 -0.48294727606519405
Ni 0.7757758362694152 6.189751797777121 9.886743734685316 -3.4529581212658593 -2.206470853614226 0.026808378442095767
Ni 4.13350078732299 8.629244171136834 12.688707193315816 -0.7424811140336116 -1.4783794326433828 -0.06129895601979765
Ni 1.0725096819926403 2.8458693815530602 12.580664377361 1.940473519408652 1.7898115021429886 0.9362487042394972
Ni 6.263589750870663 1.0442307265169501 2.1748847901394397 -0.03484821802743676 -0.12212971415392516 0.5823229843520552
Ni 2.105454727881412 7.708952419256225 9.605049445982823 2.213339555709601 3.2724399398707122 1.0909874626776952
Ni 3.4356849527437685 0.6374300427721517 10.73048897012162 -0.05750992129101063 0.7256920675007308 -0.43117965657459933
P 5.819396462015026 5.313076426357054 9.877578281925972 -0.7444714049907631 1.549704405440615 -0.06912899358717772
P 8.225762587563667 2.1606065540332158 8.889614073786806 0.05395434272926837 -1.136518871450591 0.05149199723170487
P 3.7998609158340417 1.5619196978241274 6.166692932119858 -0.012127636501469434 0.3102678739881753 -0.23383257654757147
P 9.027517690616834 1.6244719702894908 11.797737859841108 -2.2215979390636513 -2.0086697167689147 -1.9558998812660509
P 5.671979571448916 2.953037094731297 0.7795269374946007 0.29310010395963715 0.4897887244670597 0.23572619402585857
P 4.320658074592914 8.493936260851287 9.132574426484126 -0.49710762672597614 -0.17731484396650107 1.713178743979598
P 6.457324184801764 7.637380852846211 6.517275200387911 1.0989180303786816 -1.4665125060024677 2.979148802946192
P 2.0978785209679054 2.3330924564865088 3.206837251166405 -0.7591480331663313 1.3193628727654374 1.291055798290628
Ni 6.925171150187117 2.6989057683236566 11.23610781349138 0.2786011390125137 0.281800876896734 -0.39047883642112746
Ni 1.271054406027555 7.734039932259193 1.1306485132877544 0.05532216961107246 1.1492268059355628 -0.24638084552622727
Ni 1.791962571481131 7.687639133873173 3.535824092035702 0.4561977758854917 -0.6266693716779143 -0.4477961820853578
Ni 1.1990018106071596 8.712702704438005 11.93475342311351 1.5400853942936121 -0.05149688232771132 1.2776361824506126
Ni 6.1079676154543945 8.213746112862024 4.621282704965494 1.175964479040723 -1.5629995798876242 0.7968278071052922
Ni -0.06490191416991861 2.307283399967969 6.813754655769108 -0.3098544405998406 0.026349436527806233 -1.5819390971046048
Ni 0.7968550825378008 0.6025600647984476 2.9823715388624583 -2.2882625302707367 -0.27528621570666784 0.4494404025570002
Ni 2.863981973905498 0.49033507162068213 2.3044268276909348 1.7417809810973228 -1.9029690947052904 0.5135336334924833
Ni 6.258464941798523 7.595374069458868 9.801298181548955 -1.2511353079466065 -0.9332644248001927 -0.6510105195264402
Ni 8.730112254390653 6.005258671180078 1.4665852983012728 -0.7276484198961533 0.4572706972346963 0.4700683632199969
Ni 4.226256131305568 4.62340108272275 1.6505141408669075 -0.3032348784007939 -0.6922358447248143 0.49955557404583645
Ni 2.637981594047276 4.4509799341747005 9.015555794206753 -0.01984274575754002 0.051464486427879104 -0.3287584765931951
Ni 6.821213380597388 1.7613894776482373 7.197047821798884 0.2820965537602819 -0.545826432087918 0.6489767769258629
Ni 1.5067771222302158 0.827924931329492 5.307243024550392 -1.018374110086343 1.0048148833446693 0.8596257162681195
Ni 1.112037315864941 7.597150176574122 5.809666725224273 1.2520994716320888 0.3021655565960151 -0.8288580960679597
Ni 8.353568295398844 8.314780706157899 4.075696826223564 1.931242744839003 -0.4597101599141244 -1.0173312706441255
Ni 7.730219451849817 2.336644670717017 13.402705953871212 -0.4758618299733224 -0.35765793323636463 0.6824389132390505
Ni 4.478481842787467 2.35041875141813 8.124856577022491 -0.9099157227719232 0.812831124512084 -1.5181477136802564
Ni 6.699300278139383 3.661333811402096 8.936730865353661 0.4731390317255207 -0.5581528148637548 -1.3702915412945045
Ni 8.489792010915695 6.318325301917329 6.0144861026772976 -0.6765513441100218 1.4504613660768761 -1.036537411258931
Ni 2.012468119951534 4.676490034464648 2.800080970099488 1.3884468720472927 -0.00866718875669475 0.04539102654028957
Ni 5.525607993924598 4.8761540760044895 11.966191444109299 -1.6448084829353156 -0.6310420468243132 -0.48827588736695904
Ni 4.392451654392335 6.7734712513170345 6.259070853340446 0.7901141425305425 -0.4807384413393333 -0.8023811328233537
Ni 8.680029733963638 7.605235164171686 13.038490213382005 -0.9616817996006212 0.33685282356555535 0.27030650310388926
P 0.6218891055136763 4.050504781916417 0.906175400537494 -0.9862504900789207 -0.4489899452831429 0.6972181284307541
P 6.419563407486827 6.5205239963195645 0.49678271047137107 0.7749292072599879 -0.21423434270066977 0.2694832358716455
P 4.759846811629006 8.926732862384043 3.3852416605589677 -2.167961127574802 1.5668523779748111 -2.593985465200707
P 0.39945019044385544 6.101788242782572 4.161995280797561 -0.27446629090853375 -0.008190763340908474 -0.5540570475278265
P 8.248796476714622 8.872274828074135 1.495978946002943 0.7731823997722104 0.12237448317487958 1.0645408384503925
P 1.988490673895601 6.713879157377096 11.650715968096986 0.19503128740965767 -0.47370621708290034 0.6305720491664302
P 8.343522189528185 7.85027319217154 10.168750692244556 1.3027856851330466 -1.7005996217630068 0.42826042604527537
P 2.6648914669549577 5.737529024671272 7.293270274879366 1.5478429267518439 0.37859494049934794 -0.9967249072476834
