# total energy = -340896.856740302 ev
CRYSTAL
PRIMVEC
9.00592205428493 0.00000000000000 0.00000000000000

0.00000000000000 9.00592205428493 0.00000000000000

0.00000000000000 0.00000000000000 13.18107725900358

PRIMCOORD
 96 1
Ni 6.351669590032044 1.966398020402688 11.31774747339701 0.19481480052347738 -0.19893422200848965 0.4424284900155413
Ni 4.58140253708146 0.4481229667627435 5.981836003063491 -0.6285825295402272 -0.8568574094943631 -0.46477369047996087
Ni 2.560356582502109 1.5270801434956667 4.781237640216962 1.3235406582922111 -0.3836420160049522 -0.491170949526567
Ni 3.358389335182147 4.615850188404092 4.803606549067983 0.0756660233747471 -0.9837480353720413 -0.23139774185383372
Ni 5.091281812187913 4.506167065408447 2.6431750404270584 -0.1807002154989662 0.30402960638794735 0.3765272593370419
Ni 7.09987257675963 6.088111285206722 2.535090468571221 0.7242255102575333 -0.6865503643042628 0.293275710305553
Ni 5.306073049846684 4.534553731282679 11.556601633818902 0.30098130647992677 -0.07800212770709147 -1.118925326738544
Ni 5.605393870594141 7.878560609167508 12.520626135672266 -0.7776818303044607 0.11293802035232808 -0.6307569114837266
Ni 1.6682479695041035 6.507111802274826 0.3644228290823728 1.5041298021346095 -0.005573380322719433 -0.025914662983232792
Ni 2.773148505495879 1.6039186692694456 0.33770676172326414 -0.7638737207767748 -0.2924071916576706 0.7485373475300204
Ni 0.49183500995873386 8.874282353790845 4.755060126988337 -0.18237708898075686 0.7945562374622961 0.024849454943512043
Ni 8.714670399701687 2.1833867030085745 1.4592898674692996 -0.23467152750909906 0.9763286029795186 -0.5941999382952993
Ni 6.717273996069587 0.8136093952232085 4.641281110706014 0.18200556457395106 -0.2636303766352944 1.5013144441730015
Ni 0.583001957498345 7.239806591465792 2.509386666835292 0.4051194691524378 0.11681318703701818 -0.0960435585898346
Ni 7.625683327732681 3.7322791893809515 3.860368615585277 -0.084271505655571 0.438822774942154 -0.5197844994982016
Ni 7.656555628055291 3.736160741726064 12.562844997014848 0.0611698866411011 0.3754124290063083 -0.2416980953385773
Ni 7.807972193202332 8.628069454572683 6.921159062290002 0.2346206196665056 0.7134261056491842 -0.08381667750633952
Ni 6.961964894484211 0.8754089319921077 0.39544823007752844 -0.43268580880648067 -0.473785664170584 -0.5329171802254178
Ni 1.9109485591756419 6.42162759146321 9.173067322184394 0.5002292030740934 0.16903614889747662 -0.14036063533965504
Ni 0.1991011204994781 4.746318979178206 1.4983062229791144 -0.8742334388789654 -0.42472310231597815 -0.5225468927346871
Ni 6.16804784811906 2.109961421640359 6.8728900226053184 1.2539329252964018 -0.15499021232737178 0.6830850314634815
Ni 3.4561306057192804 4.242176476331234 0.5698434049891951 -0.5335653553323778 0.527161508688563 -0.4292287034958156
Ni 5.9487086198935115 5.700802607355441 4.804423386185621 -0.04048124794349803 -0.30668067085754924 -0.25498812757926403
Ni 5.022728734575396 2.63093599254537 9.384571398344404 0.9619360817032724 0.47585977309079336 -0.22075337476611015
P 0.18507799948654433 5.479202892729375 12.458213295620997 -0.06836229062448225 -0.4272744079829222 -0.8902056459375055
P 3.9319584900673354 6.077880557911949 12.572651545387453 -0.22086830307741961 0.07205233788155978 -0.33330778652677434
P 2.3519415375587442 8.313960910041759 1.4988997132332744 -0.3871631417843332 0.7527454720740971 -0.07875443249208372
P 6.155691723252484 7.805063280423976 5.781642464235794 0.40226168798866857 -0.31946162467230144 -0.15223270418689264
P 4.63255617355533 1.1540638637225604 12.573060414242368 1.2280745694724013 -0.6889628304004973 -0.5904376430393896
P 4.001970527029989 6.1897521199327965 8.057921649422783 -0.8755837822592728 0.12083593504316609 1.3329719789084398
P 4.658763406326274 1.2230672374307991 3.717894030307059 -0.21703196005046493 -0.3269450775335402 0.36584792524632476
P 0.12630085011212244 5.381119397159493 3.6005162476277373 -0.019805207651385246 0.9245085329844336 0.37285932356715135
Ni 1.3822018776584915 0.9830414065678417 2.6915629582810126 0.886373673785925 -0.31962746082620436 -0.7967182781106215
Ni 1.7521651499026116 6.482633706511449 4.613377162246394 0.23910359513852367 1.1984737158868328 0.9936637518238565
Ni 5.830019574983451 5.441269949625863 9.069134480331103 0.9672142993830761 0.3382831282541787 0.6298598535907539
Ni 8.46874568998479 2.2906742507749867 9.97655946472895 0.6778122131003165 0.05205635437560713 -0.018293398992549142
Ni 2.4396592170051346 5.017595359084179 6.976335644083041 -0.7763844516492758 0.9885344010170911 0.8030524478587654
Ni 0.5648784402377787 -0.005544045530513154 9.044525798699967 0.0436511610310474 0.08515262270894366 0.06883923026090079
Ni 1.5001074073619973 1.1415906618710974 11.17958312234703 -0.20648555199318633 0.47664755909941137 0.6891114401632197
Ni 4.081699953738294 6.783971853767737 1.4460169397518365 -0.21492082724473308 1.3488783657260512 0.45802300201968854
Ni 5.66042005349121 7.724892563541864 7.933057243856008 -1.1580436328962442 0.7195682139911801 0.41166112692569745
Ni 5.11606610929638 3.064643180099711 4.8242346132129486 0.42629224657531095 -0.41653748118139233 -0.23555213034183947
Ni 0.8174107948632826 7.383937365784071 7.052574375457319 0.13267098000488117 0.4805664345378433 -0.9123194471174094
Ni 4.969476718295466 4.678765558898188 6.85148474739914 0.1946106549324713 -0.9434192538460073 0.11004475796493304
Ni 8.141227327723302 7.089912027122288 9.161784703210017 -0.16836354831048422 0.1351009296026125 0.028098558008429024
Ni 4.632123889303438 0.20360498204887645 10.44531770037419 -0.7161321917264376 0.1437758316687911 0.17345561812141094
Ni 8.000455762279099 7.171352578994333 4.719194943556374 -0.15588598466876377 -0.6932306045379157 -0.2789145564878745
Ni 7.254044954012481 6.157258753665592 7.077671178056217 -0.1739531265831198 -0.22989956004175247 -1.050511871161152
Ni 2.341737828029713 5.294122191466256 2.6505166679716887 -0.3225448915833155 -0.800506284398144 -1.2212392917181227
Ni 2.385650703284395 5.175289051805565 11.334487681051522 -0.8275211224240909 0.14040048743865496 1.2756440917212484
Ni 1.2084506261637054 3.3440519074944004 3.835073682704263 -0.7311266082527409 0.20801638681541595 -0.12393822811757364
Ni 3.471440672973784 2.8220686733349747 2.651900878169934 0.6073115359765928 -0.6418838746348235 0.7938360714668199
Ni 1.1568106699064566 3.217932977004949 8.122245546104292 -0.6897938109422248 0.3603491069152826 0.13869404627050952
Ni 3.7471929960712207 2.623551136575551 7.1623862831363425 -0.5955577378747743 0.05378619258252027 -0.2925992530638187
Ni 3.9593274867652393 6.708087955716885 5.97834350654508 0.014293533804536676 2.083947246455992 -0.8824059473874286
Ni 0.718989577221611 7.380911376020828 11.169578443692307 0.546660240843123 -0.49185049209209497 0.5881007673760968
P 0.26618893461652104 5.576800068515878 7.979573731136147 -0.024951270628698962 -1.040980277521633 0.9638901201058495
P 8.55228462166289 1.4928486342989797 7.757881255514362 -0.7184053040313305 0.6669130496893095 0.8944826760463047
P 1.9504665445360898 3.2692397141513645 10.209429190038714 -0.6145255372265288 -0.9343995668459003 0.7238359881285985
P 3.9970082640551463 6.292005357349052 3.6250600866210894 0.4920271268792752 -0.6971255687169479 0.3880928526874542
P 6.9267877634865105 3.885785128412136 10.172799403836219 -0.2348463625240665 -0.0911522919358043 0.5319015944767097
P 6.182115098149374 7.6727302638135795 10.134626903209783 1.0450099675063165 -0.7307196026223093 0.8723958714495943
P 2.326454778540953 8.38244194027896 5.72663789555132 0.8778862051402043 0.286371526986552 0.0562415961015483
P 6.9212221037434025 3.935020503518236 1.5770233840642403 1.5046057133297635 0.5339777602794481 0.6097034332475371
Ni 5.455472288484894 3.0185508717417417 0.4214924556618218 -0.9203127497355311 -1.1582956010060501 -0.543482871556406
Ni 1.5645267668157994 1.0975156800219559 6.917165836513151 -0.4821528051883568 0.011899836761379505 0.31583842609741736
Ni 6.905641858831467 0.5526988314407254 9.240660368520835 -0.4799750808107476 0.33514149730140347 -0.9644845591567389
Ni 2.7905659584783553 1.4694062195557607 9.175110765866775 0.05584513199407802 -0.11205510352674251 -0.23131572366298872
Ni 6.42009658473776 1.9922179985313122 2.620674645116087 -0.14050615977858383 0.5943598609119313 -0.7351064188360953
Ni 4.224128608814748 6.635302094804592 10.435036539916695 -0.3497782733779718 1.0455874372763412 0.1467050895004441
Ni 8.106158267788574 7.119361391782421 0.4353363588286587 -0.3832213835277658 -0.05348743039517885 -0.0752487333316704
Ni 7.614092706228831 3.980914681594089 8.017192367564846 0.8350215445661942 -0.9943412375068553 0.6124162041930098
Ni 2.9065442208921763 8.476977102614564 12.45814755239102 1.1111348841598478 -1.0142346339966726 -0.4885363401171974
Ni 0.2518515069287742 4.723326860530707 10.201929958860584 -0.973907909353168 -0.006581509872259633 -0.22664634321177743
Ni 8.572403851219692 2.634106077059244 5.8297926257512085 0.49530039831390826 -1.0326879556058537 0.3528923935269213
Ni 3.6877719232799184 2.8334881823224514 11.562453681878889 -0.6613674372807319 -0.1566385465640722 -0.5919101138198579
Ni 1.0549086634448641 3.194265414213869 12.560933940384608 0.3026160138698724 0.8744990338355261 -0.5073434455213713
Ni 3.0337798856990155 8.31769836763624 7.944855001563891 0.8751592931273443 -0.29511559172776913 -0.12582953160301555
Ni 5.6838534623125145 7.796858885559945 3.638253762225706 -0.47611791184818647 0.6982619963142361 -0.7955682236665782
Ni 3.311963807713344 8.370238916084931 3.5200987684851706 -0.7336899981045428 0.4073920672366984 0.41444126077399596
Ni 3.526061589384704 4.4475925492771 9.359751077548278 0.503571894294081 -0.2755826639011641 -0.7919164858466039
Ni 7.454714906109449 6.24264389933615 11.339285135655329 -0.9351930092814732 -1.3695780601672476 0.197401330303731
Ni 0.6110779190665302 -0.049722595481670205 0.2557312580895037 -0.13737481323845374 0.3117251752599922 0.04584431202762427
Ni 4.7340889372184325 0.544407979726316 1.5395893690347875 -0.6712083346305537 -0.8426708335813359 0.2588206139514768
Ni 5.834603589237887 5.5236110936893486 0.4408506848168543 0.9563002235737337 0.6659848814480852 -0.17651368822144436
Ni 7.814366397761566 8.670073074381511 11.438564617655445 -0.3933762125735806 0.5482993191084428 -0.1576669878285865
Ni 0.12096664256221513 5.088751148129963 5.856537512060442 -0.07599049659370138 -0.9300708575635594 -0.41703730363594627
Ni 7.815843368955529 8.77180396832673 2.536368408890876 0.23469158211375712 -0.01169106318468309 -0.018987082625464075
P 8.488054386569292 1.5562773423421963 3.5800070616520427 0.003368145141284522 0.8144280366855587 1.058321597013558
P 1.7576047267389177 3.122091955991757 1.5002965317222 -0.6472916759139561 0.44230661972569635 0.3746207863429484
P 4.796454946475747 0.8480795613506276 8.184776363732642 -0.09853701443564966 0.4649055880721348 -0.1661428865100816
P 8.606049975491942 1.5469291953950348 12.215682017281448 -0.8508993921387152 0.3821068103073484 0.3839217520289001
P 6.211978735217571 7.851542843424267 1.3990654664432314 0.5951301634190526 -0.6329019828511875 0.052957268923321706
P 1.9378492479339962 3.235980844521434 5.99178844737111 -0.46819197213289043 -0.9280738817381888 -0.5954183840834326
P 6.851651356954556 4.072630990370479 5.970316528342765 0.16506045207918024 0.026752842613811993 -0.4775227626155131
P 2.3936749797101378 8.398850730007023 10.18134062017985 0.5890430766847081 -0.0814692603200855 -0.01512220035341912
