# total energy = -381164.643262437 ev
CRYSTAL
PRIMVEC
9.27507295909862 0.00000000000000 0.00000000000000
0.00000000000000 9.27507295909862 0.00000000000000
0.00000000000000 0.00000000000000 13.57500681439146
PRIMCOORD
 96 1
Ni 3.1088653718217727 0.7782398472703156 9.48994777512189 0.47055121639368636 1.0521926012976848 1.5110208728274879
Ni 7.116809953087714 7.717278184577015 3.875081014345367 0.40892984403746346 0.773245648909978 -0.06386183165096743
Ni 4.067536925833732 9.236544430888092 3.142600667644647 1.006389426920641 -3.9569385638522694 -0.7403234442606605
Ni 7.921079365462317 0.5995379416589282 5.675466378281287 -1.8086903413253623 -0.08522049983240161 -1.9733733554604658
Ni 2.3345637205831276 1.0994300631420428 2.3114567310077603 -2.8308599138983954 0.1705772681323514 0.45801066072451446
Ni 2.4226954650318664 5.289314478033163 4.2939238371870525 -0.21221654093969256 0.20259521579984463 -0.929088181935316
Ni 8.709191600523754 8.815632339241258 1.501911657062704 -0.7448233890135431 -0.3228171714080957 0.10169304356612809
Ni 0.5404112057599785 9.349180918426029 13.106641948465168 0.7336673723967236 -1.90008148874485 -1.18150083547792
Ni 7.928360297833634 7.73452982051415 12.920936435167688 -0.4648449100375285 0.04873268931901285 1.2858554850366113
Ni 6.487616820255774 2.461789898082954 5.018816246597359 -0.2533235953926476 -0.0440414544909306 -1.509667187013071
Ni 2.9390109584256714 4.142859794352802 2.012454344968728 1.5900442427102421 -1.6658305937129376 0.19617799941959116
Ni 0.3763796832463147 4.362437874554805 0.37466657724761104 0.13564368947995994 -0.8179867005710946 0.6116536149953724
Ni 7.233861375413864 5.340605632190344 13.001394911653634 0.7270586088309543 0.02891282637960827 2.0643996633413675
Ni 2.2899227938275204 8.254323466314636 0.8153855874663537 -2.536341589434993 -2.035218928012353 0.9082424488345583
Ni 6.110130620790481 2.8977276081266465 2.490144724009521 4.895584821789665 -0.5045417144065182 -0.31943925607479823
Ni 1.277613492168008 2.0554953216172627 12.142001884923344 0.16859649025689674 0.9018380879701113 0.017881765376427265
Ni 5.3294384441966285 6.250787104116636 7.0816193982978834 -0.5278693333888651 1.2114575297410104 0.12897527632084885
Ni 3.3453426351837003 4.58735839685347 10.781053716105891 0.1762285528808578 0.060891693279049974 0.48562276601482823
Ni 1.8649482201696843 6.0081419171535275 2.016730153660674 -1.4343364354905555 2.204674680945751 -0.6825224740917923
Ni 5.466013895365612 0.07865818480024979 10.402093707527474 -0.15313259029334272 -0.509458177871529 -0.9067545514351223
Ni 3.094201481275208 5.76235248041478 8.433459445346378 0.6474443994417365 0.6622734940347691 0.6061987625283882
Ni 9.251078470411473 8.887588356230662 7.090063424833995 1.679747718014662 -0.14126463521116314 1.7079028402926393
Ni 4.204974958799571 4.618235115151708 5.7924148472962 -0.1166643201639797 0.37528850183393436 0.2902366663689131
Ni 4.34232951610765 8.577151660093083 8.12127532543968 0.235957079089742 -1.5959996889627288 -0.44519448279645263
P 6.052912694932317 3.2402467820634464 8.86606740415274 1.4768668526535986 0.6643015802083915 0.10310020832629986
Ni 4.214834361488374 7.672776383917674 4.957592416674008 1.5340569287113452 -0.40286564012125453 -0.3732650436460023
P 6.032516809219544 0.42393205544314044 3.953612130644359 0.9243930904524919 -0.11472339438752499 -0.3223209484979675
Ni 0.7459356952243766 6.61072486530609 12.822680020939929 -0.17631982704308344 -0.6148489820042184 5.059258420823648
P 6.109453540455313 6.129292921783018 4.889880673128063 -0.4781549968828733 0.07693974788084813 1.1950238096650192
P 0.4999097441219752 1.5301737322584263 5.967423418805347 0.8594542236872618 -2.897723251379848 1.5236069370226146
P 5.94027620739438 7.443849030046514 9.222846075449622 0.23840065553422812 0.6025341691926074 -1.6188285139317862
Ni 4.516014534687643 1.9071683528502419 1.8040638579212256 -2.3888052622825056 1.704601029612916 -1.551548143517573
Ni 9.125818608405558 1.7650371329036547 3.0022075963940917 0.24718971458076786 -0.25286516769899037 0.34582057428180446
Ni -0.06276070953344931 6.397361084070689 3.5281172253864836 2.724215182753947 1.6802817361412612 -0.201610226178756
Ni 0.7539641984863034 7.1471579922201345 5.577359292730189 -0.09296851920893666 -0.059875593309709776 0.3161343600712813
Ni 8.001197446766064 0.2698072384910108 11.273079648106059 -0.9942710463905523 0.8795219409714143 0.2024008404008514
Ni 5.301947127574226 4.981567553090083 1.5746597652935224 -0.05942487892553637 -0.11960489084954239 -2.3037400570810456
Ni 8.362257491798742 4.485787071505318 11.394996773772327 0.7739244201445574 0.32399216555280325 -2.0136453156066354
Ni 7.396138054099945 7.429008913111345 6.448901737693842 0.07535877654697344 -0.08957414881540703 -0.26287678629872147
Ni 2.6515949936837737 1.0053993722115742 7.148096629616284 0.2566243776311064 -0.8924371063711857 0.36108675641225557
Ni 6.878162322624016 -0.14667415074336604 8.073016192673817 -0.6381380344391462 0.6327556870813102 -0.13038989728018832
Ni 6.236327265177929 1.1063399925899813 0.5438977057324349 1.149996851332368 0.10334652000915105 -0.824557926030709
Ni 7.833198047986859 4.800870579258224 8.908557441460056 -1.319649550767921 -0.39157721169162885 0.6721825256183649
Ni 3.9813900470250716 9.497953090701104 0.6936697308860176 3.0364715479270608 -2.7043940342629615 -1.3672116168176
Ni 9.047360765183932 1.7296341789401908 0.6383420649224715 -0.08653253377560581 1.5277137601021364 1.4000289204579373
Ni 4.27398150254811 2.715157069531722 9.843441215532247 -0.8718618533229953 0.536412852083502 1.9915459126044346
Ni 6.057040102454911 3.5498394465503385 11.273636152491127 -0.6602891166148886 0.8064234212135273 -1.1530022138175948
Ni 3.360887657673291 7.389404351040611 12.392909306990108 0.6603271689416756 -1.5446452457501527 2.146973726689857
Ni 0.09630586635809184 7.7199494056253455 11.17817617279834 -0.8932871130763067 1.5519052697466755 -2.750757966239482
Ni 7.559954394918048 2.5934773857364153 12.694070930043207 1.3839600399205325 0.6649664674858999 0.799378598551604
Ni 7.5327413304881805 2.545265555843283 7.382251414677858 -2.03608513266739 -1.4125082838718706 0.2380317022305836
Ni 6.1093422395783 8.423881077372034 1.7302704489537861 -0.010525582121672195 -0.7993603437191588 0.7970831176492079
Ni 2.063546085054592 0.17066690979830157 4.926600687469523 0.8052908502709809 0.3581587841321832 0.5087228423674013
Ni 8.428212536502485 2.45909085181537 10.043115916402263 -1.2659898564609358 0.3863779268788765 0.7301310771086909
Ni 8.811273054891553 6.325034064157906 1.3706007373764724 -0.2326807223313154 1.1599349363816862 -1.828222240710703
Ni 5.117920402505038 5.664954937954644 12.584452551286962 -1.6172722251882596 -0.6066175952333617 -0.5013406909707173
P 1.0645094129789718 4.366593107296653 12.01075867327063 2.324919776482454 -0.3598456849163028 -1.5602148180536355
Ni 8.3041306087783 5.504848626370333 5.237427864183959 -0.9026253597580971 0.28171423072019874 -0.46818451593372273
P 0.27479630030315316 0.45988687625513114 9.71610744718464 0.4225646612120787 0.0983927755483015 -0.0937953859856062
Ni 4.04244785314021 1.8900001925708676 3.9685987937342637 0.17732384282756558 2.984847653103182 3.16810328803415
P 2.351268127208278 7.751252777285469 3.5178543570185057 -0.7504541049367591 -0.300369898148173 0.14234552698016775
P 4.384410522691941 6.938005094165088 0.6303664295771262 0.2945286088760476 -0.26545765965202023 0.7735120151974871
P 0.4373901864887224 6.691167574167794 7.831706616234874 2.3359739774140866 -0.456978105694942 -3.1821957615714744
Ni 5.479564777142038 4.437157863323384 3.7488194444463265 -1.9419130800686555 1.4390922050079862 2.762658831442126
Ni 9.012848218236579 3.087245176461847 5.0258884898242755 -1.596980050598127 1.751093259637184 -1.296382095599548
Ni 0.4681936317095924 4.209241492418433 2.840909437918424 -0.4071385564649956 -0.6720688828586361 0.14692234771757276
Ni 2.912094696334508 5.0613424566897045 -0.09034755940862123 -1.243386260128807 1.489858894037892 -0.930026120368553
Ni 1.7557713348922581 6.228758805540993 11.071449761829832 1.849308371957041 -0.8560230865185257 -3.4132564318008636
Ni 4.06194405676379 6.674778520027517 2.7048468982910125 0.6968787428134643 -0.16592100030726264 0.42531497026370624
Ni 6.58545029115088 6.710682327937542 11.100812788200685 1.0358522122664484 0.6506983876026601 -0.2040805420961195
Ni 8.939083561995702 4.381952628324553 6.989119094426354 1.7431179547411912 -0.0679866524526184 0.816346336754194
Ni 2.239067568105311 8.734243572924937 11.323157622703787 -1.9099516966707104 2.2751812716067463 -1.6183292056978644
Ni 3.1708970606107814 3.4763159422096575 7.814995717058564 0.009615668712893117 -0.31439860832709726 0.6429801930227959
Ni 0.8242479197985754 5.106345111295606 9.087666522779852 0.9020985407203497 -1.0886462161390282 0.9119391809598553
Ni 6.640711176588217 4.323946321254209 6.329238454787101 -0.8801387486198068 1.1700781954632753 0.15615466494911817
Ni 3.9348941056525684 1.1051806084544211 12.07898703838738 -0.8197779881435625 0.05897210765883392 -0.7565365636854132
Ni 5.408193089756956 0.6862830626815369 6.044258124237189 -0.5292934674299012 -2.0458296136486633 -0.14960915052111654
Ni 4.946405751026815 1.4735772362969228 8.118057802586675 0.9185052642131472 1.173416772918205 -0.6694461005238085
Ni 5.5317834386076665 5.342636873195845 9.335613341518052 -1.306207309220086 -0.9818233075455026 0.4745156003580731
Ni 8.272187257075347 7.4435429526347265 8.942223174234798 -1.487890714567928 0.48157739230086094 2.0863237171079683
Ni 2.8410569115804676 7.4658309532567335 6.604105245645697 -0.8543675531929737 -0.16715307294215084 1.4119020177464392
Ni 1.877497394052987 8.476071913618407 8.686063278280292 -1.565758373579684 -2.11675915077969 0.18590284274582822
Ni 1.9338527381142938 5.099379531409161 6.4907944602945165 -1.0270515832556828 0.467079455795002 1.1489432132568729
Ni 1.5674131506926174 2.718264219015023 9.848925566247102 1.2631295041940052 0.4600775705558722 0.6603549368558175
Ni 5.5879996565727055 8.159049915590845 12.917731897417 0.46104893333020597 0.7119063265705482 -0.7966475727736861
Ni 7.412907386236685 5.37624046298092 2.8332528650871853 -1.3768493970176805 -0.9192819944781716 0.6469283790372665
Ni 4.272738642754789 3.3567324249314434 13.06269943471282 0.452885166572491 -1.1571555738643362 0.11390295536875868
Ni 0.29345681984182054 8.690010749385047 3.63484363635499 -0.3971266807549483 0.2211279844967095 -0.2068244233898438
P 7.63623259596482 4.021078084753566 1.1888297100814302 -0.4380624997373617 -0.8488242547772414 -0.2043091131671578
Ni 3.9639992849916696 7.328875224091288 10.284669427263328 0.09832386998357905 -0.615653994404017 -1.2095070908828591
P 6.047913430539782 1.369687142677651 11.93957155983993 0.33444755655817243 0.2923136035025998 0.3228742498982762
Ni 0.2559196715616174 2.094469178718252 8.098835213619086 2.1651971916764197 -0.8868138466471372 -1.1026402164252753
P 4.30453359328839 2.5254725498810005 6.089843253432796 0.5312354216476206 -0.2906989507173122 1.132719552309159
P 2.178176713305693 2.9065853029223256 3.5234203283765027 -1.8006924107215503 0.3904310139023276 0.42145548730829996
P 2.5599943719014386 1.5794336454101048 0.2797603194179674 -1.4636562675005953 1.7165373760391858 -1.7628629985786026
Ni 2.1339717149850563 2.7921958265714215 5.75064455566024 0.5653513894947231 1.5934653525766493 -1.736590952255951
