# total energy = -340867.3433019334 ev
CRYSTAL
PRIMVEC
9.23433004600593 0.00000000000000 0.00000000000000
0.00000000000000 9.23433004600593 0.00000000000000
0.00000000000000 0.00000000000000 13.51537544271442
PRIMCOORD
 96 1
Ni 7.424170577263729 5.176543854622584 10.173914924900393 -0.162358736877301 -0.48805528671572074 -0.19815800596409744
Ni 3.2791013996900067 0.289547962253118 8.537892662603289 -1.6411978827659222 -0.5040233800092029 0.35913580333347184
Ni 8.641550788765123 7.262209660873757 10.2751998282153 0.40109749247723825 0.4125468719647605 0.5139925754067729
Ni 2.3165240598431285 2.559839424798907 7.625199174192562 1.6729006131858413 -0.2568231239054738 2.0615904760273462
Ni 3.009579005786469 3.4588199329462728 3.3619905939256913 -1.187788725369161 -0.43272000447852565 -0.8571124629279625
Ni 6.00974822915653 1.5294728673672866 12.953595123996836 -0.08442140096987397 -0.10385379866287275 -0.26060547376604154
Ni 1.6176976575599886 7.424503013148902 4.167358080241519 -0.47630560237896036 0.1361003174014043 0.12945632972232543
Ni 4.540178461431284 6.765014857277831 7.16590575523835 0.1294676425762351 -1.2321574812925231 0.7441970682834539
Ni 5.851878121020206 8.113217823924714 5.770241101952005 -0.7118865290762062 0.6851794520986652 0.7423067932392765
Ni 4.465583542530651 1.0657986821929137 10.743723883581131 -0.6236565529935194 -0.38824531910491844 0.11505918046038895
Ni 2.938917911527043 0.020407869617528957 5.378186534505972 -0.7388733420776952 0.20407000057315822 0.015846737224269485
Ni 7.786525692101665 8.80407499929386 8.676627391815883 -1.7912749740623926 -0.28400456941627217 -0.3369063025113101
Ni 0.7378322128100366 1.2304375543245536 5.175915920172814 0.9136530783271685 -0.2865998409472741 0.1632172282228544
Ni 5.428511786922989 8.697557001086532 8.42595780633368 -0.5826454006884804 0.09251651927318259 0.3335499844445675
Ni 0.9327873908033721 6.340540403563373 8.72474286902952 0.8904553000544665 0.7961042986757064 1.1106643722813323
Ni 8.82788110240426 8.766260417355497 0.5782380552358884 0.4196765410310062 1.3195719034524502 1.0480130159986984
Ni 5.022496759165744 8.818628303600295 1.140908876715564 0.4303525326876137 -0.5057915276532193 0.09001432167661917
Ni 8.134872328111639 2.197401200989679 11.727602052770434 -1.3382455686025534 0.4154990126145489 1.2996587094682905
Ni 0.3186619583301069 3.8779846468281165 0.3596356046106217 0.08559665222489775 1.3447386325260648 -1.1724634078660001
Ni 3.326353467035208 2.381229011159882 5.568064677786313 -1.235268259007363 1.453109859443317 -0.7227504683739037
Ni 7.191271536710019 1.9313139778995898 8.995455568088577 -0.25397279894087227 1.8417583275239249 0.7054225186184174
Ni 3.8572351069952715 8.290507728353193 3.40661826464406 -0.46082190492106445 -0.43762361242773024 -1.3350162630319782
Ni 7.386005090779908 5.221792072326608 0.46822393963616304 -0.7459173934086702 0.6657205720431051 -0.628128472721944
Ni 7.0513714350332934 4.792681984880023 6.059780753307993 -1.1044466735063945 -0.318861014973825 -1.0377106056314256
P 2.0309985718005965 6.1254082142061 10.82782923909674 -1.0777051437464922 -0.30606874830516323 -0.9722356638570676
P 3.6440051896475967 7.113583117211255 5.198675773677938 -0.28303783462762866 -1.0456568570616958 0.3502408148366871
P 9.025098691282798 2.009574925867263 0.942816796772421 -0.37094410882230955 -2.8928109016798955 1.4090025847114571
P 2.805491075281036 2.7956288106875875 11.885097247102925 0.1677120307694144 0.1709518778629507 0.07642552724859096
P 3.8585002102249555 4.1391961436023434 8.30572498099696 -0.4276456752794119 0.25055091774351684 -2.6128051690103713
P 1.7458516912939557 4.2053047131009365 4.98743031387814 0.5829176805132605 0.08031740610382941 -0.42783876512682445
P 8.506369429791816 5.2964885688588215 12.046808836579018 0.09537250066473897 -0.2351340689678144 0.2626533574340057
P 7.868794339351694 6.809468922589498 6.214531504721783 0.07729044635204753 1.8475880468318246 1.9918937828621568
Ni 7.110083306086801 7.004008555726369 4.266209737563566 2.2465114144758793 -0.5266704279847575 -1.7317732191523336
Ni 1.9316371794546185 4.251143927934155 9.525988150369209 0.9627894308425033 0.6616448593118347 -2.114723865517216
Ni -0.10596116809966492 1.0767044260925978 7.612143678235429 0.823973771392465 1.1450451637540473 -1.2685730438070797
Ni 7.302129670084877 2.3212612712068355 3.5808580698260815 0.46148473531604395 3.991980643058067 3.7557024331834805
Ni 5.149145597086291 3.833724502449466 12.57697573938596 0.34802580946323936 -2.1961442748772373 1.6407474254920644
Ni 3.441736422180468 7.14522916661364 12.134239474379363 0.45747947081139273 0.17003193715184264 0.4493684116684841
Ni 4.127680933913177 3.6475788754132004 10.304190084268363 0.2659487403558259 0.810161805210037 1.2889534072356446
Ni 8.76589104414975 5.632359624844686 2.6589477964989485 -0.3833005735051334 0.8806503981489027 -0.23882900132089838
Ni 6.846572461106798 0.19806622381874064 10.886621448822497 0.9184229889119859 0.7624999803576997 0.2318469135761104
Ni 4.871090682129995 1.990515268450711 8.65578735554763 -0.2578780475325494 1.181540430466604 -1.189536818408519
Ni 0.556327760103983 3.1296345319844305 6.497801045910213 -1.5390091305102978 1.506010049876458 -0.32853067685310516
Ni 5.525056708575145 5.765814164081125 11.742915342447697 0.3245750346394668 2.4294975977955446 -1.1426401538569806
Ni 1.187340935544007 1.686945899307432 12.813467857798575 -0.9957059790648658 -0.803123924526649 -1.2021349667885037
Ni 0.10466836187954998 1.0481334086280572 2.9113876030696955 -0.41177708367827154 -1.9290997303540713 -0.421785616954209
Ni 4.296973908437231 6.8895028619447585 9.753722430073559 -1.1579621289260316 -0.18500784173538462 -0.15967836183166048
Ni -0.16120093101914829 1.0497678850634884 10.000499745400203 1.5534764708885374 -0.7106729683840793 -0.1266859660660399
Ni 7.161213792092347 2.9838244590157506 0.9443977140930188 2.008375068346632 0.49217290842852013 -0.4704121197126608
Ni 1.740098703614444 5.138941662277526 6.993653177903247 1.5686616632694081 -0.13533798531408303 -0.3211948053133242
Ni 4.391579620759214 4.995181610600743 5.656360572321121 -0.6319591593219438 -0.649662747249294 -0.36185448781621554
Ni 5.156163687995487 1.241066268319927 4.732165725716441 2.0725837418140567 -0.6021919553618403 0.5460930554857434
Ni 1.3969232924849289 8.208119034811295 12.558013965868932 0.9617154810520341 0.10891784344934145 -0.18583316585015736
Ni 1.6157215109092418 7.16468590022637 1.713655275815007 0.5583844712585867 2.999340961623351 1.3678160831708186
Ni 0.6132130806550699 3.6924115482607585 11.156266659316946 -0.808002335664873 0.2773204725278772 1.6361420655095693
Ni 6.0783962394446345 4.246517528532172 8.172842046796415 -0.5906739274199118 0.8415030385254798 1.361932370696532
P 4.520749430808985 0.7604092265783157 6.701315524513724 -1.3544697437708997 0.13768488827970482 1.3574853906687718
P 9.09938887728869 3.2592475898810984 9.069533364501163 0.22342192273720876 -0.6240586735279445 -0.16053942428037513
P 7.091937847354473 4.67927517638551 3.924837791111111 1.124022024535161 -0.12311470377501377 -0.9954954057159566
P 2.753714186165432 8.645355332784318 10.595081641557387 1.1046418202363364 1.0096256744697516 -0.03368273696442586
P 1.5374975002621432 5.1557481431390215 1.5436992763866373 0.45969524751578894 -2.5005672600488613 0.6563532718955922
P 5.971601211332995 2.72288075781569 10.820342044216245 1.9354277294546278 -0.9570661552054808 0.3247838082161632
P 6.285125188371159 7.541585085040599 10.152506977328304 0.6249261637345624 -1.2920261326236975 0.7507814063691909
P 5.470315599483421 6.313723908826131 0.30572835553087113 1.2568572980320483 1.2976974719768617 0.21379057029503182
Ni 3.574913931512596 5.822429842192016 1.0119043611753644 0.12811267121023742 0.337657835965354 0.39969212748927935
Ni 2.5166042910662054 7.730371730497957 7.1846246658726 1.2404842559906635 -0.8831963044992079 1.5830125326744413
Ni 3.1279077122475627 5.735821059774459 3.340298228985177 -0.6171519191057823 0.5752275109578545 1.0730103093739842
Ni 7.547642805614852 7.37822978479893 12.357756435507095 -0.8157938066848337 0.17667309661744413 0.6272602111843778
Ni 6.747368052373262 6.812073003690015 8.025051210011917 0.4134189901570687 -1.6078144222094697 0.4343873648786196
Ni 5.448374831062042 5.957971340040927 3.1089551730606773 -0.19916279307952797 0.7887609709367578 -1.511838483632777
Ni 3.6034295429962744 1.0968445001359601 13.00215661935641 -0.1956061860765212 -0.3508475951827506 1.1262552847410539
Ni 0.025311298923822112 5.624270351638825 5.247506911477708 0.935648351651337 -0.8756773704143435 -1.0907072124331152
Ni 0.693703195919427 7.99237737966454 6.2782437655480905 -3.7961903659951974 0.7697201522552227 -1.0833155479547343
Ni 4.530011463943095 1.3795904548052447 2.668976279034983 -1.4046599914720455 0.864899305962233 -2.135068747722155
Ni 7.90054196638566 0.2809683461166266 4.84018060884006 -0.9024145292988717 -1.019677916499431 0.10064146237316215
Ni 5.544707363120893 2.9106700956175313 6.416627590215224 0.06863277067704954 0.03930239714404844 -0.7393703363187718
Ni 5.2506308853653145 3.6641729666813903 3.500211894382296 0.12828570645299198 -0.8528606296301441 0.44717346089969434
Ni 2.1265184828068042 1.78808951737114 10.113325714528678 0.29220536005950964 -0.269846018527703 0.044991219998709614
Ni 6.9538384400557645 0.9454107201097803 2.1943427908460924 -0.805705054990264 -4.221017597989208 -3.598564835495803
Ni 3.1187195537546026 3.377225391796732 0.5853309442192476 1.2123191064103573 0.4051930027028505 0.7463701646753726
Ni 8.430564813642361 4.927826406532754 7.8393229746981445 0.9294429941715735 -0.1394535501443534 0.8107701282179973
Ni 2.9765570411926756 4.8637678583260575 12.421198130460196 -1.0209930357664285 0.6173776619633431 -1.7831379467775548
Ni 7.068704272712978 7.568004503581662 1.562499449126152 -0.09486187957690759 -0.7888985249558864 0.6494658007471396
Ni 5.213564284168591 8.595646933620896 12.307411790996778 0.2860182574121913 -0.9849027178017746 0.3539205776811195
Ni 0.15306640959558213 3.406248891438312 3.1158753800703494 1.1674600411141376 0.524652112003148 0.21661672688991726
Ni 1.937048496918814 1.8107782665341574 1.5389149699391977 -0.051740108686768954 -1.3571416341761078 0.44591876255698687
Ni 6.5841697357440365 0.8492988885413626 6.9717040985847385 2.3355127215069524 0.5403504965750113 -0.5978506476740091
Ni 0.22976398546993065 6.3761387462672525 0.16327496156941843 -0.8595732657636294 -0.5691990453755874 -1.1189263551798083
P 2.963250371455635 8.567796193907563 0.6978180134314501 -0.3339860435407216 0.11436472549652563 -0.35052954972169953
P 2.2856998658235304 1.4344516101888374 3.577385038259044 0.3359531945694214 -1.0270533830278956 1.3309186959238368
P 9.010102139129465 7.875036746528821 2.989087103764633 -0.5056092364390841 0.7664139707001253 -0.260716545422609
P 5.909860479992362 8.699071431230093 3.600117188773737 1.0275871440441786 0.264975320698963 -1.55670860467259
P 7.914245712318878 2.398534145849135 5.792514306258556 -1.0831222009970054 -0.9615429600299117 -0.15375865391311586
P 0.5702872969821814 8.459098893786326 8.511537884373233 1.7446493037840534 -0.4319201342850497 -0.010919989346613453
P 5.239632798164195 3.0765556023185674 1.3643501163361182 -2.9217494390911165 -0.2682701894001509 0.1733610015250756
P 8.905431006950872 0.02897178739277617 11.966580976290741 -1.3361519192983182 0.3572758673065976 -0.6608545022000555
