# total energy = -340864.6292414999 ev
CRYSTAL
PRIMVEC
9.35432658264405 0.00000000000000 0.00000000000000

0.00000000000000 9.35432658264405 0.00000000000000

0.00000000000000 0.00000000000000 13.69100250352438

PRIMCOORD
 96 1
Ni 6.5090676878907505 0.8523924107153728 5.0313610098949955 -1.2111101737039205 -1.1871320656217683 -2.30339707191933
Ni 3.5667298092956528 2.0461934125939147 8.84064943733112 -0.6288208708032784 -1.6393171208034412 -0.4205895397635789
Ni 4.845035924712414 9.25794874288073 9.549446390277764 -0.5873500052530014 -0.06939561698500306 -0.28377419857302094
Ni 4.969177189934771 2.8764740666419217 3.0692218323083895 -0.7246248025784812 -0.30858277297626857 -1.3682138328298694
Ni 2.2738402990720443 2.5136384555014843 0.032916003621763744 0.00248265721253766 -1.10442507623984 0.7511161640007903
Ni 5.781899773391085 5.299787146739361 12.03845677531904 -0.3488475340335863 0.1425869535670125 0.2590813238120312
Ni 8.001587877121992 5.543224136125738 10.598533156954026 -0.3642816092004694 0.3135393456505955 -0.6268506344507849
Ni 9.294430615713763 2.824707224524484 12.968897943513822 -0.03413987910650249 -1.170535851825984 1.5139416460187087
Ni 1.9694131017699301 5.282528414591426 4.19337613265076 -0.15881807071389423 1.2428080190278337 0.3549855286105241
Ni 7.239696703146372 8.834525159858355 10.61182752558744 0.2830380917379448 4.324638711815984 -0.43243615468951974
Ni 8.486216817566557 4.529954149677781 2.878957640292479 1.9353991902095378 1.7909345600038384 0.6157033595847139
Ni 0.8420811367605386 1.5355126732160163 7.68110397861016 -0.34471320015023854 0.44584342923436115 1.0207665215779194
Ni 6.183097476964412 7.739049353293296 5.6155695608189165 0.767691294750652 0.5181785884636624 -1.5398653078630058
Ni 7.693241217071919 6.921948945097017 7.3782043428038495 1.9706114764446123 -0.03900903427334572 -0.08927512951774948
Ni 7.069868907945416 3.353058286410485 4.005343882906121 -0.21025556055857983 -1.3282982275818542 1.5953692544675815
Ni 2.985798078898246 2.9580718555451404 5.1089757266309554 -2.1415533270052345 0.8346685321021498 0.036795314451478565
Ni 9.374625255661865 2.1441893356192634 1.9538839845673355 -0.005700392818886956 1.9836330855152613 1.5496231585807183
Ni 0.881451625575839 6.673367076208547 1.2893853795663635 -0.3115415984942764 0.5439032469232762 1.080221739520759
Ni 4.297218509655761 7.095368801623071 10.806567762770174 -0.5806579379448065 -1.1063600884790237 -0.589068787716321
Ni 7.9450503285571585 5.812610026855405 0.7971476300545188 0.2704116612231859 -0.38312188183542406 -0.1537519690448965
Ni 8.862054942357743 7.594047940271538 12.045576353117301 -1.243492189579052 -0.47935775894172283 0.7702006914360671
Ni 1.5855863822609468 8.195175661296256 3.9060841903885306 1.2165488282209889 -1.275917657097609 0.8069674666424553
Ni 0.18018864708553664 4.940197486848428 12.787793507876911 0.07747248045586658 3.4652153413666578 0.5761317679396788
Ni 0.6229607187663346 3.668149415771486 5.125418761519649 -0.8886568133931468 -1.038884828445185 0.4429882191737532
P 0.38622049162641225 4.469263280205801 1.1853259821896371 1.902824084486994 -1.5534703002409505 0.12728580443356788
P 6.178186455621504 1.1940891151306592 12.429129926296355 -1.9357899978900532 -0.12194510894694482 0.22895005164428955
P 6.600571708417093 7.133534453202245 11.32585448240612 -1.1498338433919424 -1.8496215323220855 2.152683889700757
P 5.5159749834173715 6.89773994845807 7.355477071461506 -1.2336597768696624 -1.2681040745904613 0.3716866434152889
P 7.18578772029079 1.2835538925088985 2.743265652871602 0.38577963117324526 -0.5100911834698375 0.5681441217485118
P 5.402235729115614 6.114277697879123 2.910666000380205 -1.492503273639275 -0.07960803874163064 -0.8805586097660447
P 4.186453931138852 2.705888571005204 1.0004620427856519 -0.20784489423455818 -0.7084397081781864 1.2133467763439234
P 1.4170869014041692 1.7991362989033377 4.082575072261017 -0.3247606682877117 -0.28561022334049524 -1.230012152814746
Ni 1.0511175909306374 1.809182845421973 10.286405478186232 0.2597410688832172 1.0933086546117041 -0.1710431520251764
Ni 3.109350021559453 6.150581838511175 2.087302870680923 0.7959657162153131 0.5136573035545412 2.623061813741373
Ni 2.584628438304021 9.101123461330523 10.979608769078347 -0.32566723926238106 -1.0569565983452314 -0.9212779418622778
Ni 1.0593493981339885 8.066301106931974 7.649888591521997 -0.3192536224265534 -0.9005044567603524 0.5025305975137603
Ni 6.8299584995995675 3.4120186055044877 10.880266758488721 -0.5064731271012762 -0.9456491716177906 0.4623401413378037
Ni 2.1570983060063367 3.7244718148298688 11.62875411821243 0.17211453071248423 0.021545073160627412 -0.22635195189981014
Ni -0.1565596186813718 7.996340100029856 5.750070742493218 0.07430513847147847 0.8467853699703416 -1.5745872847252238
Ni 5.215205327724928 0.39665617812193327 0.7235019539962649 0.1664791868035778 0.6367606944756453 0.42761765025495385
Ni 4.305122915436253 6.836160417981183 13.94784503565435 -0.28582259646161745 0.20740317871144925 -1.8069039388489012
Ni 3.723283815381204 1.6229756247516225 11.460107774431684 0.40637725281893883 -0.08730720715810125 0.013387734160815654
Ni 3.6356337773182488 7.8760715259236225 7.640660548560514 0.10447266319379428 0.0625197158007762 -0.6847135682058402
Ni 2.29395210076205 4.105389338838577 9.213729906709183 -0.030097333606012685 -0.37997716555885525 0.8599848993797512
Ni 1.899395968909608 0.49828625694103423 5.979696068998062 0.7279690364603657 -0.41697405449817865 -1.4653161717015215
Ni 7.181999218111975 3.104373519931973 1.5788185271341009 -0.9318567458193887 0.0950490558870492 -0.7650075772709019
Ni 9.59566798772458 8.935617364911327 10.232353374137228 0.09897924417939083 -0.7721796695393088 -1.0994427925339
Ni 6.905307598489333 7.230753967139095 2.2974599731498415 1.6205892053766349 2.071953821539541 0.15280785996407228
Ni 2.2983579884811163 6.383934864073446 9.050943112965003 0.94871881168205 1.3419093906073856 -0.9587147465524973
Ni 4.817786772004048 8.96302554116794 3.150655920500178 0.7275579170648759 0.16196792919678557 -1.3580299503183322
Ni 6.454513256515815 7.2877311690432 9.202092189275445 -1.3000317765369933 -0.8953401389505934 0.5438891058558891
Ni 5.2520146019808225 4.676863845278497 1.0780215689960444 0.6806489112181633 0.5580849377402969 0.3222214468056257
Ni 4.7845414960941515 3.4733829864749235 7.465443725939274 -0.8169965687436834 0.08673385115313449 0.6945089570297072
Ni 7.597050679035487 0.782669939135625 0.4617660313698941 0.34692229198641544 -0.3487758002553864 1.317749762642047
Ni 0.6063175012933774 5.1910524570441865 7.595891677998561 1.3388798597524425 1.5591984609739793 -0.5984548569169112
Ni 3.1050002597985915 0.05181735547982212 13.484117402045202 -0.3453816869721729 2.0586753592630807 -3.2166408306232213
P 2.077941996285021 6.810726004588102 5.717444722988845 0.15761042355903823 1.2032942772039277 0.7835161775980506
P 7.1897258916914835 4.156267519951108 13.293305981936797 -0.33217110181916987 -0.2353505558539947 -0.6245009032716857
P 7.63251293029447 9.292456852850233 6.695132722800316 -0.14223111288949053 -0.36086461309912043 -0.40495389010885097
P 2.234149892294977 3.432803918692949 7.241732204563928 0.3536963774854554 -0.4659849371792426 -1.288066119534685
P 8.369166131730726 4.073191747481833 6.753237121031698 -0.9776054128094133 2.0566940671669935 0.08754657686241697
P 3.9992083802417144 1.05575733680889 4.557309941706736 0.8055654440886062 0.8856992734267198 0.08797543686971945
P 8.410783529739485 1.3000736328738054 9.290755300883994 -0.5994748135409933 -0.32859983952814376 0.29065524196357034
P 8.774788431675853 8.228037409825088 0.5544103442804278 -0.8906360486067049 -0.9230928835838296 -0.3632343988828777
Ni 3.913672419937802 8.43137240207423 5.145625977338603 -1.2461427398280216 -2.0615909902479785 1.2218584133593602
Ni 7.672362360619783 2.2712397963418947 6.267371538641357 -0.39396345253561826 -0.04049924566562703 1.2741284264076704
Ni 6.461388686395886 7.389141421192665 -0.1300522640539443 1.2748593910364239 0.986710717544791 -0.4468196771047015
Ni 0.8115579698235672 0.6081921082974132 0.6062333123560704 -0.3916363470643384 -1.7752829695095103 -1.783444165164064
Ni 6.22508904802787 1.8583772477883638 8.356440506140453 1.1136756483038304 -0.5271980183534534 0.8923003236830052
Ni 6.756461557330556 4.314411761519125 8.575414061210688 0.39054774198584996 0.20296931130981175 -0.0714301309165286
Ni 8.948694713173014 0.9918953506983462 4.863933534839926 0.5063412295091021 -0.3561859766765285 -0.3319286467910606
Ni 3.659702459061683 5.515638227668144 6.792407427262734 -0.7200672651147857 0.1599408714644278 -0.04739622989577644
Ni 2.369787624622923 3.72102942272665 2.5187880121667625 -0.2860406260096945 -1.2625258091717353 0.11821083871549319
Ni 1.6183452331997374 7.237245869638102 12.77927732915199 1.6124061553452103 0.3758790842300817 0.6473376986605432
Ni 8.100126351076653 1.3686408451471739 11.916743893221671 1.321157502772015 -1.4104442022539903 -2.7910587227410577
Ni 5.008568258268079 8.762842956904626 12.115934918890035 0.29563624011792955 1.12601977169148 0.058795729981969705
Ni 1.1028657243953404 5.839756281973728 10.835333251782702 0.18197291156380274 -0.10999282168107509 0.6026637527919364
Ni 8.602350779418382 5.808830879002958 5.414832265002015 -0.20668944047387627 -1.4490860829959045 -0.23381072217070054
Ni 9.361342112220095 9.152375815497752 2.7239751610366576 -1.8787611300005194 -0.2961743720095867 -0.8551129159994305
Ni 4.887354897198733 0.6720550298405936 6.742996939957257 -0.6264533990123663 0.04434484466396234 0.5461969280534594
Ni 6.158243031806112 5.07006359980766 6.329966013529111 0.6026601532475104 -0.15449373230692745 -0.9533786790515645
Ni 4.474801041415328 5.107116086549107 4.359871916799632 -0.8135687740090568 -0.9268294678081263 1.1052056631596063
Ni 5.115216933183315 2.8885692106350276 5.359794214953881 2.5033872459961595 -0.35940422650351006 0.6984046925396875
Ni 2.5590630643417946 0.9988643238420923 2.090164359116724 0.9536015936956481 -0.1929795470869515 1.4203982281429086
Ni 2.730181756581457 4.670970619667007 0.4413034424411092 -0.5057758439239354 1.6264124969266311 -1.5528005278674355
Ni 4.666667629537982 5.203559191397461 9.20503599578328 -0.4837515171340442 0.32681883636832104 0.2535652790898085
Ni 8.978955958971698 3.4494172023215306 8.806408861095727 -0.11568267297700077 -1.292112778800233 0.5509940923317865
Ni 4.350977823289465 3.4931206151102314 12.701991884704164 0.8469743460526962 0.2605296262227836 -0.38549063917791676
P 9.304262012725948 6.80337350406329 9.275777153504443 -0.11938583286020085 0.9075929881760175 -0.8742203262528427
P 2.8697763689628317 8.137244318102672 1.197578278865716 -1.1746622152895319 -2.029134155270854 3.654945014057744
P 8.853327355856917 6.667745126061713 3.5239683771721535 0.25468859406097427 1.3375444287704705 -0.8787976612108801
P 1.3677802471213687 1.1710400549612758 12.306938102688974 0.5517890774292561 -0.879833301564246 -1.0042037321232318
P 3.10185720613913 5.722574635568751 12.06421017124125 0.31126469068380586 0.1208305357265274 0.04018994195532433
P 0.011946410203863384 3.8296518605054155 10.913289401431074 0.2405156449947019 -0.2103553193612377 -0.09013799173867702
P 2.4156238238234007 0.025129462353502934 8.537065064834714 0.6356201531132989 1.5967273111573728 1.5422867728203051
P 4.485408847516011 3.3037609864540523 10.323522509779616 0.6992863238136925 0.8193982362066404 -0.08820092261696423
