# total energy = -340886.9189978776 ev
CRYSTAL
PRIMVEC
9.13264457926975 0.00000000000000 0.00000000000000

0.00000000000000 9.13264457926975 0.00000000000000

0.00000000000000 0.00000000000000 13.36654848362535

PRIMCOORD
 96 1
Ni 6.4614190517514665 2.052534455616031 11.46289811850847 0.733444200642324 0.46591783138673304 -0.48643266351063325
Ni 5.018068515508827 0.40190302673064093 5.958459660463463 -0.8119188971104598 -0.13679117282084183 -0.1031212913722224
Ni 2.895970706662599 1.8203004383794936 4.348151596881642 0.8887210909721791 -1.3067809223353688 0.6427073989773835
Ni 3.436111833542844 4.347230113050617 4.378935001730406 0.3102820150555624 0.3478221780928655 1.4117598357416203
Ni 3.6076137647900395 3.082614562506836 2.410148722797001 -0.09390568631122537 -1.5571983998248151 -1.0503213524169008
Ni 5.5205740143647 4.313886827945791 2.7913763556221873 1.260949722933867 -1.3614888554012101 -0.7805653224998428
Ni 5.292066116088111 4.5492168116711085 11.33566211519967 0.05474238584820249 -0.11139587267618879 0.48284263216652973
Ni 5.77218750325077 7.932322776479797 12.297304923928321 0.5467407163720712 -0.19195367692559845 0.015622794138921479
Ni 2.231516022716651 6.670246101109705 -0.019901858915484766 -0.8225825474718931 1.0463379422891206 1.0554980115218338
Ni 2.8571843654300073 1.6562050818296452 0.4335750378901954 0.18431030144772773 -0.6331102422072515 -0.6733775743677307
Ni 7.904440812791758 8.770224644953501 7.085620691756569 0.7326386740218931 0.5891497774659015 -0.023221432421785815
Ni 8.841258353949756 2.632174270000623 1.1874310054702586 0.4168601546281337 0.33252180029036926 0.8605813953131696
Ni 7.332974715243325 0.5230009796644866 4.772232337539579 -0.39218682025116974 0.01944499609848909 0.7603394823712712
Ni 0.6315497657775873 7.512138935234138 2.154968022965453 1.0413392035229485 -0.01946710758567615 -0.21652468139674322
Ni 7.840521433868538 4.128165369197031 3.847253443459473 0.7649708104956954 -0.2597307844705721 -2.4156681481116205
Ni 7.239538629264835 3.900634663882977 12.630773392290159 1.996830815152458 0.5149181725448357 -0.21148171965619705
Ni 8.559397546447643 7.535628096913023 9.311564888057868 -0.43809232453403263 -1.1917927043222314 -1.2668645457564054
Ni 7.1277093972438585 1.2527887759037508 0.3289277175116282 -0.7599245063210396 -0.9928253150829611 0.2331589475193146
Ni 1.86515085556651 6.859638882951356 9.054754011181341 1.2587149200660774 -0.45435172381568856 -0.6843649266171697
Ni 0.2317116299705839 5.2121098134059025 1.1757138225643449 -0.6355990700673763 -0.5086598503399498 0.22953343495158535
Ni 6.7919842524236795 1.992259001852173 6.811953692908536 -0.19126179306489643 -0.12250689498768579 0.46035704946950395
Ni 3.449619014772654 4.434492531340566 0.17908385271912808 0.8330034856949009 0.6129386523553831 -0.77129829537562
Ni 6.1365708865423105 5.702249711595674 4.658242321827615 -0.24292939664251714 0.5085400369326338 1.005080221190914
Ni 5.705866238821506 3.0714453382715026 9.213494898255167 -1.8456828593893115 -0.15087104795267564 -0.017668363814040536
P 0.25938262957044955 6.006960395660997 12.457262279250834 -0.04198894283727607 -0.4696562153832428 -0.7184186737677692
P 4.216989469698135 6.259158373795684 12.29492587003355 -0.35594814963410953 -0.28408633049680104 1.3969248276113166
P 2.2990519288657008 8.634394823161099 1.208182200325143 1.2562916553365653 -0.49719581556440823 -0.7531344799823997
P 6.228363096509058 7.727988988220318 6.035236889591854 0.6345495457569394 -0.4938335839603946 -1.0754757401953412
P 5.189780497579745 0.9241779611566083 12.822556187199991 -1.3550433568861824 0.9144706891324574 -0.8718631388745759
P 3.9928013122746218 6.5518961609088215 8.112559168936045 0.2082621842776349 -0.875750389744124 -0.9348543949951318
P 5.011365154438725 1.1515534115139985 3.6878175621384606 -0.6477138510530394 0.18078480479297251 0.9178432051491161
P 0.5415557735147942 5.746387782510936 3.4813038116345223 -2.7650862099366957 -1.5947195366987246 -2.111252104918532
Ni 0.6379362240832033 8.83471024783632 4.481121987678066 -0.09011690869275447 0.7803907445951914 -0.2770155396929487
Ni 1.9149420334332605 6.619797372838258 4.568953369720968 1.8353375115992454 -0.7488667058449813 0.35227095789283847
Ni 6.4540946708547065 5.886482549289357 9.26781678106317 -1.40197395999945 0.32233071868998037 -1.5620762967424064
Ni 8.7924991649126 2.397227857344712 10.209663669552647 1.1191904074744725 0.8263618120086672 0.08451678889715766
Ni 2.728350149332015 5.245608353467392 6.6985518195029945 -0.5744929467846752 0.9227311293690367 0.5196520876853954
Ni 0.8093696604965762 0.2542519098849139 9.562883392526272 0.21963185956715725 0.7557289801824534 -1.5917026042492717
Ni 1.5411337610077342 1.0127463476114411 11.746175399174033 0.21510054735570697 0.809176301368316 -0.9579141050280728
Ni 4.210697077630969 7.0376067265114015 1.2964775207091364 -0.6262276561548054 1.1964494863679525 0.7279412685462237
Ni 5.761456645951901 8.281619031041354 8.173871177851751 -1.0743385412671047 -0.09736690538694845 0.2586516924737804
Ni 5.19585370617868 2.7948266687179433 5.187276326455192 0.3397908231479568 0.47694632128675274 -1.0496847472741664
Ni 0.8413731866518319 7.486521867384498 6.814199410193465 0.25474721521305155 -0.23734316080399123 -0.025064399167795546
Ni 5.450298314862748 4.718052010721479 7.209595427710962 -0.003073753829317287 0.7159912952731992 -0.4002233174024011
Ni 0.9847273942557567 7.608460936877686 11.113309619322603 0.3756687679914885 -0.49552151318577886 1.9975576660161531
Ni 5.017018261390215 0.5381794348395672 10.49383686264461 -1.1303831908664985 -0.7928873344003055 -1.1688031854055934
Ni 8.129122133018793 7.206149680937462 4.821247240623007 0.2711469967273137 0.1171633712875853 0.9161154238247319
Ni 7.554359150802368 6.2827023313416275 7.080528329177974 0.16882583265888343 -0.8109498483289711 -0.1137054946459719
Ni 2.5532225582144785 5.2265667896647185 2.203475151014143 -1.1860519451837122 1.417269709816256 0.8764330176334454
Ni 2.3471900980762 5.44517490129282 11.366992565454561 0.10154289114150898 -0.6532473792767588 -1.1320150700429665
Ni 1.3680701475493842 3.3886586126705707 3.5344229251605985 -2.0805266508102167 0.4285309060978426 -0.46191976597093354
Ni 1.374152488792828 1.0171848128431433 2.3584068120629835 -0.08518039062308555 1.0695269788110742 0.9298191465640697
Ni 1.3417955292950479 3.685186447255223 7.9741886454410515 -0.992637367441871 -0.9464266732137635 -0.2731979657190714
Ni 3.74127001718914 3.1431000670944167 7.070356389723098 0.03595970592406065 -1.4004068726226462 0.42646888136249134
Ni 4.126548891118819 6.858104598673729 5.51402225519346 0.6664980736390779 0.5797745068985887 0.2526797911610616
Ni 0.3087874965744409 0.2679764480540542 0.24028900969407108 0.3741998967554459 -1.0876339728244302 0.5014234804925106
P 0.2978986445255548 5.563616167938801 8.06030948316729 -0.21040648431414732 1.7895477069586407 -1.1430106498225219
P 8.971526395235767 1.519334138563139 7.9745365991968695 -0.27192475543360267 0.19371282570855025 -0.9019563587155305
P 2.004788990119448 3.460404667938581 10.039146237383594 -0.12259611226738241 0.32505608804094344 1.6509783591914533
P 4.365376677691342 5.943917750610706 3.2732676492908213 -0.5869838801628342 2.2245395381904784 0.5850228997817215
P 7.2884165426806184 4.078428987197339 10.235167492610366 -0.45843772095960406 0.4850087865799131 1.8081720069280474
P 6.720110340132534 8.142802834494287 10.16547354256368 -1.4060116204039335 -0.6990099302238542 -0.011619072296167085
P 2.5061529084116114 8.376498074852373 5.407463472319017 0.42975038032724056 2.660433826631928 2.358158998151558
P 7.186121791527744 4.099114427011754 1.4029796811876185 -0.161182971401645 0.3514543755288141 1.0353390200754558
Ni 5.332678986222638 3.0520749992664813 0.43929572641105613 -0.19171790676570852 -0.859934762868106 0.36574816644366687
Ni 1.6160031806980535 1.1864401135409586 6.534370616094755 -0.32580762149498727 -0.2683200688014798 0.6192815638542754
Ni 7.109608495825682 1.178184202904212 9.119969312360483 -0.23222460863050326 -1.6813749692054396 0.09939164912646108
Ni 2.7729996483398187 1.734462712633054 8.925619331078982 0.3758793413403978 -0.3626589859953819 0.8464668102886583
Ni 6.827902943280233 1.8207022747379196 2.77923998433328 -0.9633447891253408 2.4754630087820657 -0.8082854141229306
Ni 4.241793732186413 6.904936799719345 10.267113483105211 0.4687259902594895 1.0211226193657574 -0.4564060352415559
Ni 7.867490133105611 7.363751727240931 0.1681027609606943 1.2851733713679223 0.1098814929141914 -0.40372181747396274
Ni 7.624653115593341 3.911493378204981 8.133036384455641 1.975450549704469 0.16752742556243405 -1.1429687408409928
Ni 3.4481943222291447 8.680934779582405 12.19106761014062 -0.10268034718006187 -0.19899232893993474 1.9792575821553853
Ni 0.1877142017807714 4.996935576113439 10.173493830972076 0.44133140029662055 -0.31471433979530317 0.30418207280541165
Ni 8.844646565062847 2.6971621683314733 5.663781186392019 0.4466821230855727 -1.6363181860761173 0.6449887388123924
Ni 3.296848137414803 2.900043866113914 11.736658270330501 0.6358577230454017 -0.29261725078594764 -1.1370860568079706
Ni 1.0278700069194635 3.7030407672716383 12.526314204388491 -1.1482726695524093 -0.05609504322135501 -1.7646825682858447
Ni 3.1372460419637145 8.751886294778073 7.7157466782550985 0.44142627400327206 -0.865546966848561 -0.02213796954961994
Ni 5.762561695937571 8.11791637820542 3.773229706650749 0.012598919710933139 -0.522042699404759 -0.6886987781058332
Ni 3.3863206556760934 8.63233997814642 3.3732226169203168 -0.6837434909830871 -0.4018189440242951 -0.06718472537661332
Ni 3.8505329761028975 4.539106974198898 9.50332211156307 -0.8705505907107394 0.43137608885612155 -1.4589971714620293
Ni 7.349386077427211 6.17851712277525 11.281834308459644 1.2436310291497612 0.3815771630561235 2.146311667625826
Ni 8.07856381301323 9.18196079002771 2.260270153955364 0.13251748514615241 -1.614297458830652 0.13663382130737112
Ni 4.696425908522567 0.5891185861211841 1.546911071924555 0.5486865272445325 -0.5259600321812943 0.4131441392291272
Ni 5.871249298247219 5.7229077534765596 0.35316027645360104 0.8514686343786239 -0.575174546232732 -0.24699533918177463
Ni 8.21617450048502 -0.09619597114931357 11.355805075930212 -0.2061040002840515 0.610347237479123 0.8391368522861484
Ni 0.29676437007745315 4.91163667639307 5.519168500374661 0.4953559341421921 1.3641453191874506 1.1845409078558244
Ni 7.6206621499426115 6.521630577003757 2.705402553472554 -0.7120654778562318 -1.058045460534036 -1.1398520495888822
P 8.823668880624123 1.6486249868866145 3.727315336378356 0.6598234898323798 0.42523140941096443 -0.6967728133632194
P 1.7625455945003061 3.4249882725300593 1.062156694202138 0.6779163427783487 -0.3210953036209825 2.4054912075786183
P 4.85168999783156 1.348407563920053 8.131940467114479 0.27462724196643024 -0.5158093169005374 -0.6713985962644888
P 8.68948293484346 1.8752789583277398 12.381514299158685 0.09962201996971232 0.47706742024564935 -0.4401283811274549
P 6.275651929780158 7.807917892968997 1.4329612398484322 -0.12058705225715362 0.4454798752473554 0.7294651613899179
P 1.9478469516016212 3.2468469087243297 5.792473846500111 0.2741240770777666 0.5003256194426415 -0.4685267297644899
P 7.060767112987938 4.017441187161726 5.760715075217715 -0.8384570526103043 -0.07723851006818956 1.7965315944756415
P 2.7669903682524524 8.664833927311845 10.233683437877543 -0.6129741335790089 0.941364685309824 -1.4143623063614739
