# total energy = -340891.7468651409 ev
CRYSTAL
PRIMVEC
9.08712947954998 0.00000000000000 0.00000000000000

0.00000000000000 9.08712947954998 0.00000000000000

0.00000000000000 0.00000000000000 13.29993253444260

PRIMCOORD
 96 1
Ni 6.312765218180613 2.0478482311949717 11.40038274367523 1.3471878653975058 0.20483644642553753 -0.19447824311966508
Ni 4.640269955998095 0.2570594439867087 6.038009498305296 0.2696002210654841 0.5337155077569969 -0.25178787547441156
Ni 2.596692675644063 1.6710867571179528 4.5694176076857405 1.2502233376552985 -0.6398347054152786 0.7788943625553231
Ni 3.1796138555261835 4.533396226550667 4.889667132433569 0.8442849721459911 -1.2543527864426396 -0.19891031074908969
Ni 4.623140716987092 4.6143716370689924 2.6968273898922552 1.2467901436040334 0.4481828760008152 0.25479195240805796
Ni 7.057937094371196 5.813981769865004 2.5402470623598488 0.669149395218996 1.5500887853632273 1.2435315274574197
Ni 5.221673585262264 4.533650666175233 11.741167363551474 -0.8637176269493061 0.20032801703222272 0.07870198198759348
Ni 5.696757799975384 7.861557387176511 12.519878017111717 0.7335516727544656 0.22246752924373944 0.023313992135592106
Ni 2.036443883736718 6.4246186945659876 0.2738642724763889 -1.073361522065816 0.048965117044793095 0.13777050601497565
Ni 2.697278111512916 1.577243971300115 0.3367026813278395 -0.1835716235094903 -1.9209896996524272 0.28162192811670855
Ni 0.6870596833654574 8.937855173352201 4.669234272403225 0.08543055896067867 0.4791993789869876 0.058812956373150316
Ni 8.48298982166268 2.2405135497685937 1.2301728752711858 0.9909432675688999 1.3925272127642532 1.550348466782517
Ni 7.059209292494029 0.34279378419737533 4.9054941857945575 -0.13674566429488708 0.9605381729144813 -0.1046708952475294
Ni 0.6678467655718432 7.466912442344238 2.5409122402355013 0.60996954242473 -0.5331372666560238 -0.24712415145015504
Ni 7.463250329176368 3.849862349411347 3.8298752081886938 0.904526690545868 -0.7136017119951 0.44094547771211157
Ni 7.486249853811301 3.905121183589547 12.735137574346854 1.3251208582951373 -0.27039649171453434 0.2538792107858015
Ni 8.137669815478535 8.934038578983701 7.218923770973329 -0.8855128684475266 -0.23476665832606666 -0.2764678947195948
Ni 6.984613046848765 0.7504651290945138 0.12414018411310777 -0.12754702851475452 -1.3955377174558028 0.17747013859744273
Ni 1.7022828725157098 6.619837496514725 9.235872127190575 1.9646426604556873 0.935940171860143 0.5245423258981612
Ni 9.135927333947864 4.858488282581765 1.4973326636402444 0.18116738494337187 -0.4757710700317291 -0.510945561050333
Ni 6.639947313984936 1.9222731893418972 6.970960543564877 -1.3754455746916183 -0.8520090802631263 0.2234358066942797
Ni 3.686948292653121 4.374335112678736 0.5141061659921891 -0.3288194117381176 0.08679350074647633 -0.2852412700368507
Ni 5.741302908533439 5.4779669842364385 4.774902139772796 0.5515461081805146 0.960429929471391 0.6542071720868669
Ni 5.023192503841405 3.2041036693907206 9.637676821315562 0.3982852198394238 -0.8620037295819928 -0.6165826768658735
P 9.093581310716418 5.623560972265237 12.621928298247717 1.4100762773916102 -0.1946430508323035 0.14131400039185985
P 4.0786035718967355 6.185627190062344 12.52268412268551 0.4156903026897486 -0.4145690446011118 1.2075993323371845
P 2.521278588348407 8.395726117565777 1.3229788196189147 -0.8092680897511739 0.4474094881699004 0.14307546316765685
P 6.505575930825415 7.636614584800724 6.083376083365524 -0.6625766270974847 0.4948949353453735 -0.6996267378722467
P 4.8219125865503125 0.9048536410038679 12.578238288570796 0.3432736394902346 -1.8273760906603238 0.7227620383381295
P 3.847772309638121 6.379646490923839 8.387323248964465 0.5147821611876037 -0.18123937583188787 -0.28427453524820717
P 4.860541973837194 1.1088115353435235 3.957302207023435 0.2688013793132726 -0.287557319764537 -0.6984126629594875
P 0.1316216177883112 5.456266919112685 3.635098040731169 -0.11216437541109715 1.4600780632310337 -0.47447369137654416
Ni 1.5579792568686424 1.0302533012585804 2.47712604378254 -0.8522337946794226 0.31207150285581736 0.30579389737722174
Ni 1.9716344765078209 6.570403512313211 4.806476279755624 -1.0000058919918002 1.302428558903944 -0.16883560285089633
Ni 5.95714040720152 5.627522960704916 9.196743856496953 0.2671900689620947 0.9192418852688555 1.1274120240533165
Ni 8.908912666057748 2.4714447704511455 10.327663469076482 -0.5313704045635882 0.14274996150743802 0.9232628335027905
Ni 2.440839318467561 5.333163576469687 6.98592250220234 -1.8173433890146702 -1.24234470623817 1.066309243204725
Ni 0.5072462919712841 -0.032421060447456344 9.333520602821574 0.29400230405893235 0.0331227506958978 -0.6980061715496882
Ni 1.3837335496877536 0.8921652821544976 11.496129283112593 0.887205425658601 1.2290076228096318 -0.026897852832108514
Ni 4.262072715468165 6.890061464933921 1.488914346918869 -0.4354631144413017 0.9639464272650818 0.47534606667916846
Ni 5.5652125140744415 8.171964642018336 8.003527427981124 -0.20384014395053926 -0.7546717425625326 0.8441705580553139
Ni 5.241583485884603 3.0662519156523067 4.842425872568052 -0.4086395664905543 -0.6986360918242033 0.07545133626077974
Ni 0.594639942019303 7.280608114384782 6.806466234995504 0.6998545376123366 -0.14815416324214487 -0.08445611086255132
Ni 4.97856561111831 4.722708394357679 7.255751180490512 -0.1486570710204924 -0.7088680539648566 -0.668969675108022
Ni 8.352026112046461 7.002887264170319 9.308410138015683 -1.069874334848164 0.22175687632996002 -0.3451963104342442
Ni 4.661442967613817 0.3890454556659171 10.461155218105358 -0.4559429795622083 -0.2308642379478669 -0.23321911133328868
Ni 8.115042863151004 7.158913276806348 4.631050154459334 0.023209862457560026 -0.6277183817677189 -0.19612734868731385
Ni 7.298337103939405 5.895166184360653 7.060322465851508 0.6921779949036854 -0.24772733225179275 0.2664444490453218
Ni 2.2930371579827025 5.574217859358211 2.5465517127714317 -0.18055931904572775 -0.9233057709255841 -0.143321774850508
Ni 2.431379616711352 5.453349950559619 11.335386141579688 -0.10054633155619458 -0.6149747089488053 0.1986981947382836
Ni 1.2047807094523824 3.5208991762350568 3.640683899203351 -0.820025071157362 -0.586347789240732 -0.32549189002678136
Ni 3.972084240497811 2.4699726554804387 2.297270851592902 -0.09592965871978962 -0.8548879444728179 1.1937999645602473
Ni 1.1090114521913972 3.2531014713786917 8.359805603567585 -0.15381496107234802 0.7039230512547554 -0.9935390533205342
Ni 3.5787660165650648 2.65182429000998 7.062011763216041 -0.3288710909116594 0.2069717476009855 -0.5016875327871747
Ni 3.9955199473462866 6.761687587210614 6.202662831640024 1.5152719347943582 1.863674925091358 -0.5186529569969196
Ni 0.673794291796088 7.5102671369445 11.480847457518534 1.4919851963522757 -1.6063468365250078 0.2113778470884811
P 0.4077912950058626 5.495586928237677 8.057990229619609 -1.5398894762327222 -0.9834503016259645 -1.1219833968385773
P 8.597878399283955 1.673440323645194 8.325119121748541 -0.5384723057156919 0.017794347868943548 -0.9706966015047217
P 2.1110492165114296 3.1328605745120677 10.726741115653883 -0.5755681821267249 0.311560881767986 -0.6249806711215817
P 3.921123618548897 6.355847298897411 3.792436234859606 0.47861368168684676 0.0711881901090516 -0.04991976764857855
P 6.898439798285723 4.087499871627118 10.5702807382302 1.1055846437655799 -0.0169224867869515 -1.3635297970906388
P 6.521333013289649 7.849008061407707 10.331068416480951 -0.9111400820973276 -0.591738107018368 -0.6186644990955668
P 2.5948207269776087 8.673092569731736 5.7562103443942085 -1.3922189374952152 -0.4643517724511938 0.1077950426988079
P 6.684601468096378 3.858776823400627 1.5911908975781452 0.8816220180335527 1.0725649943064497 1.044341480684382
Ni 5.518631888519853 2.5771462601996777 0.40991677458393877 -0.9305704229077972 0.8804693924863481 0.30963872504460865
Ni 1.250507144838783 1.027290897058269 7.118909006833861 0.5577440094611105 0.6448141609077411 -1.1141397324244424
Ni 6.837328852742489 0.7005904191147323 9.356316575756852 0.2579657221503493 0.7551972760486994 -0.6856093405472321
Ni 2.767766974647318 1.5575430746550998 9.161658449695107 0.0611500891467592 0.31348560959452465 1.14792994150101
Ni 6.498578841149834 1.9048440750590838 2.5656501327339907 -0.35108002290853085 -0.2749882248502748 1.0512101827797573
Ni 4.258137988416831 7.047377849951681 10.470318679441535 0.06761332827359968 -0.11999724119195462 -0.6046249902833651
Ni 8.157861417113786 7.429509817532946 0.11252228911280704 -0.32443850906160254 0.21496556443973946 1.2152604484268683
Ni 7.409063776273127 3.6085536268982565 8.429976417171279 0.6809677280101627 0.7506911606482297 0.4906060781620325
Ni 3.367417559844694 8.22100787965355 12.507908450201748 -1.4858448877824928 1.6036993715998316 -0.11759454528773296
Ni 0.30510037124372075 4.883877722261733 10.172586152754908 -0.6475901809909815 -0.39962605013803437 0.9949318199030026
Ni 8.612163366777482 2.2995708040563954 5.715460021093974 0.4550212390788873 0.10581066527892745 -0.32220293486286444
Ni 3.830043320083497 2.6150123286128593 12.034390856605604 -0.9120739067655065 1.6852488503385494 -2.6206475478729256
Ni 1.2910993520866074 3.693109366419413 12.783176684177977 -0.4795840160199159 -0.29437819934111237 -0.003831972151580497
Ni 2.8245797079612642 8.531551441437106 8.022319611681258 1.0583830463791128 -0.9410628377986889 -0.37082712362847103
Ni 5.616854670732017 7.872352896961694 3.6956655759333623 0.7239339471590435 -0.2674960302382877 0.07912955644331533
Ni 3.341491979527245 8.534186708977261 3.42426755038938 -1.0058862620319773 0.14623303496003204 0.5696189065218256
Ni 3.1479270351381907 4.410956244357431 9.207901942747146 -0.3530034651834888 0.06957456576502857 -0.24607565558098268
Ni 7.279217783579114 6.133567025450124 11.568986252181356 -0.22640285974240362 -0.6514746036470521 -1.1587005497539529
Ni 0.609060307741616 0.18907590244134317 0.3287214555329516 -0.13278385143366164 -0.7435553209343969 0.3174386807050017
Ni 4.894473315199043 0.29730634031547826 1.5557192877747241 -1.0932083815884142 0.06781798808523805 -0.37280867283487407
Ni 5.994370376553286 5.664489403302667 0.5493287884487128 -0.12070558011288889 -0.05499203996516335 -1.6852509072210782
Ni 8.143994457574905 -0.11455326254461558 11.231433924250052 -1.341354032324548 1.38741765945183 1.1990205895292383
Ni 0.2153858683344763 4.758248157631966 5.738614935642482 -0.5146970576729651 0.5256041915037722 0.5575599184747624
Ni 8.056676230701312 9.050690059718047 2.3909555213583307 0.3016611061557708 -0.6930907365259418 -0.24671148939276863
P 8.535549778394584 1.580687993361213 3.6123947565162675 0.6212096341149237 0.9954131304147953 0.6269776469469525
P 2.067994397182978 3.133978291434271 1.6102893175407043 -1.1994692470308828 1.3173160175387377 0.21133259567284246
P 4.882714569692285 1.3528918323385002 8.391020801937184 -0.17134551375694362 -0.3642173316214372 -0.8484108213889067
P 8.619578464407708 1.8728573793992804 12.489766904970148 0.06820468200069543 -0.8713784859286735 -1.349745855932669
P 6.458204725008781 7.963878464770087 1.5190917951054146 -0.004852442996294868 -2.142360910508194 -0.29923886986752335
P 1.6563656074108841 3.1331059270071853 5.875484370687479 0.700051227004175 -0.3358799181293248 1.1137532956193013
P 6.814011278576849 3.945704303707922 6.131575126674945 0.5033515507531588 0.0010832057618497472 -0.33192967523232514
P 2.400419766679264 8.491077366872117 10.295357815173025 0.6950087794842611 0.250353199910414 0.2538938660738208
