# total energy = -340857.822763494 ev
CRYSTAL
PRIMVEC
9.33535025227654 0.00000000000000 0.00000000000000
0.00000000000000 9.33535025227654 0.00000000000000
0.00000000000000 0.00000000000000 13.66322872587140
PRIMCOORD
 96 1
Ni 0.7148768366612321 2.6779291865198394 9.304617166778444 -0.30652486200597534 -0.5179543882679983 0.06976816983307339
Ni 9.264550777801196 2.890728491428243 13.219706153409811 0.46724143529416307 -0.10324856097870606 -0.21255078435065974
Ni 3.021133996594529 3.8419913284916967 5.3778739291162525 -0.35464999964797633 -1.3114323050644512 -1.3456662865466567
Ni 2.703993483922966 2.5706846848840534 2.5409917369076482 0.7780168450463761 -0.0497503319502498 -0.14881005165858888
Ni 7.711605957848669 4.303643060289476 11.495434321247085 -0.13162119858412813 -1.5899730231526745 -0.8816346164390431
Ni 8.463801789960739 5.062308290001963 8.957475639578075 0.5764433856428266 -0.42494113186405524 0.8057330800147221
Ni 3.438816229549642 5.515660895585064 6.941958622310595 0.8693347160257673 -0.6525868628746244 0.7359068032502036
Ni 8.135953630755727 8.37746847248792 11.106825169023548 1.5793268562927383 -0.2918569755811554 -0.4138943871315904
Ni 5.637841957337255 6.195171692030679 12.221033741001882 1.1126276666552903 -0.6167318008492282 -0.5242929288915164
Ni 1.1989203391435161 0.6147542735959494 11.14419364182977 -1.3174294031881504 -1.295802311836678 -0.15440425791691473
Ni 1.7520118249039107 8.703206842576488 1.5112214063373646 -1.849022722395822 -1.3751049035227478 2.460771982428794
Ni 3.836296764947317 3.3932877272448256 9.543642270646233 0.3821410059793935 0.33644684637638833 0.16297862984948705
Ni 6.389234949343068 5.8845192476596795 1.129429860271958 -0.8452781892971957 -0.17728579050077856 -1.092132374915416
Ni 1.7120751972926735 5.831354428995351 5.006466092936769 -0.795477720835301 -0.7023461936859389 2.2698776000056453
Ni 4.300207651462703 1.7781788111578372 12.937382762369586 -0.6865153973012693 -0.06045691973447653 -1.0584090145210416
Ni 3.0873216286103475 7.632591554832888 4.43292552284201 0.5428799478650844 2.0620201073655973 -0.2916384318124461
Ni 8.48506771742647 1.6383726084682888 5.2330032990122355 0.44810702845755734 1.8418151489037893 0.9748473904483018
Ni 1.3195610681337029 6.739450607322395 3.0266922640278464 -1.4552873267106097 1.3885093498541117 -1.194527586754891
Ni 6.5460594952152436 3.080525493757383 9.170622219509184 1.1646063737154264 0.3352517976270226 0.23358806463693318
Ni 8.931820230508135 0.3664031550054807 9.197907580701827 0.9151774853914948 0.35412626593402236 0.8907314365339885
Ni 6.426109582130441 0.3379490079837297 9.42139679497854 1.6728101103545643 1.0710107624454523 0.03137877142159757
Ni 5.110291989375913 1.5794852202093634 8.251797856878532 -1.8846985785308767 0.9324275307211941 -2.078671599879349
Ni 3.2738512584140245 5.974904107064073 0.7504585234635299 4.267646610701656 1.6194034125986496 -0.7951437345346499
Ni 5.936171739612221 0.7347471292910867 0.25635898188287615 1.8333698463499133 -0.8556610751934166 1.0406406347940271
P 9.049240263723222 9.317678255065232 1.5780205037829482 -1.9797985422605195 -3.268914700326273 -1.2855765203436118
P 1.2239390773384944 4.209869468808672 10.600506587732667 1.0015200146434815 1.1069172465340742 0.3933355891436323
P 0.9304039308608941 5.710200255751163 7.15330161260765 1.3875055911799459 1.550402459948904 1.72056500914134
P 6.250773037063995 0.03597097090033168 4.305870474816834 0.8371403906814098 0.08504155105237612 0.5055477870735293
P 7.662838089068607 8.273323307076287 7.106600590333695 0.13652532075396484 2.635641964399229 0.3959054067533375
P 4.368150329292199 4.203101340005926 1.2365053920714268 1.723666016664167 -1.3487752644892836 1.8900888963085125
P 3.5956407754218187 1.5896327457384456 5.322906454352876 1.3105149354565044 0.3501487693435131 0.8688865727447552
P 1.3441690509254796 5.717472493457838 1.0658505250664667 -3.359897299453433 -0.6124195466271195 0.8670194376290293
Ni 5.560517252684642 3.840740391581947 12.942356636888348 0.15205735495129297 0.5334139173561782 1.4287720540289006
Ni 7.668719359614442 1.1621483952069425 7.582626894173499 -0.9533308565327646 0.4704437442815447 -1.857443856579982
Ni 5.789896139322255 5.496663458187013 8.061728262327268 -0.9728321597904859 -1.6797441184702362 -0.5362822400429087
Ni 8.905093123249843 0.1557248416336066 3.776065086277915 -1.0214105829198215 -1.2842464886782787 -1.8879571946774907
Ni 0.29502693541922614 4.012212101718274 2.028497821543642 0.5638118129217452 -1.0060441277660803 -0.8994263932048252
Ni 4.730352576764941 7.944746990565601 13.472052801831417 -0.42772615080836013 -0.07234518653163025 0.10496142990475471
Ni 5.031352269160714 5.675575442331322 3.0590056447696736 0.7907039535957414 1.1395681997998761 0.06126167502395902
Ni 2.3795153860942184 0.7338275973089204 7.121917099198061 1.5885535170973286 1.3241687787945131 0.6005929863058367
Ni 2.765121356199352 3.2305725754767414 7.618192710880673 -0.6392212402009958 -0.5569706216301957 -0.5781133171460818
Ni 3.5439229360187676 0.6129450827518498 1.1761999641364502 2.3902111414910965 3.0250306530799707 1.7045722332575095
Ni 2.6332221950214256 2.273325779016654 11.21417702718517 0.29003586321201663 1.5113558875694035 0.25274663984325507
Ni 0.6511173291993367 2.1383552876647918 6.94581132128562 -0.4612204259110637 -0.4678178766229234 0.5595931468547072
Ni 3.8460335350731985 7.266972569233519 10.888883019760065 -0.26382063826922947 2.2268365617547716 -0.7330863030822728
Ni 9.264457424300469 4.139583618110915 6.341309129139568 -1.0216023872156534 -0.19301888496531922 -0.6940482153432047
Ni 1.904626127893276 0.7078426503814127 4.359649559515949 -0.10351235616305399 1.1619553092458248 -0.29331659084581746
Ni 7.77790561406536 1.5523660282480158 2.114494132878835 -1.5372592376987266 1.7139986687777322 -0.21036071867787642
Ni 9.220833333410493 7.351812230694697 8.994134625778768 1.2671771919008177 -0.4381992824255421 -1.0594881065178334
Ni 0.5269151641563949 8.953692955728595 6.92434655086334 -2.1272734200474526 -1.0360692133732607 -0.867600764053796
Ni 0.7255732807745925 1.666331981936184 1.7001838283700008 2.0050079516466113 1.9508201527502984 0.04078258123400073
Ni 5.877648430006133 8.305119509424085 10.966653954146155 -1.0939565726083482 -0.7256455305335117 1.7377361216039877
Ni 6.5928949465302455 1.9329309093138627 11.826945671820644 -1.478675109506931 -0.02058785145368067 -0.4229318147435104
Ni 3.9850929097569265 9.174623350550366 9.288740536909712 -0.7561143885463301 -1.3067035321302143 -1.52524498684667
Ni 8.61423162103308 6.163711562285502 1.7178089693073584 0.37066720101183903 0.7010537001267604 0.1431068306262245
Ni 0.7831677230484417 5.200564824579434 12.643800939141622 1.4618629230455984 -0.8214252939389982 -0.6941420606085916
P 8.344402662530229 1.8438810049698724 10.769398007108883 1.6658779020111054 -0.31852265779779987 -0.6742934013137807
P 7.135101414105811 6.39616177909705 3.351098479661033 -0.5669531867642043 -0.9113892219936561 -0.4645050101996065
P 4.468673378875603 6.885436811760106 8.63798821989822 -2.2630459217957926 1.7476970894714416 1.131276134994413
P 1.7277679207649712 8.97598577170233 9.039701403018883 -0.7941032090852775 -0.4042316672308458 0.5220861510481848
P 1.9452535714098969 1.7985765510668024 13.5002670303563 -0.14429442317642246 -0.5656709776176709 -0.19437951275827167
P 3.817103285197737 7.917907859106436 1.8430875002136884 0.289660739260785 -0.7031627760499632 0.9282687713578143
P 5.442630451965918 3.9330576684514016 10.802831629859442 0.3295310930931615 0.3882242360589959 0.8572003946560786
P 7.560989419774872 6.395629664142903 10.853672879890661 -0.26326090911101757 -0.6417730600885722 -0.9790305752917139
Ni 0.551262690681142 7.811158131024506 13.083880543991285 -1.276131829990944 -0.4186815241075886 0.31420963224474274
Ni 6.929154256150808 7.254211145684065 8.86464771905964 -1.098382726700502 1.3757281389290437 1.484393500047947
Ni 8.538867339895745 0.5594563274399972 12.700285408291823 -0.4323531080574102 0.37180028617501776 1.4848431859908555
Ni 4.374750421793634 0.16705422248189955 3.256521114538966 -0.34889381389048946 -0.21836122038484973 1.6920892702991503
Ni 4.704101572360359 3.474486602177631 3.6411543411665184 -0.5932409168161397 1.3859896687560516 1.7146082773372728
Ni 2.5711141109874007 9.014027323248797 13.237632826154517 -0.34179396962091463 -0.22063458980005873 -5.486068230465326
Ni 2.30620488197289 5.763486433966437 9.042365711929646 -0.6474382287941495 -1.2555817737537343 0.9678763584471073
Ni 6.647441397005342 4.883816396610926 5.395308628912126 1.124467853823328 -0.30783381062538595 -3.2847904910162655
Ni 7.7452038827605065 6.2699945228637946 6.792031966607176 1.0298759400783555 -1.7493027433956647 2.736525110469552
Ni 2.5899155060339245 7.5539972425703805 7.467541632011609 -0.7284444334348874 1.189876461136125 0.1441257588090421
Ni 5.405578447527161 3.534736951547178 6.530408780818274 -2.216524381195486 -1.9519928329021607 1.3183269753017555
Ni 1.4782433486703574 7.374767856523596 10.73375003932107 -0.653913552105848 0.5909364370526791 0.458667577582223
Ni 5.429122200410645 1.992593131628827 2.3251808480657745 0.5435139819046576 -0.8157673243222725 -1.9305919986288815
Ni 8.973950665386468 4.79298344040304 4.042102025581214 0.5523616621032745 0.9003409345992944 1.413668879838875
Ni 6.352313639805329 2.1711970492207366 4.728570458436052 -0.4960154221030619 -0.33405417777449564 -0.3103586339297687
Ni 2.8181274739124436 5.02879438324078 2.729325889880388 -0.6080607554377915 -1.9220240544542124 1.6964485757091103
Ni 8.212307459000774 7.230125942496362 4.992843950110608 1.2209770391956716 1.8672443876101714 -2.146212937264433
Ni 5.723577812405418 7.017569356689851 5.4206811768748615 0.08455175590015115 1.713756985080571 0.010939272620323097
Ni 7.298255327327314 3.959794111059766 2.8267720080798124 -1.717879748999693 -0.28294681757571916 -1.1892521972885648
Ni 2.9888616913930224 3.6553496744871468 13.38214871295577 -1.129014849764062 1.1103931208978166 -0.17093310880987334
Ni 3.627334288918815 5.205857968070685 11.339632929742882 -1.3326601040949757 -2.9626482341880074 0.6436674488978076
Ni 8.05542690102816 6.035947961189804 12.934691380943612 -0.9842928521319179 1.7866341328562714 1.3328521655011238
Ni 4.295390610825162 9.077703746095045 6.690636995326977 1.8355241736887549 -0.2120098242455252 -1.0046760437739601
Ni 6.888433459133458 8.57164375400118 2.343653638789738 0.3903063153990052 -0.6516828630031164 -0.39501914749364225
P 6.9155153096945154 8.056379106735582 13.675252566260008 0.6496038689869006 -0.4213644702563904 -0.3693024594538285
P 4.332227902212245 0.7147069332899079 11.103053687594155 0.9228002920440753 0.11410761518039701 1.007515570105284
P 7.265712296973697 4.196407894003762 7.382105441680781 1.5435556122303997 -2.480483087704476 -0.4485888531899823
P 7.566385252116924 3.8576280398635574 0.4798388608095164 -0.3559388936627289 0.6263515833271793 0.5336625430318744
P 4.014676634137481 5.851145371149587 4.956472492692155 -0.27702608121591 -1.516081575179847 -0.6282292599658664
P 2.428115218572971 6.771928290225502 12.721612949068033 0.38236212085126403 1.159236624763081 -2.8853685864692373
P 1.2064072899018643 3.026912578289563 4.089704842672196 -0.6833040894528232 0.3120643037669658 -0.09087769811817896
P 0.8858612415237606 8.215621508276602 4.7044273760778985 1.3254628150155883 -1.9379301841615078 1.0443260540654142
