# total energy = -381165.30842893297 ev
CRYSTAL
PRIMVEC
9.32064951037225 0.00000000000000 0.00000000000000

0.00000000000000 9.32064951037225 0.00000000000000

0.00000000000000 0.00000000000000 13.64171270412293

PRIMCOORD
 96 1
Ni 4.863570848601552 3.0057230604037293 2.849303919992866 2.0764409107766175 -0.1638345500918791 0.3015700891038613
Ni 5.10292512852951 5.721862860562843 13.429107024776245 0.20587337233048417 -0.15770169772126388 -0.8582792295425541
Ni 8.597609463272049 0.9408822874457791 1.1932798843258858 -2.4200073989169226 2.3556220906623175 1.4357885945560498
Ni 0.042027740795294144 7.90559783892426 11.47884686061932 0.2541743734287171 0.5717853180455249 2.048985385668826
Ni 2.462469002553223 2.359084357967518 12.87347980467479 1.0265851851422256 -0.9548434365225489 -0.11749092983033313
Ni 4.293137776721842 4.256600830564615 4.914577171089004 1.940772281595993 1.8246381229038706 0.10039335091809808
Ni 5.333974709726322 5.069948670492706 7.429999579816474 -2.4826847233414857 0.6731132649627505 0.44388964794210006
Ni 0.4141667901211358 5.445925031230009 0.3279955210872591 1.048178595042285 1.0744357289666011 0.25068821465232954
Ni 7.847502230404364 6.3948883218182155 12.78857334778212 -0.7517743664100796 0.16639331195799084 -0.17094082211935718
Ni 5.755025731590245 8.014901095961456 4.74386481462403 0.4642425005668392 -1.5478280143535084 0.20946443211585217
Ni 8.503144680286463 3.5905938184052615 3.989968737722438 0.6502790406770543 0.6592442202901421 -0.20721394551877861
Ni 7.28334195565828 6.708761194737764 8.12650468930263 0.17541788405410436 -0.6382686464797395 -0.36597185241869873
Ni 1.5785824869828118 1.507046501840792 1.346413495777458 -1.0947662129938371 -1.6320972060162344 -0.307439917621077
Ni 4.394583726205327 4.9702643237703725 1.847579228610726 0.5944907300628406 1.014387357524453 0.7359101456843133
Ni 1.577613139431702 7.402394612103755 6.406543794055361 0.038892820410455595 0.9284924573328462 0.40395424519974305
Ni 1.0735151302563257 7.5604355455328225 9.623464384222158 1.7443626257815699 -0.6203863668826799 -1.7829970503243162
Ni 3.350344756122433 3.9555904539963365 6.9279297439788055 -1.621419414587414 -0.9344599877701907 0.3085912576167008
Ni 0.218344603822599 1.591715282170448 12.044977520676028 -0.4626371037529323 -0.5033322674794493 -0.5299277585797906
Ni 7.0086717346615135 4.411202444317148 11.252639356853296 0.5525683787974419 -0.027562482999300916 2.5208602059699423
Ni 2.276456799884911 5.982710558306762 2.317713722964082 -0.08055523314624836 1.4789749001355368 -2.2890955676949933
Ni 6.2285613309570635 5.934774457774461 5.582516353895906 -0.19333333088194446 0.21389701396590904 0.657536493570416
Ni 5.680842681981732 6.027561523844664 10.55878131183363 -0.46381852565554316 1.1666123484018618 -0.4012944389793927
Ni 5.980818466452191 7.009538555067794 2.340372221971281 -0.8426826606558777 -0.6613198718722482 -0.2873205211633826
Ni 6.138719590138309 2.241625532591656 10.928403785786399 -1.090261126034632 -1.1265820719528534 -0.9220816687104959
P 0.7865798665431566 4.99599863712244 3.2393339560913597 -2.9690374255438026 -0.6108591441185351 0.46368919916653045
Ni 3.072552117533147 8.469525097432097 8.160240780276121 -2.0209372212823586 0.41857276644386626 0.3403824339853686
P 6.943483111849358 4.543117597113891 0.02385899866665054 0.3068717038224328 -0.11742022449339778 -0.7269645064552512
Ni 1.9813743564176518 9.317927900242159 12.447026534343333 -0.3673381366386061 -0.34470497262012245 0.829778808110016
P 5.403264418331635 0.5932220599803266 4.3388145518080945 -1.1404413464334489 2.2613572212394604 0.4717532071215876
P 1.5145216627637756 5.950442469634231 11.917523230744294 -2.4573758122630514 -0.41521336305333006 1.1951978733490383
P 3.1759460827683825 2.6915239647506355 1.4229807675357207 1.9626875936118455 1.7994983904134494 -0.5276410194281429
Ni 7.107442657729915 1.4276904917431816 8.473849878813972 0.2743585616860759 1.2993218949541623 0.5648700789829304
Ni 1.2071918858142217 8.773779060036782 2.7151238493603547 -0.23171270199109126 0.4086071705907221 -1.59093564417626
Ni 0.6079617351469183 7.172165248065574 4.171308498781408 0.6472212276873369 -0.9764641001161182 0.22727137839028602
Ni 8.676406234397865 3.0077456413517187 6.533016619591594 2.0618175044364877 -0.4611805738120638 -0.46594817040403624
Ni 7.7648001071255175 6.585849789386907 4.029803329683346 -0.023427892005637073 0.29622990783787045 -0.11947479302958133
Ni 4.98717198201762 7.7613048635518025 12.281811496971098 0.2542617909362008 0.5198917145000272 -1.0162367520283662
Ni 6.11616361827594 0.04341838170515595 2.2527786218191403 0.3761346518843135 0.2780609502383276 -0.7540395082951723
Ni 0.2942454491394735 1.700496582833968 8.467875342465302 -0.6512416617006398 -0.6467699990825312 0.1186864928003311
Ni 7.77728977749559 5.142202345648528 2.0485212476960397 0.22724875268246672 -0.7880161223509332 -0.04129834452815468
Ni 8.430173315116837 7.227427379128381 1.7107660744860171 0.8815626255505268 2.3001397413242968 -0.8616491744560515
Ni 1.4832695248900045 1.6097787009594036 3.7065212610633593 -0.6288468389452074 0.56694084546903 1.3024488706189183
Ni 5.323255962766931 2.2587289244790316 7.06693884313276 -0.2524108537703911 0.5588084461698828 0.18691765716358777
Ni 8.53559918194959 8.174237599675179 6.0786787620615215 -0.6311721446442743 1.678656284722696 -0.46038970247965233
Ni 6.503762828977035 8.704657123123008 7.411979036015357 0.37992368661310055 -0.26440916378284784 -1.6155326167893338
Ni 7.19521521435303 1.8733107457679345 12.897216702832598 0.6307232300323138 1.063340390384388 0.6416355060694433
Ni 2.7843296721198985 4.518445837808233 13.779494474294149 -0.21455341660298533 0.783700782805031 -0.530852327276589
Ni 4.982110869322882 0.3939838556290798 8.592846611362267 -1.0574204253555273 1.2741942466485991 1.8923589232896119
Ni 3.721632830146194 6.42679290515908 4.199765373861161 1.1124512889784262 -0.6799248885679451 1.9214774379221227
Ni 3.7664931163336264 6.984671062122008 6.565988417303633 1.7874075206871862 -1.5320879779104324 -1.4520117412831315
Ni 2.7287506389730756 3.93666953545063 3.3050053885491635 -1.203824952896417 -1.7895675044529824 -0.3493039048447146
Ni 7.377294102919721 4.478348403530583 7.345271147329828 1.8913855036327492 0.9156472259390618 2.3711520679771163
Ni 3.633245110654106 2.304754291857702 9.774546520712198 0.2885322820832967 -2.996760602490684 0.18805228498866322
Ni 3.3083552299902115 6.138645024942071 10.980991822499076 1.2451446375808104 -1.193839302438615 -1.6545650481014471
Ni 8.333042826365698 8.794256527053983 8.88195545054581 0.682464110050031 -0.13130649555718676 0.8809928690899859
Ni 2.621106457552204 6.021363291907278 8.459198749817915 -1.3441390512688527 0.5121727485892147 -0.8194355172024791
P 3.9942431875968523 0.8416583808102237 11.65099086885209 -0.9842180330299243 0.5518016758347464 -1.507255492247785
Ni 1.679907268022408 3.3869842294244887 9.039967489961336 -0.13226166038160447 0.7771688952237841 -2.3140316688150406
P 3.55540836642987 7.65969114237678 2.684962227481582 -0.0028798926509563307 3.3849943516313763 -2.254158903718808
Ni 5.061960873845577 0.8780387400553484 -0.2230757655239787 0.5068809040626561 -0.8305061731943438 0.6893256130565548
P 0.969608529296946 -0.37186968255442737 7.858444672952472 -0.35302737644288873 0.729887336529001 0.08813741636888046
P 0.4401816550240533 8.796381635146801 14.305382297940534 2.076388717382444 -2.4648618362274517 -2.335518892154539
P 7.804245095936075 0.7473222227881503 10.867915566532176 0.418518259056847 0.46653026815975135 -0.3922400420866084
Ni 2.8958885263433305 1.4326211153445014 7.379593507158749 -0.7366290261282088 0.8297235293920484 0.496301585884913
Ni 6.0111105774243825 3.9999940283568036 9.325829946913613 0.8041276832008151 -1.172151533052536 -0.8365901746048947
Ni 3.1824984993879055 -0.056827068118877125 0.868659370433405 0.247220053598071 -2.1322325638249406 -0.05245898913066449
Ni 4.358671263566603 9.255274494102139 6.347830226471633 0.6832647515744555 0.5148590371721262 -1.297493840606488
Ni 1.8811587326721144 3.8426801055910684 11.14851278856501 -1.3711058096656839 1.0263190759650325 1.3483050097210845
Ni 0.278121657517691 3.294038712312277 1.5382529685318664 -0.5637506206665066 1.2951335679044276 0.7050322251585343
Ni 3.8631296106596804 0.9827040418864623 2.7602777360079784 -1.053216928797141 -1.2761719392002604 0.7553975649849636
Ni 5.12730794769974 3.155011903924216 0.07401807411183371 -0.9530166677264554 0.8196990552765109 0.015105231072554633
Ni 7.064903213275429 2.9639013059630464 1.4883110642207302 0.2205075773038912 -1.144318570000668 0.5620788893910384
Ni 3.878881508365219 2.093361960519459 4.98352201566171 -0.8556500194498232 -1.5172545124420256 0.5699935162524248
Ni 1.9019437811238022 5.200055617280649 5.158832248539785 -0.2621067409019163 -0.42337250182535474 0.7260242540291689
Ni 7.358997667892519 1.2205576972401053 5.937691821077322 -0.39048629262029527 -1.0812103286862735 0.2873169216189568
Ni 3.831187744720696 4.403046875978481 9.24804446626179 0.5828248636891382 0.9493420470883457 0.4127232496416247
Ni 6.312298046333729 8.522829892093622 10.500189844758744 0.3537218314067521 -0.05775983251828762 -0.8261622944033513
Ni 7.7725362462353385 -0.3420305551493899 12.854667937728582 -0.4697035236814104 -0.9892735931759609 0.730287143070581
Ni 4.091224545955512 3.7119020720369735 11.50150535962652 1.9376201091202563 0.78913738043957 1.1607715733503685
Ni 9.150538355334596 6.0567817601209155 6.199953461354926 -1.651399505889272 -2.7440340172520874 0.638229822822004
Ni 8.845240479982563 3.720327939212007 12.734265651231176 -0.08571852251474271 0.12747143808181272 -0.330681661757837
Ni 3.5367111434728806 8.375265368736168 10.471378784996855 0.4939454269479106 0.6305175417794109 -0.08485925983824096
Ni 2.917931862481555 7.241529521867127 12.91728312920553 -1.004190105276477 -0.3026414677911691 1.972081633232236
Ni 7.013714206057192 1.743511380414479 3.6642325420812276 1.0015598667424814 0.39875573171793904 -0.706037526494597
Ni 8.91388706377031 3.9468010814896366 10.099410303557411 0.5009599105925308 -0.5068852749380303 -0.8384871345172914
Ni 0.6318775897757013 1.0660865725809914 6.141294885603422 0.006506947880582341 -1.406220908201262 -0.778672476352504
Ni 1.6786303390368111 0.578885036873427 10.249469032729067 -0.25342592529846675 0.6917061974735894 -1.3126695199056617
Ni 4.955584300760773 7.277246250865722 8.598985191142663 0.46059384807065834 -0.8276825877026197 0.690405733494611
P 8.741240672527884 0.20588755572588108 3.8978872448216486 0.5971235396999974 0.08246376302287088 0.992725299169987
Ni 2.486935707569223 8.73977733055169 4.6468312606280024 1.3576242302394812 0.12949078250468665 0.20682545183110831
P 5.969382029478997 8.171413442867618 0.35068850649771854 1.3238095956828813 -0.420785714934785 1.7992754757693659
Ni 8.436269019909396 6.320155353887439 10.11116923500434 -0.6663605196199491 -0.8539700606442389 -0.008354542612282386
P 1.4670609153575 2.95074054882682 5.573567598282245 0.9139814082008646 0.6545252175479179 0.14639578579014143
P 6.2414890718550415 4.9638889994919175 3.6279724192150384 -0.6451507183115534 -0.6895580407823351 -0.07902414121370262
P 0.3356673477153238 5.514860555153186 8.273412106868227 -0.2970678303581335 -0.33183094487093173 1.0034383147121169
Ni 6.604369920002829 3.5800614844364684 5.52479823168197 -0.8404679123927461 -0.8228008341302862 -1.829445571594843
