# total energy = -340861.5980638166 ev
CRYSTAL
PRIMVEC
9.37524446317226 0.00000000000000 0.00000000000000

0.00000000000000 9.37524446317226 0.00000000000000

0.00000000000000 0.00000000000000 13.72161793608866

PRIMCOORD
 96 1
Ni 4.712475879066252 3.382363106302397 7.624087347880909 -0.6138367386896202 -1.0124508026233725 -0.20740137893923635
Ni 0.2582167262207662 5.074510309607567 11.483841639622915 0.6012306198898355 0.7164345534582048 -2.6660228906839314
Ni 3.592902965600779 5.171169077446829 0.30491763022054486 -0.7900385520976007 -0.8428924626738387 1.9545932466394855
Ni 5.8372801788027555 4.816231706774993 1.031721250040198 0.2652141761826465 -0.18837341577350786 0.12244287451896976
Ni 1.7175822408558896 3.2692132838919163 12.005002090196802 0.5423824394033756 1.8819400419491328 -0.023145070657895624
Ni 4.162758434618614 5.553491536465755 6.9112631547077275 -1.0019357620246616 0.8597920666426547 -0.5554382441460691
Ni 6.772788922628244 5.933648314071404 6.069235908457609 -0.561816122647955 0.35612684130381894 2.806131043693148
Ni 0.30434480279911136 0.9505653860320707 4.166377278884953 0.711254294808846 -1.602046923598073 1.5525051081142036
Ni 3.868085133749957 1.3471663419878723 11.817660335179841 1.2115174364446684 -0.24615176023455673 1.2328257110041412
Ni 8.505352803737008 1.8035344798035478 8.578535960066134 -0.1715566013264852 -0.9908170264036807 0.0810519702770088
Ni 5.927704409240163 9.327205461964498 3.197644544616324 -0.3804530767540093 1.0219836818144723 0.7438857076906221
Ni 1.256910865946303 6.094930640273037 13.668816367964915 0.32179464368085225 2.1952559587350127 -0.6106876515376773
Ni 6.241634461722967 3.45353058512566 3.1272523984895018 0.4315843482121857 0.7728975215419399 -1.3426570674066876
Ni 3.3738128835798555 0.4335478558760489 4.520298373084066 -0.23494586421640828 -0.08374391528687514 -0.38715594269548165
Ni 7.6321331824647745 7.882339700029685 2.9319257479760643 1.1640083351201116 -0.4548985974580939 -0.43721840656951155
Ni 8.489593018214428 2.950361228197124 5.918970431731041 0.9541209565342278 -0.3226287095463734 -1.3665804109915045
Ni 6.0240631692646 2.278774984220623 4.947040739185671 0.43531579023016 -1.2065644633147672 1.3835463494218816
Ni 4.327631479353946 8.486161678832357 12.425583045801416 -1.120976809950934 -0.2850147558483414 -0.2786505041932104
Ni 7.72857631968713 9.302539194439271 10.580876243510682 1.591569163995201 -1.3274528488624235 0.4083780852990515
Ni 3.832552958181499 2.9959999170275338 5.029631015558435 0.17889324419721447 0.4355721292153402 -0.4752681622533814
Ni 4.519167718631941 1.7964561704224962 9.568797067621796 -0.7344685281417802 -0.7679558612659484 -1.115740244142343
Ni 1.376313976247064 1.985714225356656 8.610836488954263 1.3970886068826907 1.4540976772778826 0.459319352233609
Ni 4.92159070124421 3.5756150152714286 12.442200666169514 -1.0999894090659894 -0.07751618920960844 0.2553483391321602
Ni 0.008591473797080506 6.226680947202732 2.7721509610439328 0.6927063566033296 0.0554628089539948 -1.170066111278417
P 4.325259542567978 2.768050229225029 0.83995062965687 0.48085002721653325 3.5070088803636765 -0.7440309750192348
P -0.008112398817780187 7.454819188658376 10.079955070144496 -0.8448680983429708 -0.8302819729986798 1.6543999832784928
P 2.3376046416591656 5.843758472554155 2.0874421877420573 -0.6447216011939348 -0.6068147988458322 0.011631413591341259
P 6.248694020615592 5.25919324536563 11.793510643610768 0.10830103580094896 -2.2865895134436878 -1.9310591680732871
P 4.555412412760611 5.311422730877999 4.600392021922826 0.2328624993248183 -1.5936175618837973 -0.3212703957462661
P 2.1683158568993632 4.171871171993955 7.66167082688324 2.489501489153003 -0.5485150346636747 -0.446273060572612
P 2.4292195281116653 1.9253001516460637 10.547355057825976 -1.4552937544685132 -0.7555114648550084 -1.3716089745543474
P 3.0437105348290863 7.415621292602512 8.219729426107463 0.4251020829219518 0.02402207394621024 -0.7418697057018578
Ni 0.6595624932729258 8.454885864136742 8.350496269919182 -0.19999531628315234 -0.6576753331411254 -1.835878214594064
Ni 5.087026260632341 8.513143631678272 6.6343746921117255 0.039602959103602765 0.06616065498747316 -0.06087138156407582
Ni 1.184899615143842 0.06395510344996082 10.22765454252988 0.5828814279586865 0.8667402158257137 1.5796418164299957
Ni 3.834634262396855 7.303840255847175 5.009721746947043 -0.4412031022488724 0.0035506934657358203 0.5602739749718157
Ni 1.4909075862663952 4.091947215075457 0.7195603061404471 -0.059928043814200006 -0.7073099654491173 2.033717917986794
Ni 9.219568283151446 7.414233756458941 5.141791749704411 -0.4772252859797522 0.4334093172360665 -0.36214785068691824
Ni 4.1422829012567375 1.4630443604644274 2.458708421260222 -0.694250818272314 2.888707163924167 2.1347674144316526
Ni 4.597075998044576 6.970587825040733 2.7458055872801 0.17451748372702203 -2.180110875563458 2.461212155290007
Ni 7.576406730860839 5.739215124331496 9.682563781101512 -0.6234418658795521 -1.3217432000721558 1.843408718643154
Ni 7.185880933155264 9.376181737734848 1.1265724707951335 0.6194821099008557 0.06507256412961697 -0.5623794513505926
Ni 4.7384265550487035 6.063776703752196 9.384667271272317 -1.2568500989431968 0.8436257412954373 0.4378737807653233
Ni 6.9220709362368344 2.570991971105392 0.7457838017295063 -0.5424287192602788 -0.4038071780989175 0.4689221654306957
Ni 7.684793929210957 0.5628634118835463 4.892895891280522 -1.786617677796039 -1.194721190822936 1.8007641444997504
Ni 6.61393478467786 7.473035288164844 8.23419167783092 -0.7963567810061446 0.43701786052293123 0.825999800683558
Ni 8.695229624789247 5.050547185398338 13.404894805640348 -2.3808651814998223 -1.090219217053103 2.08134400450519
Ni 5.696060875217613 4.032545667739903 9.902012934975806 1.181868246119668 -0.8119592634300921 0.6841409835318217
Ni 1.7071757197791115 2.693948298962999 5.9093654940345015 -1.0467616600901006 1.0103568962088214 0.6557122958774836
Ni 4.06858410649588 8.31969484258076 9.917216768516536 0.17585677136373584 0.9216702922046901 0.3243942860872284
Ni 8.287134619427924 1.1046850256547316 12.81979143943398 -0.3557218925559164 -0.8569959919547564 0.8047617172403883
Ni 8.842130326367656 6.458455734644269 8.068571426131788 0.06654452068945313 0.8124390312799878 -1.4512054433317525
Ni 2.668541387144919 7.85043574397178 0.39421495630351344 1.3071542465143875 0.09807473008725046 0.7795705626867412
Ni 1.7226448727310788 7.188590378732911 11.496437280223502 0.5046031637720729 0.37486915490832856 -0.16838848801114872
Ni 0.4944663177253175 8.649919069506302 2.184399088347303 -1.109714092552921 0.5548427766539155 -1.6765461803582287
Ni 0.13349691492663515 4.245635593464305 7.951745570465267 -0.40093577008839343 -0.49868242741226365 0.31585025317195925
P 5.941879778490694 0.11242324098394904 9.255437029987162 -0.3445774459033227 -0.918019325715664 -0.8639924778772476
P 1.33567229258235 0.022713404155594655 0.019540821513809363 -1.2975349782570686 -0.0014269622545136716 0.30066351812919184
P 8.46984875390119 3.6796521003065688 9.938787330402528 -0.4245071296504302 -0.6376394975361729 0.1289631921359908
P 4.211940965761657 1.167761668721905 6.340499224525622 0.6698394793074851 1.0529909288292638 0.7989050013492951
P 1.929406508611495 2.111323747326631 3.7904187356380254 2.763234758550254 1.6351290508640226 -0.44712820948405574
P 9.398494818962535 2.7201896075160636 13.878455266294397 -1.452000428429222 -0.12078579853152102 -1.4073611924532923
P 8.035896824999547 8.368746120304817 6.961251019328693 1.182228200562248 0.8869377738195112 -0.8186523591795515
P 6.129337786535897 9.427558076023805 12.303941127182515 2.205447554556034 0.685011301951917 -0.0971668735610004
Ni 2.3253886984492182 2.0313341636986397 0.059611552805932666 0.7901419104446844 -1.8664987676933984 0.8903136322702796
Ni 1.4325373157943053 6.426551778586362 6.7935457133165205 1.4741749076437323 0.19408435011535607 -0.3797012861896493
Ni 7.273286334955986 5.862237078898596 4.022492593369967 0.7979778615493354 -1.5739671346427215 -2.4548293916921144
Ni 6.732559749708916 6.57927450682124 13.227007984412516 0.6151405451027083 0.04246331137053332 -0.7631291293012663
Ni 0.5105532992709422 1.7727180520743864 2.13699129093384 0.0816723774698271 0.39144865653356453 -2.2817095596435673
Ni 5.378615106154817 7.4679351553128015 0.8467879952616395 -0.7017044463368819 1.7226995389858397 -0.7442590318696407
Ni 0.8496277567338522 0.7164402248662562 6.764510581987888 -3.22216844530967 -0.21626371442587272 -2.785136700829668
Ni 8.591098787311974 3.8694820451377407 1.9213006724646642 -1.3779999656823558 0.22416677132303325 0.09950760587903508
Ni 1.9751670756166784 5.769731544245831 9.22055643389153 -0.519729220780234 0.513444930433419 0.585835625491004
Ni 8.82287357475351 7.76852423528006 12.460107382616943 0.4392863448421338 0.2668637959709275 0.06402046871601877
Ni -0.002291309685733823 1.9708357127901275 11.053147608085398 -0.2132069298774199 0.5546568858953544 -1.217293419696497
Ni 6.19614577679997 1.330103397519642 7.249583842535887 0.544490486885314 -0.37538286131995346 0.6900120976006181
Ni 3.298829680361774 3.8260184129648196 9.866213564947268 -0.9133345186454852 0.46020921103773005 0.1052671340706316
Ni 2.6652600516702596 0.17117133379783553 7.700695280921157 3.2661836745483557 -0.5786388506322486 0.9329288958376448
Ni 0.8785391348388684 4.057436941126251 3.437402352505497 0.37353320970572446 -0.6223370628511475 0.5614299429531298
Ni 7.266545534366614 3.272729000471909 12.226702240206711 1.1533146028516914 0.6670259211180899 -0.847276193563831
Ni 6.402157393143321 7.3200031768709275 11.023961535324933 -0.8772287740618634 1.0886169055629897 -0.48432615869059165
Ni 3.573083699333834 3.874141541511758 2.666329767034999 -0.48191472103562166 0.898918086109839 0.07820961573220724
Ni 4.356319726646685 6.2682132790677105 12.350924226033115 3.661161941501733 2.096728971601692 -0.11717159881770142
Ni 2.324910560994339 7.8038876564526785 3.121681628377951 0.5955201997686196 -0.3723132212556942 0.23290080876192146
Ni 6.682552197075101 1.8817802680078626 10.264510502581258 0.5744734064006494 1.4130325318064567 0.6501090907580933
Ni 2.2902127821608658 5.104323586205904 4.823876280906529 0.937737630080198 0.6389669580983447 0.5509917783389413
Ni 4.956635364113576 0.8892156629489898 0.2943011036733886 0.7287174845906159 -1.2678958152343969 -0.5972616079397585
Ni 7.286889814309505 3.4934597502301625 7.670219174556939 -1.2154756497614678 0.41813979267150575 0.7636631474278655
P 4.1565145219725474 8.9261700154958 2.0544694538438333 -1.4323952526037846 -2.2493126313701004 -1.3784892466139484
P 6.164241820742064 7.6583276147967725 4.591582104935575 -0.5374682899312098 0.36689976354960685 0.7313204694311018
P 7.766396054843637 1.6686528413066062 2.993549228190174 -0.8727805084825226 0.2910769028820213 -0.6183600804812706
P 9.18678305413749 5.235155119202694 5.7690480889426805 -0.4764675818781213 -0.9107004234567476 -0.6736130874173044
P 1.8820146491131953 8.373030606910302 5.294993552918589 -1.1802211974345482 -0.3310094774109009 0.6525740073588181
P 8.17666611686245 7.080765695035593 0.8091773280510896 2.1048729408650653 0.7192447692134903 2.2732244049906916
P 6.0715956574261 5.157274965522699 7.995394832473612 -0.37325681611588624 0.8440620575019075 -0.1679935665655752
P 2.8861314300917127 5.3386015638523965 11.592886980116807 -4.105788467609858 -2.9346967432804036 -2.0948425532122568
