# total energy = -381165.4002629997 ev
CRYSTAL
PRIMVEC
9.25082275064082 0.00000000000000 0.00000000000000
0.00000000000000 9.25082275064082 0.00000000000000
0.00000000000000 0.00000000000000 13.53951418306420
PRIMCOORD
 96 1
Ni 4.0035339498441544 3.7215503789919135 10.591542332495976 0.45019296445230855 -1.1739140242695978 -1.2892197735231539
Ni 2.68132314352108 3.4272909667079774 5.414492521634424 -1.913302101200182 0.4435101531154942 -0.48034506255565657
Ni 8.173258925551458 5.602982655086947 10.06480050045324 -1.6970111330807998 0.012220967546224114 -2.1722936935118846
Ni 3.78647265116044 1.4077531618007564 1.506907177476324 0.7647481529619281 0.24144895544224873 1.563090596939534
Ni 9.086102335465068 8.140908799336962 11.950367894197083 -0.24923914091062882 -1.5450933890311649 -0.639793053544066
Ni 0.6627150462731539 7.923162939789686 5.895320671541672 0.6319661013004793 0.43190676454861104 -1.5690851239600718
Ni 0.12928209433023558 3.313496599374685 9.164409622680706 -0.30736741251192873 0.21416852245974083 -1.415936078606497
Ni 0.3609495166284965 4.566918289732362 5.916970371392912 -0.9468956424303822 -0.26705817136992066 1.6869686612431334
Ni 9.227186629115993 8.375500406621326 0.8160215265853878 0.4030695286019445 0.916131621774648 0.8038191508214608
Ni 1.5690690042166535 5.203994681500662 0.22575892197993125 0.1548194910774624 -0.20176860613349124 -0.9410165579417858
Ni 7.002299066785438 3.55011413678229 9.345730368710802 -1.4995578664932108 0.7780512978287374 -1.0219145191394337
Ni 4.828568552772346 2.808734721545747 3.4554735973949846 -0.28065287933521993 -0.4548790570740682 1.731681430769476
Ni 6.4885083862154795 2.394640154848717 5.264989054443945 2.389011978976673 -1.00939067564081 -1.4591923181919708
Ni 5.777009127591125 5.200840151034792 5.292054185775301 0.7226568802188329 1.1415350937182598 -1.136922534646913
Ni 4.710833335062337 3.294920947833733 5.947583193145561 -0.7449470590756009 0.9249569333757619 2.029407206426582
Ni 3.61408357423532 5.461963117193385 3.9957410569865357 0.12175921818838385 -1.0695557751664806 0.5075203374188678
Ni 8.769224662216176 6.287284495618473 0.16348701045208328 -0.9534987495691967 -1.1496793200919488 -0.522656421729358
Ni 1.7479521585231226 0.833329815446504 5.454785404030723 0.2208348787363229 -1.8735937268669667 4.141332169042423
Ni 7.459863248318591 0.707901613761667 1.3547505743984232 -0.048708778059612885 -0.44063257445738313 -0.7047522320242702
Ni 6.065449772534793 4.998080623906014 2.760191955661289 1.2663726937216513 -0.1680493595041751 0.48361653421807677
Ni 8.325832740723232 0.8396240750622728 5.627062546003828 0.46565763574681096 0.47525299274472993 -0.3148416094017868
Ni 6.949643385226126 8.14054801726022 13.000005066295136 0.17674508750596013 0.4914121190030956 0.5490611369751318
Ni 8.346092041955645 8.433114529030215 7.3090359884311455 -1.4889896040590616 1.4241702935908311 1.0241493220072233
Ni 4.575882336716019 6.656956612763884 2.2780501889618012 -0.29191868205702626 2.2625874941021356 -0.013884728401892218
P 2.964694337745404 0.40157912896308884 9.767134010249718 -0.9606358748346101 1.033214003312653 -2.0584951249314742
Ni 8.029501144203653 4.0960976795845765 4.351261265901196 -0.8004952286545504 -0.16421481624943332 -1.0571594583846569
P 4.110001665772848 1.3719247263335712 5.325131426636768 -0.2585133671237032 -1.0857871494236786 -0.34966720172140425
Ni 1.3578449745181684 7.541566512466841 9.683785024782175 1.6092277576172287 0.05117189488812478 0.4582124923226754
P 5.357382569050724 9.091153284539448 0.8188319264549799 0.8717885768828987 -0.17417809810973228 1.0533161733791665
P 3.6253695776615955 5.6219653428170435 0.7676230735316263 0.11614829975950965 -0.25102991426246446 -1.0931099083373368
P 1.4565142470957555 0.4686281652198948 13.123458217380374 0.3386245707539975 -0.13295945777957746 -0.38316867591295944
Ni 2.3470446731862675 3.0646864779377103 0.5778406001785689 1.0511042533295123 -0.8614087763104713 1.0571761705552052
Ni 4.9963229676347085 1.134437611612794 9.369343093092414 -0.4719964334806452 0.5054117757162974 2.2816280556733544
Ni 6.560285517842097 2.219448078711989 13.22129491593471 -0.25831102130491 0.8092102399300449 -0.38256369533910883
Ni 0.2727660513326174 3.9620255093739094 2.1520919151488287 -0.19976365988832046 0.19326982463386072 1.519760309583015
Ni 2.5474082372925824 3.4686606448410138 2.9017619174924443 0.29616537314852215 1.0679364943955028 -0.6988443511802673
Ni 6.7329336177966725 0.20401671390388562 3.5905707587364963 2.0293694112101113 0.4903427971983168 0.26569394403254243
Ni 6.6098051705805005 8.138448080557135 5.529103736592748 0.9490286296129848 1.0973134048957232 1.4921062953111721
Ni 2.1639523946511465 5.987539345603569 5.868607071464577 0.8747862260586419 1.1786924194948474 0.529936757440855
Ni 0.9730385117945717 0.6108780625033706 10.853937286745644 0.35055371809141567 0.9356254688332015 -0.34910772967350845
Ni 1.0400792223111452 1.2574087948467956 1.6202334531921005 0.3138710179584014 -0.14357014341588822 0.4521919971602083
Ni 4.580146965879554 9.15731516692037 3.4368433660013973 -0.6417285800038819 0.5336805407540035 0.016110018187985155
Ni 3.2335972456101416 1.3304995432656515 7.644585521774785 0.010147887067279298 1.2405192229936572 -0.7075889301421168
Ni 1.0030111766315661 0.5863411809559498 8.445420898176096 -0.46023903583440084 0.21232555571373113 -0.09353853277979375
Ni 0.1409603326296867 2.988774228662285 0.2140520061307904 -2.3702570669666727 -0.15236331622748597 -2.2666022716884835
Ni 3.992164689015554 4.044200565468669 12.787719042175882 0.5106480844145722 -0.28695671006606066 1.0330422536214787
Ni 7.951340945065453 1.164687801124205 9.35971668721915 0.5513105951309408 -1.1302456368473697 -2.1628055515157913
Ni 0.7524387735120452 2.49791633702162 4.442436447187286 -2.149495978891079 1.4143713052225384 -1.3189813210563026
Ni 2.4590628826032934 8.348867288699811 7.323522776435692 0.451027544538462 -0.9865662215471267 -0.4043072576637876
Ni 4.577075692816011 7.564360539058926 12.876713804603307 0.14746613603618475 0.05160718265333048 0.5943050964145958
Ni 8.414622134891587 7.76119953980015 9.675079075745726 0.15220082250769273 0.8808190625162831 0.26312772596726297
Ni 6.115283953237537 4.382392133712755 11.592924439288716 0.7411929913498073 -0.2281347548318458 -0.38171883084031033
Ni 2.842842504031549 8.455686535882768 1.965544454417221 -0.09221390043109925 1.0479255984912146 -0.7895377012017822
Ni 2.2034534066431117 7.586719776994425 0.029634084734206066 -0.4169575994379464 -0.9315101611132474 -1.4027815435024098
Ni 6.772712154463053 9.212209547519976 10.909951016865396 -0.09652589754289183 1.5308466493041635 2.92693869660154
Ni 0.9322793879452517 2.4734201590931133 6.837861071782354 -1.9010780483301646 -1.0876864233289203 0.8629951469609847
P 6.539239896698837 6.990495017300251 3.7098268116623077 -0.5437914039357602 -0.34933835762707577 1.328331909033267
Ni 6.96823753841204 2.8578010839826042 2.3136723310876697 1.0193824967461993 -0.15775929043207668 -0.23383180521662308
P 0.5505330972982221 8.122777187275076 2.927094369773193 0.9201852230187313 -0.20143590538442083 0.14917411986622695
Ni 2.5791293075784014 1.35519923928873 3.6085922860108632 1.9353161435774282 -0.05208720761354255 -1.954854470720672
P 5.117740012691978 1.8719409322299854 11.51138954010961 0.4626818409479387 0.8823213580934224 0.08985954126630975
P 1.3166233095448208 4.881325993378945 4.125029626892508 0.17029213279176478 -0.19514158773527682 -1.296438145648464
P 2.3556941922055854 6.347146567890137 8.21832245710098 0.17278070354157338 -1.5099916602320254 -0.4263593523678205
Ni 8.623033914555984 0.9466274136125906 12.512771646902351 -1.2940704167472359 1.6197212009493847 1.1154797913921048
Ni 4.591784500560091 7.382489369091238 5.056074030036606 -1.3069791543891038 -0.400870978288729 -0.1855832546228804
Ni 6.481283493858167 4.098687909879131 7.182116554162443 2.2125602543414153 0.672924545990712 -0.9806477991801629
Ni 4.719214580229719 3.584998988356459 1.4019084921575422 -0.2251509896131735 0.8499995060322652 -1.0611444111743338
Ni 6.465381330014095 8.419432562581477 8.953125462636098 1.1364121706693977 0.9752291992677526 -3.996519154358369
Ni 3.0309857316410524 8.52106209835284 11.444463539791796 -1.2276829904609372 -1.4071868716589573 0.19999145962841042
Ni 8.109650270175171 2.6869661452342175 10.877591639828418 0.4929630084299833 -0.8278080575368905 4.672590473508179
Ni 3.496403861460195 5.8125137842714905 11.444557898181097 -0.20997299632115451 1.8686345830894786 0.0689263906580684
Ni 7.079080893374035 7.361702770977434 1.7530826646708377 -0.754932452423087 1.1226187164297312 -0.8469146964593544
Ni 3.9403045781895694 0.6789668912069908 12.966697479953902 -0.43088269415947084 0.9170675033253561 -1.1655731085040701
Ni 2.147273161718708 2.5728479991141056 9.791749523788223 1.1499973655530003 -1.749249007339594 -1.7308396515944708
Ni 8.255285968486529 6.465732861268356 5.098818380390252 -0.29361586725379113 -0.5147873033939264 0.5680312503197315
Ni 6.047419919520194 1.48716222197383 7.462966899260817 0.7310235070159732 0.6087197291780291 -1.1287222582243077
Ni 5.409399943858879 5.490409396321088 9.134893023392003 0.7258535327792596 0.7591305496648345 1.4805178191426245
Ni 4.3352684439968145 7.877232606173736 9.258915100059797 -3.090957594790083 -1.9574548844579966 2.375844331246463
Ni 6.139049316190079 5.984754848036922 13.475837772062887 0.11035226190302284 -1.8628498580869013 0.5983828660283953
Ni 2.4587391038164745 8.370338447677177 4.133654168691129 -0.8976739292900927 -2.249241926033165 1.5244577150586842
Ni 8.772194176232434 6.142277853235792 2.747194550076111 -0.8026151032110306 -0.06259890577814381 0.42647273801723323
Ni 8.984297034066572 4.614874553471553 11.71926199682339 1.1182905213680223 -0.3227906890455344 2.717511545481526
Ni 4.307386465040425 6.1698823075177645 7.171515111599728 -0.1750090786514599 -0.3319031928697639 -0.01024558898740816
Ni -0.0005670754180579484 6.43390078111277 7.653359001815342 1.2950600343540148 -1.4458405794754132 0.36675526755194254
Ni 1.788951803756937 3.1548727463006285 11.926890231823684 -0.6059555361693306 -0.07640752952646196 0.09333541563005215
Ni 4.790223893590451 3.475645015813832 8.369464244952765 -2.7046853402511353 -1.4280958538974824 0.22277014808582277
Ni 6.862139855382567 6.427230938104291 7.328992787768445 -0.328172522182738 0.36769963374308284 0.08308237044347626
Ni 1.6757772415298418 4.840733384334274 10.22927827399299 -0.052267184834832565 1.4757805615679551 -1.0093153423181844
P 8.662997467671977 1.4428137790020552 3.1485192814209846 -1.4632508045320607 0.31803337686620714 0.25002795536051137
Ni 1.802883542412651 6.242149732735851 2.4624856869210987 1.271331066168191 0.07437738647031061 -0.3446736051615548
P 7.532565462193262 4.401809610099438 0.6601608941862731 0.0966534242596916 -0.5579062460705876 0.2103329507637345
Ni 2.178725958152591 4.013016042886722 7.770272746489077 1.2989380292521824 1.9263093120931274 0.9171832029676141
P 6.046846368526399 7.161246698646314 10.456106591051675 0.05171105522104643 -2.0722808658616567 2.423810831823413
P 1.1237066575353516 6.531885492826796 11.730161315869978 0.9981063609762423 -1.7482185091925502 0.18448153691826938
P 7.904217255349512 2.433225335415107 7.440314410252684 2.041493448167155 0.16655426301588735 -0.4276495319341538
Ni 4.903870247764054 8.821334545249137 7.495650980166861 -0.6359142873149499 -0.18528706353870025 -5.013396111073895
