# total energy = -340892.41848495265 ev
CRYSTAL
PRIMVEC
9.05610946893151 0.00000000000000 0.00000000000000

0.00000000000000 9.05610946893151 0.00000000000000

0.00000000000000 0.00000000000000 13.25453161335768

PRIMCOORD
 96 1
Ni 6.173251069541199 2.001454560474575 11.527612483704928 1.236056302126297 0.1423830650863225 -0.6355872429928345
Ni 4.592996167029179 0.3861362127744361 5.95131118010624 -0.7407368776489952 -1.1547711327925596 -0.7022214951826165
Ni 2.8040794429924283 1.8516393391958275 4.624307666005862 -0.9098383325667685 -1.3066194570568401 1.3846773777025314
Ni 3.237269390078665 4.487592107278024 5.02200943636327 0.6867709649555012 0.8097707404192054 -0.8633581867273582
Ni 5.436889741039945 4.4094469374530645 2.5654011461652484 -0.9124567440262221 0.4603503646012846 0.41370104017386167
Ni 7.27094211537309 6.064460024795892 2.8034264974895446 0.049126582323321843 0.31396589166505284 -1.3351641014637523
Ni 4.880455198270791 4.5193609397900145 11.62826661396562 0.5050207109254657 -0.7308409586915219 -1.8298896011107972
Ni 5.7832225408563716 7.870103383282371 12.504789350901328 -0.8582463194220897 -1.0204232793058876 -0.2123476672009182
Ni 2.063932660674181 6.432029401647843 0.38640155678601 0.00961695426447376 0.1648017991011549 -0.6958762696908789
Ni 2.987909411966453 1.7475303031189078 0.5505815791281893 -0.36437931112059824 -0.5837471183930915 -0.0837598561264751
Ni 0.38746202722134465 9.096318736699828 4.6103902367571665 1.019345729970993 0.2198354909375311 -0.009105818956010123
Ni 8.592346236901587 2.218792135005716 1.4314766057836208 0.10494831727863216 2.235989946119265 -0.9416513633123074
Ni 6.83065217835259 0.9173205107288993 4.938387131446162 -0.22112824160702563 0.11566518947550403 -1.910326820621942
Ni 0.686568121032419 7.18385856536303 2.303902358731751 -0.4206661586377852 1.094965730599153 0.4024221248259327
Ni 7.510421877900758 3.849263165305359 3.9370204898704064 1.212290567165267 -0.6227533244529597 0.35122631867840803
Ni 7.744721545731488 3.7868303456538035 12.467424748261301 0.6420589667601072 -0.02835181166981569 0.18970113344599585
Ni 8.17641723473207 8.984412390248671 6.554180019289866 -1.0054944259101974 -0.1268669717285944 1.8688053043393882
Ni 7.060115883651562 0.5058987343122949 0.27546783650697076 -0.19024132222018203 1.1526959954310858 0.5040421490622803
Ni 1.3746631021450895 6.837598214423483 9.388343858406818 1.369290867944132 -1.2753021350007971 -1.3408128151090972
Ni 0.24752158786137518 4.884883635870097 1.2418262751632285 -0.3523128668743674 -0.349862605561662 0.1582413722748178
Ni 6.258985259219365 1.9020999819429216 6.965720430742363 0.7301740145314844 0.5913809807892654 1.0447986228264587
Ni 3.716111185709069 4.401604346530777 0.4177393184805623 -1.1259174417856608 -0.11627094138030299 1.0397564324168609
Ni 6.003394677695452 5.561148620999184 5.009006674185186 -0.21466963046587548 0.9613071898700218 -1.3269239729421471
Ni 5.067644983910139 2.9026823644264486 9.326379239622101 1.0496124992753344 -0.7681882889917288 -0.01245673770611403
P 0.2896750612631878 5.63801687936913 12.320432316347999 0.06770228844298018 -0.7885018037381 -0.15179253132568052
P 4.067805202414634 6.246152751901951 12.499620123535923 -0.3470109950454798 0.5327557149468889 1.6943628968246756
P 2.2993371738773343 8.447683941990947 1.3211958310074647 1.5136192296822835 -0.3755749227261016 1.4362483078012878
P 6.25751816946254 7.8282641568840265 5.7671796426822 0.8598766559366611 -0.5342263859551445 1.384262658762616
P 4.8825381034810995 0.8650115160103976 12.862767402065295 -0.3089810368559518 0.5782040770876753 -0.4491226142062652
P 3.6808648071068273 6.267588563348895 8.356637438415536 0.3423498421243846 0.2632570524562756 -1.859505881315333
P 4.571768646103266 1.1226406278075287 3.809259612324968 2.3613247974740497 -1.177669891767604 -0.09656960629663369
P 0.15072264346167275 5.565115197008378 3.6311721224546636 0.5779662500452563 -1.2971634538502628 0.4065811412996288
Ni 1.4734652579905307 1.0790988528024983 2.6985830109232514 1.1974326762168281 0.12069966657561794 -0.4845089641253591
Ni 1.6658351383268155 6.50066565638227 4.9137726255260965 0.3403410392244719 -0.16250271865433302 -1.1132462740758957
Ni 5.725489842092421 5.402766320029347 9.212615485089927 0.15531391421537769 0.7834783823815796 0.21371523697240613
Ni 8.366341965473646 2.1338005463155723 10.109814225876299 0.23987055521153527 0.3787335229597413 1.1671754199941835
Ni 2.202291903296239 5.417210814857347 7.023006663302538 -0.09927029305724838 -0.3004575727659729 0.9763527713492347
Ni 0.6040760185946441 9.100303424928242 9.282705245416764 -0.4159746666993868 0.6199209972104872 -0.38727704165437815
Ni 1.5917652178263697 1.116654539355298 11.396789735500336 -0.6014872159853318 0.6097175743149241 0.32392865930471954
Ni 4.301353213147731 6.775183506991148 1.6574265405539015 0.6577159565710736 0.32831496129787324 -0.7611689202511019
Ni 5.381647472418754 7.701668800645399 8.125757357573555 0.7833652538424832 0.17299153400079886 -0.7040598339429358
Ni 5.078385529907635 3.0729734495334773 4.706711018569459 1.1156607970546593 -0.32383095738459067 0.6606547274844236
Ni 0.8390023692103877 7.465648471988764 6.886908731250104 -0.05663137534079924 0.1098364986088689 1.0985637323630566
Ni 4.887645749301157 4.593503309167341 7.066759445661481 -1.1837176406235808 0.39811449858951437 0.26263330282934766
Ni 7.949389622918195 7.40387674833874 8.726571365486665 0.1725649879863415 0.3445476211066517 0.6494879122343266
Ni 4.559597234787383 0.36730131600749305 10.565611844993018 -0.658134532165731 -0.8787194996747769 0.2290906909872119
Ni 8.285316952792696 7.073211018147668 4.883645665686405 -1.3682871092699662 0.1392504329946118 0.48168357886142205
Ni 7.046604168113396 5.874535294054317 7.134410395670337 0.8219634258306553 0.2881039362966264 -0.17158385501999485
Ni 2.3964367811160896 5.4672277082335485 2.586091639791287 0.07493685851820642 -0.6656262125570859 0.7381374923529351
Ni 2.3552495946096674 5.21847448946521 11.44376377604757 -0.5733858297634254 -0.2934068365667786 -0.4446841188189374
Ni 1.2373996487858452 3.372839350940833 3.6174403434529734 -1.301038877645269 1.0587458290351701 0.8419007881845307
Ni 3.8662705391529983 2.7076047073167646 2.6166297470072735 -0.7074770871546009 0.6840527946933898 -0.9912877953925121
Ni 0.9269743235731928 3.2817258321543084 7.977319570566492 0.6411526528957538 0.7834773539403151 1.4458112688993745
Ni 3.667896458145263 2.514619011526998 7.077628588415441 0.02602316353663905 1.083215274931444 -0.8438653681100692
Ni 3.986354552582013 6.913434076297886 5.800779620557338 0.4422037755992449 0.1669808090303447 0.15068387164253405
Ni 0.8869064722145702 7.590468830743825 11.448999113013128 0.48108579737642315 -0.11524995631495637 1.5787658415829455
P 0.11307367897988967 5.549946213411576 8.251595623048782 -0.8401722355291982 -0.39379607371981856 -1.7335557649740532
P 8.52128294479167 1.5500708891817856 8.056422876788194 -0.3324968605897048 -0.811147566162074 -0.32847822634861495
P 2.0068610579117636 3.216241103564172 10.344114799317989 -1.7965159107463577 0.4475699250071647 1.4624203382109653
P 4.275353122457331 5.925792874447094 3.693680107815983 -0.36240624655462744 0.9250546352958907 0.2321125085326712
P 6.708666381905469 4.013586274179377 10.50880286940929 0.7581242198875072 -1.1012777888601097 -0.6059005145616791
P 6.252510140848193 7.598094075035472 10.182118205002789 0.5363053799713603 0.6117806274915399 0.37468892057672243
P 2.3469451420972685 8.53255780125616 5.52413086735722 -0.005844374595918967 0.570647862006972 1.184230061483625
P 7.18062553423225 4.15050559537344 1.4695566410828413 1.1597264199153061 -1.7313834399130827 0.4084109954195159
Ni 5.493064788950968 2.9023563444804874 0.4168989115087514 0.31289811252217076 -0.5005817013175056 0.462656644136958
Ni 1.571053895148228 1.0980623463259038 7.010560851865471 -0.26831518370547336 -0.5829153665204154 -0.7297564673780916
Ni 6.569754716597199 0.6209801527927284 9.378177469758597 0.6586610940931624 0.008016699656889418 -1.165435040264309
Ni 2.878683673959866 1.6967526965354622 9.212628163643382 -0.4739180759833903 -1.358717720413976 -0.20156728875596253
Ni 6.466216215425711 1.9951696204052134 2.595926574827781 -0.3541231806102288 0.03042617770034115 0.27851063618123645
Ni 4.095308607300299 6.81927770468239 10.397755947760126 -0.07581000515177912 1.2373973895352237 0.1948608232700644
Ni 8.451849752411562 7.295457004087446 0.12706899077123202 -0.9075415661127919 -0.050108486620616934 1.0903148620907028
Ni 7.575544362106494 3.7072905349488985 8.419543892599696 -0.4507547504930495 0.2346077641506992 -0.601785463952041
Ni 3.1882848931980057 8.372744634967937 12.512794951796598 0.49634529463865484 0.1100601845839008 0.26176761239494273
Ni 0.02294003125317026 4.6462370354265525 10.260133872460324 0.684641320207008 -0.457212076082619 0.5243968014592324
Ni 8.60200004974588 2.4662412739902106 6.068269024497871 -0.327822595042487 -0.1240385011408638 -1.1451541785280859
Ni 3.701150492633298 2.482786786247738 11.590372228913404 -0.22745521226631793 0.07720302884456381 -0.006157534960963589
Ni 1.1830901594544876 3.2108617744558132 12.647289046837093 0.3695441431509894 0.5952355786486653 0.18272315946626597
Ni 3.0933406400464376 8.414873656873803 8.098081886605298 -0.8272732680793429 -0.13495129139862563 -0.10998202304779768
Ni 5.900607833621596 8.028349842608058 3.610507891546494 -1.1447911387617125 -0.06713767418876179 0.5708849177184426
Ni 3.011011547581643 8.04055747836238 3.4843780193418223 0.4351913488371537 0.18727169806889682 -0.5189136668574741
Ni 3.2876938083873193 4.3830302657206035 9.135473732209759 -0.16746674752782773 -0.21378054299270277 -0.11605702559728401
Ni 7.225616286774884 6.00869250181732 11.356125086518414 0.5074838277539776 0.4832614648715032 -0.23840605485086683
Ni 0.7194789289662338 9.47323401866933 0.530225255946761 -1.1260827637189317 -0.24820504321915965 -1.9206508282557697
Ni 4.737314329774637 0.2853045827653867 1.8036501087613106 -0.34445660405474227 -0.34132242930113477 -0.7653940140760431
Ni 6.1408573654661165 5.390359449863604 0.18472471260349624 -0.5745338273249396 2.0876357510511725 0.5746454132021394
Ni 7.968099545372519 8.664894730987546 11.42298091010351 -0.943666079749491 1.2262377733739787 -1.058427526463803
Ni 0.14527448792027792 4.800009776604884 5.924312200525853 -0.5496584042394985 0.320076632548481 -0.2118902679485254
Ni 8.162833070317022 0.041224316555823426 2.442850248478461 -0.5447509396355521 -1.39495150593503 0.0927674589417241
P 8.626315704048814 1.7876488686913463 3.5760992030831806 -0.9392201281629954 0.7799819391925471 1.5414354805636032
P 2.0325532408754223 3.4978770563265353 1.6296052662209244 -0.2164436916471627 -0.6539292358351319 -1.4392688397951663
P 4.681447189590354 0.9228447375910184 8.0594974260008 0.5922703253727541 -0.36243864245445967 2.0384196943378377
P 8.579359775720802 1.7313742035746118 12.296295067404385 -0.19296617735051283 -1.298827471816247 0.3945617482412495
P 6.487815036845635 7.825492987343357 1.5568240301179859 0.6461771026935388 -0.7192949057251353 -1.104867563093897
P 1.905668089129274 3.2551370943392564 6.031501219481145 -1.972651903913409 -0.34937640995386277 0.43387597245983983
P 6.655534186823415 3.863372584077788 6.164338046463006 1.6893207064150777 -0.24486106644759123 -0.4131171426459337
P 2.4789560518826947 8.545317859696695 10.33177494436336 0.5711507697853196 0.4972071284183178 -0.6281765523510601
