# total energy = -340892.23344618175 ev
CRYSTAL
PRIMVEC
9.05091004061282 0.00000000000000 0.00000000000000
0.00000000000000 9.05091004061282 0.00000000000000
0.00000000000000 0.00000000000000 13.24692172444247
PRIMCOORD
 96 1
Ni 6.30846610878323 1.8195677765380303 11.259260431800492 0.541281493029713 1.1145274547811643 2.1722852088714526
Ni 4.812052019842576 0.26883103137984665 5.920076177793079 -0.35897382383431076 -0.6034633658750962 0.9588852106920907
Ni 2.873012232429423 1.5980739091034852 5.167054049248087 -0.4075249932701368 -0.3614634230253839 -0.9769312695605241
Ni 3.066900824623883 3.9912431014908254 4.56141874793739 0.7437049591383837 1.1409182860698674 0.22172987974676653
Ni 5.158674716848982 4.640238596930269 2.689005423679922 -0.36718849843461926 -0.9883526240235881 -0.22118249188372874
Ni 7.202053393759742 6.113527611038654 2.724971024408291 0.4718681354328971 0.3072694534814837 -1.192162171846508
Ni 5.086385099359618 4.280374418718536 11.42712584780797 -0.3483608242051549 1.3313820087135007 0.6023500782062594
Ni 5.519471138781937 7.884546306793795 12.27398781034942 0.14068253745544804 -0.3596207133896903 0.9437074745103876
Ni 2.031331915814185 6.328206143307369 0.44062273210835806 0.028893028885266365 0.5018726522147873 -0.9037142219469018
Ni 2.452814688725754 1.465758657059287 0.4593409189031187 1.22252587174003 1.2723155415686476 0.12199344568637699
Ni 0.27022668168870606 9.301348592124027 4.933749649465743 1.2387184223394925 -0.8040904022049764 -1.0969603924316786
Ni 8.559255437301134 2.3961107381096443 1.3978279577848822 0.8213723292138757 0.33902746261937095 -0.4867964746079553
Ni 6.83717501145522 0.5989711163404436 4.558040948357194 0.3089100744087003 0.4815542523724094 0.8144576043719135
Ni 0.7284796812200679 7.2737003966451566 2.443553797700949 -0.8343592283918468 -0.006648101444136938 0.4567819305237359
Ni 7.611335540106185 3.819447780398348 3.761794389332178 0.7333392996333435 0.07686235767569344 0.34799804154909747
Ni 7.711556265592566 3.7631782734581485 12.590735263909114 0.10901605959010258 0.3127446176634421 0.2786307066988685
Ni 7.890429398238402 9.0254949597413 7.105145301302172 0.1281728350242115 -0.11553072078016877 -0.3562911347958251
Ni 6.85627243137541 0.7621626424679292 0.5301905366250408 -0.33618639362615 0.4377501107032654 -1.3051012206401007
Ni 1.9976896836609404 6.322042473655402 8.998487949646583 0.007308874956587412 0.6854884986986517 -0.175079269767763
Ni 9.039659633757934 5.129956179689379 1.1616897181082195 -0.09687273935934929 -0.6234729762278036 0.9088826535217186
Ni 6.392657672810532 1.9348401652126939 7.058277879581447 -0.22125448277224477 0.4110412339535115 0.4024002704490618
Ni 3.634012738064294 4.138293234876289 13.952850141352249 -0.9641618857099976 0.3640921188974826 -0.33070685856881754
Ni 6.136118682185951 5.579035176931118 4.794485108788976 -0.4930910493674154 -0.12587889678371225 0.15910809115048727
Ni 5.463690380977137 2.854503121653694 9.258471716584728 -0.5839376371373427 0.35177499209302643 -0.4276168789240055
P 0.30034901497609207 5.598014935022416 12.30915874118727 1.4829611384767944 0.45652661997982025 -0.10348124581480243
P 4.2104923432665045 5.855060776602225 12.772721909565636 -0.799398910266578 1.0409247416933491 -1.434827259084045
P 2.280132378461628 8.31874560813563 1.4699582792597459 1.5492698890063576 0.10066357386034921 -1.3574488810038816
P 6.55402634568118 7.641194491915051 5.7319955544909345 -0.4857217534865377 1.313969726774324 -0.38034509042123527
P 4.885952699296771 0.9890562827576334 12.731165561782905 -0.686562705599437 0.4571727382042513 0.0442096046376787
P 4.08009588412424 6.082826924607714 8.035317269245224 -0.43211553812530745 0.7152965831990197 0.17293934060662475
P 4.60304840809043 1.0943364668863778 3.8664455352218448 0.46325596828385374 -0.3412185567334188 -0.03759004243863204
P 0.20749573016034342 5.376358151209405 3.5504529275490437 0.42363166902401234 0.6765161199967122 0.44733569750917146
Ni 1.3912787193705458 0.8874453375083416 2.601271333511974 -0.458507654965591 0.029400050428671953 0.6215793587495166
Ni 1.7987054291844577 6.553039796500469 4.864428730428428 -0.08463017454657039 -0.41722525127703625 -1.3709651703227614
Ni 5.963146742804552 5.625330581145228 9.229726026695381 0.5869982783405374 0.2071830922808432 0.07959698299803711
Ni 8.667631032620733 2.599910076660791 10.352217159053671 -0.1480063248103709 0.4043630506023875 -0.3711873351813672
Ni 2.2473318809304574 5.2064092157395425 6.683694206575305 0.8213774714201983 0.3939035458319603 1.425537863362319
Ni 0.46172130821070634 9.233557276862308 9.195165127185785 0.5239008356594204 0.37758912494265295 0.45715602603370303
Ni 1.2920716957946201 1.2448259460394582 11.432464074475707 0.6589917379597038 -0.7989597658466304 0.0877563788803779
Ni 4.2357715346584905 6.724663150304566 1.5371857228337722 -0.28213074943232697 1.24496800279363 0.85074898260378
Ni 5.888865925133937 7.710977007358021 7.834892109910308 -1.4110993193394858 1.0377921096016387 0.7261116715366527
Ni 5.153886785504063 2.966227553641763 5.011178373604721 0.3423472710212233 -0.3237389118914166 -0.2229575815062805
Ni 0.7144037061205989 7.583965588523884 6.6982263475344785 -0.7670917134934402 -0.8068494530073523 1.6781996568012516
Ni 5.074039658235856 4.430519963294855 7.017106195470095 0.5733246375081869 0.09254634406985351 0.08162738316450459
Ni 8.187797043488565 7.3369572060395685 9.168737375325613 -0.2386418250107568 -0.8649828668149749 -0.530698575307544
Ni 4.53099411425885 0.33985714184510696 10.367080563315726 -0.13482813555720005 -0.7637492793837686 -0.09440679431736
Ni 8.376381802472963 7.15976754263788 4.629534085774056 -0.21288142821720113 -0.20935336045928463 0.05191725769458156
Ni 7.163460313883112 5.977202805902208 6.895141564004442 0.9962893623721616 -0.8945114724017111 1.4307430617123424
Ni 2.35311891601443 5.4528021363496535 2.7100026295912247 -0.29109721459699545 -1.0385053336185792 -0.47111968730264664
Ni 2.5479759555697714 5.1631006117973115 11.482418761568365 -0.66906943391068 -0.10502185082904494 0.2503542283516785
Ni 1.1363960452603696 3.060230304016689 3.5795036331025196 -0.9148033898815277 0.593781362700642 0.20590114024462602
Ni 3.5477304138466774 2.4690520211128724 2.473438997148567 -0.3137128951139823 0.43524868443765036 0.7604189294589548
Ni 1.201155305700635 3.510413512268031 8.25273913230911 -0.5160751689674145 -0.11336559480804992 0.054175714711455096
Ni 3.3839723007585265 2.88436207346256 7.339443490993158 0.2675579938244747 -0.8889252365631851 -0.3501171447746293
Ni 4.10937557769856 6.783919457516643 5.8333747964464076 0.23564186184216834 1.2047119834870608 2.0320171332456036
Ni 0.7327055510592797 7.56484101587395 11.277952370956497 0.4395323994146688 -1.261809242720685 0.3730272166035834
P 0.16296525337961595 5.697049991309961 7.860975022102728 0.23687984801432752 0.3832380956983142 0.9590268784762774
P 8.53117951474548 1.8867617317453722 8.109500337088761 -0.0798882889862108 -1.1267761902415305 0.2939588524155066
P 1.9981331782467646 3.1802363185767835 10.365397999162568 -1.6203981724117513 2.3943986972098825 1.7915688511537273
P 4.09567250008758 6.020755784412139 3.9590146214662694 -0.6424860269951967 -0.7565908139621164 -1.8990764445191033
P 6.955760033158694 4.145352944609819 10.601961631605226 0.9027816828303032 -0.34279104342686123 -1.8059744850560961
P 6.418878158833655 7.759381273582274 10.301614426811117 -0.9157225592616874 -0.5608756131115565 -0.513644962259367
P 2.3968076581730826 8.46084489379771 5.729094737863246 0.6503363762775509 0.8286500938222116 -0.021935880841142865
P 7.069240341670231 4.065623479170504 1.5989563728201763 -0.8577547244976518 0.7001083054943555 -0.07876188869125145
Ni 5.6289871487508 3.075291018114886 0.31479336210909264 -0.4098227881653781 -1.1024355566136368 0.004150788943579948
Ni 1.4571512417303292 0.9252473678584202 7.0426596294324995 -0.5121465233369695 1.342363447425669 0.5039670728499708
Ni 6.838505495212694 0.7206633154176622 9.373800220900865 0.4752838459826654 -0.7666538546250732 -1.6803064187316095
Ni 2.6002902148772113 1.617135125384016 9.316255440753672 1.1986377522685228 -2.7564493601973044 -1.5822753973981007
Ni 6.114867145706042 2.2219621804393235 2.7100415485038583 0.6702765668449037 -0.2285859834366515 -0.5622290418156576
Ni 4.061098024213113 6.818629697039833 10.312755191825222 0.49884697801458605 0.5530638303766217 0.49765115793427195
Ni 8.169242678163261 7.378419424359184 0.2878144098351105 -0.3359287690893892 -0.21555794660809974 1.0577436130229008
Ni 7.773383031220442 3.910708105069095 8.466689971420676 -0.8057595623772833 0.34655590978593215 -0.8147129149158292
Ni 3.1518798178137715 8.678066731752478 12.367286399932976 -0.613526149427737 -0.8189284956590734 0.21222682535233775
Ni 0.3521799556940827 5.128480881373269 10.033907518442685 -0.8506705639573608 -0.744103737238699 1.4239558635871798
Ni 8.48965394005646 2.1680459100769673 5.759522991905752 0.512469196783711 1.5304424718872094 0.3487261779643736
Ni 3.7389851912559355 2.4451847716675923 11.503467557666182 -0.6116176195511144 -0.396066357811234 0.4916126650496759
Ni 1.0855570842690392 3.4696663158316827 12.709361014707204 0.1683740898334455 -0.18264654059205965 -1.0593029870902206
Ni 3.058266256565181 8.240862528318933 8.059890489663857 1.2012178542908734 0.638245763661604 -0.4957943072311913
Ni 5.488136888656962 7.898756235360002 3.7606422085000264 0.22474424109305807 -0.7212749122696416 -0.6338332364162053
Ni 3.123079822464935 8.1589789463199 3.490020907139036 -0.3395499107817443 0.36878103973271975 0.46488527635716065
Ni 3.577037260150741 4.467520083026484 9.424694392442674 0.2830512043640674 -0.8684240312860398 -0.7124133481139537
Ni 7.36699717604673 6.092647161865252 11.788554928343967 -0.36276157301151724 0.07651860118302951 -3.182098830982294
Ni 0.5764424964715599 9.173911780523895 0.33820625587665076 -0.5747773107943134 -0.0993199153482612 -0.5106172311766366
Ni 4.685275924666224 0.37024104642903016 1.718403946238529 -1.1897018832314736 -0.2219769627605661 -0.3988943141783324
Ni 6.159488131585918 5.81558975846386 0.4231553810638202 0.16247212252671372 -0.7731692871460878 0.7086970756046311
Ni 7.9145772258910405 8.837417051712128 11.546599668865074 -0.5711834227954679 0.28704567023544114 -0.0909085513561144
Ni -0.03081653807784978 4.756578992974877 5.931878564321954 -0.41586513770471606 -0.19894424931081867 -1.242772537804208
Ni 7.983119766675686 8.810725918373437 2.348374429037101 0.3842976473110801 0.28959569035080446 1.3552688426334272
P 8.366561565215425 1.7464183226067622 3.4398806763931264 0.051245428438537556 -1.7623248666869458 0.9449048372525984
P 1.7210938766652022 3.444531938998333 1.4801975736463386 0.529944727860655 -0.3826225736015023 0.7645666330787413
P 4.721542920694756 0.9189026800081581 8.250844776863946 0.003354775404845835 0.5667189592662111 -0.8916714318497547
P 8.418975384531928 1.7205055675207415 12.367511767589853 0.1471663454075788 -0.4728716369967469 0.8123356729329042
P 6.2066976777014204 7.925085332302102 1.4676928365080757 0.9639032327319723 -1.8716862254316087 0.18777460584724434
P 1.5551092397380148 3.2782033674943842 6.010777156231091 1.1456586289683302 -1.6765356388352677 -0.48095878488025556
P 6.998054935190471 3.8017442006050346 5.976202680356625 -1.1697357245221918 0.7126216074700178 0.39952834821790545
P 2.3836928897065635 8.329679107312687 10.247421198605368 0.4657663934105333 0.9348217419849836 -0.5872435615821241
