# total energy = -381170.67478662543 ev
CRYSTAL
PRIMVEC
9.21807403885294 0.00000000000000 0.00000000000000
0.00000000000000 9.21807403885294 0.00000000000000
0.00000000000000 0.00000000000000 13.49158313306301
PRIMCOORD
 96 1
Ni 3.18510261082086 8.800273842027318 4.1861817404257 -0.24074987249269506 0.2258960953093142 -1.2575067586905893
Ni 7.819443133375135 8.386446854033348 10.487775916818986 0.5308140178394859 0.6928379970851875 2.2799110729822476
Ni 3.3919100969689175 4.497387599812947 6.930545196735572 0.8168363890167352 1.3187329524909224 1.0348029450663276
Ni 4.80945627090973 3.900646373011937 0.3173607672767523 0.4948936497937928 -0.5563954658530159 0.6374080982516571
Ni 7.040128736498421 7.164867711428464 8.554527368449502 -2.015196462143839 0.4793220206077809 -1.826726630001783
Ni 8.544214187459868 2.310233660727709 6.305183694338731 0.26406669284176454 0.2724243207778405 -0.4498636061373478
Ni 3.288557053300898 2.224689935679616 6.888167867771015 0.2790040308778873 1.9054913469065118 2.0339606301252195
Ni 8.440483202765236 7.413921629892837 2.071011739799575 0.31250447662817793 -0.7497663348411152 -0.6956368999865632
Ni 4.861962419387525 5.928180145832866 9.653861946899992 -0.5847737598853928 0.33687750615590367 -0.5117320615073703
Ni 3.5851117061588944 6.1229856998674945 3.2089193481491747 -0.40166776315841146 0.07265217624908778 -1.018359969018956
Ni 6.399352771060046 6.273572153788362 11.438015525692657 0.3968351176564585 0.8765615727915098 0.6207710039156084
Ni 0.6682808541020054 3.491723400290119 10.638140215160798 -0.1287258793142041 0.09270009603889841 0.06605009755153786
Ni 7.783400464739569 3.9537516962880215 4.46505244046772 0.6931221039845095 0.2356043237360136 -0.04842518538092305
Ni 5.723852321542345 0.2513280172757273 3.9399061494106253 0.19551774012777293 -1.7107408239620667 0.3754252845221147
Ni 0.1315990654667661 8.973564411766446 0.45681547525278404 0.1489812871291305 -0.33030139560028277 0.4338273786100916
Ni 3.0025202226713357 7.439981124581518 9.991380798005965 -0.14668889155052803 1.0039731041696645 -1.8990787585119486
Ni 4.383581260433231 2.236148001437674 4.786044207022106 0.32697824476432075 1.529211941914218 -1.2452623941055971
Ni 5.352686579186582 1.4983978994146083 7.980932725010106 0.533845605576958 -0.7295667199647887 0.2519665671441209
Ni 6.922349407302355 2.4632352499893746 0.6146067756712368 0.6974137893813279 -0.6819876846342449 -0.10977813456710771
Ni 2.1518579344290787 8.941430206430493 6.415584877249398 -1.8140878581918498 -1.825085237743618 -0.5956729232964
Ni 1.6411029002195148 4.73501110674072 1.8969569917407825 0.5702025469394373 -1.5312791088558917 0.3882010961305443
Ni 1.4858613190196293 6.923114507429402 2.585041033829945 -0.17680088044456002 0.6752272259819597 -0.7040410648898584
Ni 8.317716895632637 5.065239383262585 6.576121320051399 -0.2461607590956212 0.6513936138974717 0.7169076364398815
Ni 1.914510969715899 7.27521727312574 13.387603109907804 -1.7323496604810937 1.3209757257785122 -0.6435332373127884
P 4.80269020472597 9.21129853558006 0.48603308203214135 0.8989913625499357 -0.7109326498033691 -0.07143321624032213
Ni 3.422772208117734 5.918464296026757 0.6369550738400511 1.8892206347709462 -0.2502542124387045 1.8850171382125602
P 0.9232454014996586 8.218668692438483 10.844142963464382 0.03508115997384926 0.541397449782287 -0.5026095303808119
Ni 6.174265844527251 3.2538510053692096 2.703551356279924 -0.09320326092756206 0.881266948686979 0.46470375647397383
P 1.8534596668071146 0.8814561856448068 13.433178188680461 0.32690573965517244 0.12345871737799385 -0.35137415711018194
P 0.2459004154106069 5.81888144455105 0.6465418706126824 -0.488211609787927 0.5168624407554002 0.20818299430026727
P 1.33592934833997 1.4738225146109212 7.572771165185807 0.25130425096977366 1.5705858768753145 0.5524231114688292
Ni 6.795988051380021 9.068335428708197 12.729605017151826 -1.7416184873775293 1.5334678889770945 -0.35072212534847985
Ni 2.923604292699706 2.573216088733857 0.7348261290074134 -0.47411990758155126 0.11159796138466586 0.7400509073255642
Ni 6.407649037497901 7.508222525069776 5.977432314252258 0.7268907157945224 -0.3801969948791452 -0.6477035666403943
Ni 0.9069967027774309 9.219364350172418 2.939708267662962 -0.12664817084956898 0.8575143263520716 0.014891315289535644
Ni 1.3962432053431675 7.698704802482901 8.292358896361646 -0.7338134110562847 0.7173560368312097 1.4334257507508281
Ni 1.765943273961576 5.349137620765944 8.765804698592799 0.21864224196037832 0.5342592960756088 0.0444587445340073
Ni 1.4816855315792425 6.074010073662697 11.154449138846813 0.9409774771737341 2.4005726872310786 -1.9203708351215054
Ni 3.022062539169392 1.5470601111095312 2.9704551528890306 -1.6663820953410333 1.4503762625622376 -0.38734954676352645
Ni 8.87632295104098 6.716491382757741 9.430400166781634 2.7325306445981776 -2.5319159495634715 1.4261621272098794
Ni 8.876903689691629 1.1455484697388632 11.882643785548234 -0.12194973693263515 -1.0524062599703874 -0.822526497422977
Ni 5.12000395982624 3.646245971732058 8.948238675753824 -1.383308779489779 -0.25651819107054535 -1.3085716956872042
Ni 1.0335857451231152 7.801596942459929 4.783886255940883 -0.2703900639566311 -0.5457055902393376 -0.7032864461120211
Ni 7.083407593082558 4.8883445466599005 9.592205016541245 0.32946141619749064 0.25638809325058426 0.5551744489617213
Ni 8.071087330582882 6.619978149864041 4.1466915121815155 -0.10273125502265534 -0.6048787581653842 2.2431635810495694
Ni 7.069460647393144 9.128040892839286 1.5891599760521118 -0.3116375006421923 1.1200314153185291 0.15043061798114737
Ni 7.430809141130779 5.032376950094863 0.016366690067121728 -0.2515353931439733 -1.3072545195376777 1.2596842259578822
Ni 3.8916034425946764 6.661948039965762 11.85756325029922 1.1004514363040725 -1.213979781942232 1.1280185472890638
Ni 0.7739531651430962 2.9000889863853003 3.8470441955569634 0.4258165924904731 0.17368958850908797 -0.808492387927414
Ni 2.990684215886664 8.678558395310182 1.7755190090456234 0.6053852654881574 -0.2653177916400463 -1.4853723190214485
Ni 4.160467001697881 0.42763750619085195 6.121049904365329 3.149305181491041 -1.7382701397305869 -0.5701513819865278
Ni 5.72184278144962 5.502323571504006 7.33479368422335 -0.5207849157382579 0.2749224046093459 0.087038783988063
Ni 8.605615777173808 3.788001510933521 2.063281463094259 -0.1771783183886368 0.6474749955693558 -0.4262253978931176
Ni 4.973851399412714 1.6917746520071624 12.637673166946586 0.7619772750850103 -0.4163999271622635 0.05478480905036372
Ni 2.922627176874803 0.16788048221426508 8.420622862720396 1.8840084944423878 1.3926583390254788 1.899788897205096
Ni 7.325280632041277 3.02785148952825 8.15648448825724 -0.03948160303439007 -0.04678276468149362 0.09485725159121729
P 6.720602643681389 0.08312951151467782 9.013200285576985 -0.8263823808339575 1.4879282526740825 -1.074057519691576
Ni 3.0000036885185204 8.937199110547187 11.8572931607363 -0.06847207672946917 1.1866684957217883 0.3739296738131947
P 2.988951218008535 4.602704093204592 10.766984920170195 0.6781120037289224 0.037748422393367245 -0.9565678754128235
Ni 3.110998515383185 2.780069665251014 11.855593347923921 -2.0996903682228614 0.33246240780734354 0.48422742832919835
P 6.558926846955256 2.1500051015912915 4.571636419009593 -0.015805856684005037 -0.019744529616778903 1.2609780050686414
P 3.669540044274788 6.650526846502983 7.745760303911026 -2.079780259562496 -2.406737935501526 0.2245871466899035
P 7.4194893464800185 2.8334699668893335 12.066493658847985 0.3189864848080958 0.4737154730542809 0.027941720715590587
Ni 8.226937304654877 8.82743028750056 4.466078412083868 -0.04707458489029957 0.07755655552924062 -0.6267665593774109
Ni 1.6513257440857148 1.3265176949699158 10.13663090899253 0.15815369765701792 -1.686278320044328 1.0239577748217075
Ni 1.0356690298063984 3.704716213971288 6.128767275767297 1.4422096675910454 0.5538305333393171 0.6654732319189893
Ni 7.145011980420533 0.6084481805522032 6.112618132242323 -2.935576574782196 -0.022002472413020172 0.8391864745771612
Ni 0.7964793721366334 5.320709081105566 4.280488166446931 -0.41514754281240107 -0.006893384685723611 -0.03228637083753149
Ni 0.345026972232231 1.7600252705692403 1.3447409051043528 0.5301571009817773 0.7434941286791583 1.6303354861301214
Ni 5.080089700186343 1.397515299530305 2.0543500713702185 -0.260684406633093 -0.08999812372670307 -1.1682951354209232
Ni 2.066268119011886 1.587094205709086 5.188686906050469 -1.220246074566918 0.20972874152083235 -1.5154992203138158
Ni 1.6024607347667554 6.47123531070714 6.495617115960611 0.26868876499480826 -2.860536872137538 -0.6276070530008352
Ni 6.317477839392248 2.0931203680490733 10.350944672652082 1.6989253193843772 -0.937817591388514 -0.16426392431981388
Ni 4.111251705573768 1.5416398837034668 10.296047355825419 -0.37553327085488875 -0.728925486836364 -1.159162576992036
Ni 8.796853936640158 5.388978135815282 11.789808564108649 -1.5441734483200567 -1.0688412655979591 -0.6803982286599378
Ni 5.380368454867554 5.19272534419094 4.423674350705233 0.5082857548299826 -2.5471890736724583 1.5669500798949398
Ni 2.2888846017609654 3.145547856059937 8.904107147341351 0.8915942987549161 -0.43907140061785027 -0.5770419384587739
Ni 6.9822023606145605 5.455763080640007 2.6657609408481173 -0.47808043489119595 0.46481945611623177 -1.6097116392321824
Ni 5.431620945305851 7.307996743629083 1.831698559940624 -0.2467623972353621 0.38859653179675013 -0.8696226795798314
Ni 8.136600181220468 1.582208626584572 3.302982417021562 -0.19081570666641332 0.2953346497171107 -0.9677125791757334
Ni 2.856865438244081 4.410009478074706 4.75470367784204 0.3589630252010334 -0.7735348980156227 -1.046330486089953
Ni 5.220268948764614 8.515573632101633 10.485185638075613 0.08778851766989397 -0.16556490251942454 0.05639380540869642
Ni 5.9999705047417615 3.4362029416732374 6.2383185522717755 -0.2216193223108312 -0.3023419342728793 0.2329954253582568
Ni 5.156498314078978 3.980668471841948 11.250684907718535 0.05701832636657277 0.6862127784591859 0.9410258139131665
Ni 8.204942980520745 7.46540457217663 12.849828979524913 0.7400043703583449 -2.2932448139766763 -0.30386145624119926
Ni 8.702580695684679 1.3426216699331721 9.275732871580724 -0.8902239007699507 0.4884823469508103 0.6357638777800148
Ni 0.3066567399571568 3.021656943921319 13.002485812825718 -0.4175744070863389 1.1798514727999552 0.11895748707353063
Ni 4.939947323903351 8.170587219394209 7.7630294434051095 1.4275448664900188 1.3364483674928145 0.7453867177161809
P 9.006648078705844 4.26323930671525 8.744393878531463 0.38710220663941075 0.4787566350226142 -0.3595746906431033
Ni 1.8217494928668732 4.809520797426469 12.852756639770094 0.7769133275695523 -1.808993474388078 1.3590671333335946
P 5.525212048798663 5.879859002869277 13.438885098182324 -1.1587334598744172 1.1413903406102794 0.009850667541834649
Ni 3.716008354400589 7.048517183674473 5.461365825907703 0.7672454654624851 -0.9339264838642239 1.543719905722406
P 4.1079331989986265 3.9396203891222106 2.9086101738243584 -0.8580347176319157 -0.41464026415867944 -0.4232416326744453
P 5.43682915701406 7.16397355826794 4.020572591600643 0.2826030610830552 2.1169653532532253 -0.3300807949490444
P 8.7808421424151 7.255167962567593 6.812844221166976 -0.7433079808102813 -0.5290047325448889 -0.38813064790392515
Ni 9.033657034997969 0.1001119689129647 7.353546933602428 -0.8343468870966728 -1.0025294297446026 -0.5801966820376717
