# total energy = -340893.39399456047 ev
CRYSTAL
PRIMVEC
9.06623227425866 0.00000000000000 0.00000000000000

0.00000000000000 9.06623227425866 0.00000000000000

0.00000000000000 0.00000000000000 13.26934736218465

PRIMCOORD
 96 1
Ni 6.229326576597788 1.8933284775534036 11.38109246657193 1.0733422387921063 0.03804461347754738 1.1864846618457567
Ni 4.360975568867925 0.5997938197346817 5.9965374644656055 0.83236996587596 -1.3653424248193453 -0.357712440623384
Ni 2.5634046362423777 1.6001990567422453 4.793711366839811 -0.19645336456816492 -0.23024305942410023 -0.26987121533868363
Ni 3.3842613033289264 4.313205591190887 5.008568378222816 1.2495977882561575 0.40306181529246066 -0.8841077605698838
Ni 4.989501185197084 4.6788104725354 2.455492900372438 1.4239972583480764 0.7088125181365728 0.26533733202407206
Ni 7.46540761408302 6.1071228322233715 2.609709510789294 -0.3550235809373111 -0.029066321238337037 -0.49599048240239746
Ni 5.200735330176645 4.415182571435966 11.93687970163275 -0.8401434391737918 -0.42078468649352047 -0.9985208228058416
Ni 5.7271842377060755 7.8396254160563394 12.321730380778138 -0.32707826067729473 -0.06899581044342312 0.11882584659167277
Ni 1.6519672428374983 6.572764520113421 0.379329343710711 0.7206462775467073 0.8260350247968676 0.24490348964975242
Ni 2.8111303659913602 1.6049497624364506 0.16684224543546408 -0.19670327579544186 -1.2348219154985638 1.6778684987140782
Ni 0.40301124894703494 8.987482947605862 4.44902681639106 1.4675370906122405 1.2440873999608897 1.3556614500861555
Ni 8.593673017760064 2.2863859101232094 1.2792988599541397 0.14039585945296468 0.4745266561016666 -0.044118330475453056
Ni 6.844932811983735 0.7711691812905707 4.969622564385797 0.1894460800123963 0.2621249957343615 -0.8872553050599301
Ni 0.7842553809070133 7.540748004004483 2.589937871518449 0.5743949877542301 1.2435847492928582 -1.4453356148145364
Ni 7.884140616358912 3.8272555430813333 3.6501058982112466 -0.5375924742139 0.15832647578945636 -0.03774405151799306
Ni 7.548499632570408 3.7729216132619197 12.551834074920581 0.9008908935654937 -0.48719216738447707 0.8113925922933446
Ni 8.02483040827242 8.99429168801874 7.264675792531259 -0.6392878317728732 -0.23851378407332474 -1.0455205885941476
Ni 6.722457080642094 0.653519405370734 0.4372272094240024 0.4709569364725373 -0.8135422916464956 -0.6848899458827044
Ni 1.8125846132163945 6.493978961940436 9.166822994185337 0.44989471648559937 -0.2161367019297052 -0.08333151033980488
Ni 0.28649112556440814 4.791866388578797 1.3616873388196389 -0.773223794533107 -0.2561870329833717 0.2774731960556576
Ni 6.402464413701298 2.120809310708568 6.8982957483301535 1.0146817488364204 0.15263379628005325 0.607263970568109
Ni 3.5000189565800977 4.094147287787472 0.43653908239692185 -0.6241849146931636 -0.38120769553184675 0.19358401344016982
Ni 6.0045928118116 5.467400419076763 4.707991047625799 0.3511980365436339 0.30838505514316567 0.6072215473659478
Ni 5.1931740924877765 2.8842857939427775 9.526913793080963 -1.403499909725673 -0.3940750384128181 -1.886594767112325
P 0.16495374925969503 5.460283426767695 12.383140504861535 -1.6204387958416997 0.5362264471043087 1.2956873835253686
P 3.845206682918216 5.995490314641787 12.817976948843626 0.1410337501472797 0.5751830308731642 -0.13598770308293998
P 2.417293237448841 8.601633169667531 1.357944798150616 -0.2541208944829623 -0.17310106299546962 -0.053960770487171586
P 6.327831189894622 8.069155217697936 6.081713809745166 -0.5670280058661977 0.5939302295736804 -0.4555295461738735
P 4.680079745049118 0.8965578930511968 12.606636728946848 0.5983970070957824 0.41671848684394686 -0.08492867962359567
P 4.063485290348917 5.9291254946387655 8.300135616498068 -0.17666229798416672 -0.08263936936878671 1.7153654672182714
P 4.587450050244355 1.3344768559951758 3.794661531552254 0.7864276948178908 -0.8531856170697307 0.5738355157063343
P 0.4113059448241885 5.7607746281584244 3.4397466446429275 -0.3737044451762661 -2.02837465139701 1.1672718363627317
Ni 1.5843694152497214 1.2426268571631258 2.5490818025482826 -0.31445491548632937 -0.7318884261194298 0.17102309742051836
Ni 2.0005185413369717 6.5136889508320435 4.7622887125162485 0.9704898848105545 -0.3571915351229074 -0.009775077108892843
Ni 6.2312395516006065 5.782832771200413 9.24418334065006 -1.0298247751254457 -0.3699015264904081 -0.6350802214494289
Ni 8.55959305076671 2.2889969850085743 10.223049929723038 -0.4854301903880479 0.31320998733563477 0.3890894122727686
Ni 2.393639437532464 5.111550803623405 7.1250295239486725 -0.3345005212832949 0.7144656026572922 -0.3354546576664481
Ni 0.7334328028344812 0.011851378785238967 9.019308142640917 0.14384396590256518 -0.09710593841607792 1.0274164227942693
Ni 1.39873831011832 0.8044848649060217 11.398860468517547 0.3841881183164093 0.8765919118088129 -1.1246468026033534
Ni 4.102125572159419 7.0214251550163596 1.443625225942768 0.1418315634582267 0.6697638888745433 0.4942750423731875
Ni 5.424807260009251 7.839244634302223 8.156561856108745 0.5511905246133088 0.9049156984541705 0.3944650747623852
Ni 5.685615562881779 3.060025639699412 4.654515689999593 -0.9172379674649493 -0.06728037041421316 -0.16540755100595383
Ni 0.6394821579922261 7.475942575946887 6.61073571398455 0.34803686520683286 -0.433116468585996 0.538726330708027
Ni 5.474961656765632 4.59091335096036 7.2544581487958215 -0.48286808608782644 -0.5180832005363787 -0.5469307208956904
Ni 8.336536538945081 7.22710169963228 9.19606884614787 0.0787498045063934 0.4036346570767952 0.2770312234222325
Ni 4.610523611297318 0.403225212027919 10.371481377347008 -0.5038272048379968 -0.9689791045929829 -0.12509316765762327
Ni 8.012600060979514 7.317936280453355 4.686375336717165 -0.3254556374722072 -1.075929282792992 0.3900504906344573
Ni 7.3536663017145445 6.504504857572063 6.975337870043224 0.047990411836349604 -1.9179275157873354 0.1627001793771198
Ni 2.578073800008073 5.26692789176709 2.441851847342855 -0.8883048293703669 0.20847147207496353 0.8812723480036178
Ni 2.0818517107696364 4.984523823696858 11.813474681486422 1.754163671032392 0.07725547934905405 -2.0270603034609604
Ni 1.1651831013617862 3.600128292983562 3.8436255320154116 0.7098214190170614 -0.2384968147924602 -0.5524773617455323
Ni 3.6514884986279763 2.925945131089483 2.7217019577908412 -0.747062562756707 -0.9042821786352296 0.10502262215999332
Ni 0.9649462960903756 3.4863380121286554 8.15263436430201 0.06911125297536484 -0.4793505598528712 0.12823608416197915
Ni 3.6273904533317975 2.7984467070864114 7.123914377383047 0.15757519944572862 0.8794106122045305 -0.20878900331538236
Ni 4.183821390881718 6.743934984820667 6.400708284516244 0.36265667200253676 0.3633303010307936 -2.8242328955001814
Ni 0.8624625134630326 7.3014085390782855 11.303825502299288 0.3077751894733087 -0.03397250029070278 -0.005172031119242706
P 0.12666070414401737 5.694600199032461 7.94338935067609 0.890136483262467 -0.7935949019902914 -0.2765771666039495
P 8.539194028224799 1.8251413448699716 8.0640871938753 -0.4380038785852844 -0.7027002345912479 -0.3186951788199221
P 1.526708178197916 2.9943498533466952 10.379044428282326 1.3770378588794028 0.3645196933532045 0.39863977496536507
P 4.185852226903669 6.240804426614703 3.842139576551136 -1.5342096522391253 -0.33285270126722677 -0.32441896867757675
P 6.679573802142874 3.9935755735397245 10.388890356495887 1.655368260729033 -0.22218856455073993 0.717692594235022
P 6.502936399394396 7.624937036593015 10.263189766346176 -0.9835135507637319 1.1584120719792566 0.30120679222717156
P 2.480176624271376 8.37214869918714 5.839892917054649 -0.5701290133890246 0.9183435418243023 -0.37345787638309874
P 7.0118965449312265 4.092170849158967 1.5683303437924339 0.4649276995593219 -0.6406317473952773 0.41001639223342284
Ni 5.511516705160739 2.7633966532432854 0.6184049812786983 -1.0586373284817638 0.33596964962965364 -0.9960471644543685
Ni 1.2723822313775952 0.9655809323472352 6.913808071694247 0.8301269354780542 0.6121135853509264 -0.4701642653679129
Ni 6.839193886975277 0.5660991676115631 9.282956896074504 -0.3294259349738649 0.49019135922211704 -0.5740139502657275
Ni 2.758709411174766 1.5720484056344064 9.07787872278648 0.06207645761577051 -0.2896185731689399 0.4463314246143733
Ni 6.547651056806267 1.949602581072359 2.494504897704815 -0.4123589243236705 0.11887546888268558 1.9983408240390808
Ni 3.878225900739391 6.434939657588022 10.709769700949838 0.5698328223048444 0.4361411143449327 -0.7728532985675658
Ni 8.185166725451852 7.314908158884912 0.20240363477697365 -0.6151050638790825 -0.8312505075595361 0.17533046654662063
Ni 7.601183508121987 3.860437953082844 8.373820512412351 0.006253437108879553 0.19921627202528272 -0.6028463011163876
Ni 3.1095544664311747 8.27744283719922 12.458258772093098 0.473207680179927 -0.26046457731280304 -0.006925780585555814
Ni 9.1666860940785 4.999002596585495 10.133773834224165 0.23403389392510016 -1.073529157991932 0.05918010990458195
Ni 8.767699345623178 2.4720986113447787 5.711458857884321 -0.18108922340726877 -0.05636372350170938 0.14861310515643436
Ni 3.514008152927729 2.649561041227174 11.46683907785944 -0.03281781786096929 -0.06399398635345753 -0.7113034028792266
Ni 1.1321276186116476 3.127768527003042 12.777770928725129 -1.2105740986947926 -0.28142215340107657 -0.4999049869654552
Ni 3.040995618225868 8.228385454543982 7.988133926654357 -0.016089192252378745 1.0551871651496345 0.0263185832898708
Ni 5.732859699088848 7.816452126448727 3.9486659921346745 -0.7682170853471351 0.5432530149337871 -0.7255946226909181
Ni 3.059209678797735 8.455539903338476 3.6543915061914967 0.9557158118251734 -0.02924604134931092 -0.45293607441508443
Ni 3.168122326707065 4.2606577091229205 9.481651535241745 0.011786451111966799 0.08162789738513684 -0.0673796149962388
Ni 7.255161688417711 5.821019741398873 11.432232362772893 0.022898244754412177 1.7311558972833088 0.6542717067762152
Ni 0.4772890764498699 9.194428764735502 0.19264202252325058 0.39980911268311786 0.02130107547062138 0.8899063695295318
Ni 4.576180723568979 0.5392957586147145 1.7539687019096277 -0.2122167980500087 -0.7028568147737702 -0.10961358396478542
Ni 6.03371354976921 5.6470478109292035 0.46623552610182567 0.12293575499498827 1.3536403058910687 -0.0651581818648878
Ni 8.097070146767512 8.756076435890408 11.278202516740196 -0.29708042876362384 0.8507867778202509 0.5760376655639756
Ni 0.2614411258829399 5.0412965699890595 5.680660866962154 -0.8904761259900729 -0.19815517775062003 0.4118645011857552
Ni 7.826243657268845 8.919395543477078 2.651639928280001 -0.1369958326324802 -0.7685618702810635 -0.6237750808492547
P 8.60739022714047 1.6791750057922885 3.4981712584494122 -0.18357599438486447 0.4664454217554289 0.8207655488678123
P 1.7365551896446274 3.125601697497479 1.6528693329454625 0.7867177152544838 1.041412479963045 -0.9200391843591704
P 4.803298907434509 1.2485924379776052 7.999731450936852 0.04126903395211603 -1.379681724260153 2.3710965321488326
P 8.346464063248812 1.6958568731154524 12.376957334473275 -0.08255400874383201 -1.13829216130093 0.26620765044416733
P 6.278955131884199 7.697194907552587 1.598478285862932 0.07343404872043482 0.44584702877878696 -0.9504352801525244
P 1.835331789908687 3.2053392100557536 6.010298191760768 -1.034504182878986 0.28392460810795617 0.36487347714819746
P 7.196457834658208 4.054147071140842 5.969335141250159 -0.23121879307380822 0.6204385602768541 -0.1499333666297547
P 2.6637315622196227 8.321867375179385 10.188668963819287 -1.2572959282313636 0.7507855201342489 0.30941375351799616
