# total energy = -340865.1610524867 ev
CRYSTAL
PRIMVEC
9.30175658216320 0.00000000000000 0.00000000000000
0.00000000000000 9.30175658216320 0.00000000000000
0.00000000000000 0.00000000000000 13.61406099396168
PRIMCOORD
 96 1
Ni 2.101052811397048 7.612166695277807 9.829760281382827 0.4093085675331209 0.9615840976804924 0.8112468107440997
Ni 5.957384246655172 4.5081706126169125 1.3688529706971384 0.38668774480981144 0.16293132155131937 0.9947436151515965
Ni 7.582103418864381 0.543512783653507 9.656235087131561 1.405672749007276 0.058486683381983144 -0.34168906861193415
Ni 1.23788703229426 2.968199742203099 8.93085064328441 -1.232721324215793 -0.5044666381942086 1.0060359002359642
Ni 4.0403015716766655 2.0534836295968444 7.326338606496156 0.12146431265578436 0.4183850759130923 -1.0167260329599586
Ni 8.605231501334025 5.390860778227058 8.515608149053396 -0.29774248782765494 0.8530508912640792 0.43152649839105683
Ni 3.990704606999567 3.252786976692191 3.3527622535769352 -0.7616474025494172 1.2385343313531443 0.0999161541713634
Ni 2.5872091052546193 0.6797370049018401 8.740812041045288 -0.24273990633953033 -0.731834947173675 -0.9422817978074547
Ni 6.511080593123475 3.0989731342502354 3.6496026916611406 0.5164430938297945 -0.07674845780564847 -0.07997236405958484
Ni 7.574131813701539 1.17377002600783 11.931321898850362 -0.41161690395132333 -0.019344723075198942 0.16817045846307166
Ni 2.5349518382711342 3.9332104512101544 12.35685678644507 -0.8704788569325397 -0.9678899852938622 -1.333112361141046
Ni 0.7347634047406086 0.041321192082722474 3.0543144720013196 -0.03071491258535355 0.20811228896333192 0.934516552039739
Ni 3.6029888002345944 3.6649198937867555 0.5747648245241215 1.5139550157551476 0.8816837245094236 3.3466867143004295
Ni 8.822557735901867 1.1991173119690257 1.5562508043181382 -0.296204968137206 -0.35144203423363984 -2.6612789482410424
Ni 5.977773696499922 9.064059235135085 2.5758349176313713 -0.03196498294237076 -0.9607477178221261 2.139040073665077
Ni 1.5127539314330953 7.290325926742994 2.802781028581258 0.16339309167908633 -1.2645572377794674 -1.340334589921098
Ni 4.655101155385002 1.1673890211750302 4.167481695258918 0.44394775487354504 -0.33509598877544866 0.3991059159685062
Ni 0.43501709798327415 1.5190512204590512 13.034496245297644 0.28002398750196933 0.0954041252336228 -0.9070936799420958
Ni 4.394214795989168 7.170500701879831 10.542088780064791 0.6279250984618864 0.6459307910106875 -0.4618642301426497
Ni 7.980004648795412 5.862766781408464 1.4826934455465648 -0.3546561702955634 1.7219454344286342 -0.7123976643846699
Ni 5.213541397574483 4.646385409716877 12.750234572279611 1.0744760952862336 -0.15832827556166926 -1.7550026219939194
Ni 6.484970563144365 7.515995836726321 5.185772864444222 2.1186774508483253 1.2753149905166035 -1.9515775997416134
Ni 2.378747444455958 8.850500211875236 0.9124167184449304 -0.8976806141583121 -0.8189107550472606 -0.5072503715869329
Ni 0.0916809007777362 1.0776642797505562 7.96347635799745 0.80332575612481 -0.6864045827550179 0.5543203284915421
P 0.6970959425388248 3.552777919640637 0.0659847989546894 0.913550234200717 0.06695641141589115 -0.26975654413769024
P 8.084640105594492 8.593539193644768 2.1724912300798285 -1.0921868823024352 -0.7142825401122086 -0.05492236306949251
P 2.6384803860686046 3.9823609315840836 7.802435981073567 2.2308171436690745 1.3392130747221451 -1.469829743301159
P 6.012273910676096 3.3479532455615453 10.769116746470257 0.6776409776297749 1.3435785507796925 2.6129200973216804
P 3.513998897559087 5.391279357261279 11.269610767513365 0.3115243721030957 0.650418651578712 -1.0037255069352327
P 8.948987207749415 4.414929807304977 6.594664315028102 -1.8615321677167422 0.9744378137147088 1.2169267803856976
P 6.449614587387115 2.6055149616845767 0.6647090873976539 2.378277366167988 0.19018012996494343 -2.1206929386164575
P 6.626636311837578 1.549254023217217 7.487678499973415 -0.31174625830591474 -0.2699712312516576 -0.043964835616724283
Ni 0.35731022571911736 3.86145670298826 11.327062135223724 0.7856777040257437 0.6302172369301727 -0.5269100547993893
Ni 3.7458730790052086 6.462934702431677 13.138181062601223 0.21349360787990326 0.6129846751019701 -0.9768957883368982
Ni 1.9140596041757953 2.041419251654947 2.1824292265278804 0.16249423401390078 0.8952599205319614 -0.7593413801240599
Ni 5.2030583182063115 8.82529245225878 6.5733725948206985 -1.7551604877280222 0.24939314998998982 -1.1023699934830242
Ni 8.478029983712245 7.445739671271308 3.972555950251351 -0.10182751226146333 -0.4436790745931907 -0.7326299322711447
Ni 4.441160760116196 7.627979681015066 1.3598442197050584 0.3312383055922553 1.5697263570884967 0.5656519514542774
Ni 1.3396761516606315 5.770111986744439 6.968941874443299 0.17537468952099475 -0.3918438350894542 0.5913616975155558
Ni 2.0937137256636964 1.500773269298042 4.3960751472523745 0.34909461704738587 1.5888026569936573 0.24852000335641716
Ni 6.767269565579712 4.926572913468485 5.577353550958508 0.3200529783993972 -0.8175755811756048 -0.538156574247486
Ni 2.6854077466830013 1.8647975027260735 10.675928961169324 -2.018284099930227 0.95874842800391 1.3017590436407451
Ni 1.7024911567675782 5.352398015860253 9.3175720922992 -0.5060373251154381 0.3646251085828172 1.1311946310242005
Ni 9.234811575828541 5.47216743018552 13.003388381649927 -1.6297132791650901 0.0391239625846552 0.22831833159756162
Ni 1.4873415331776878 8.256341225432182 7.2191553986421155 1.6237719739799907 0.00696486135360736 1.2327958862074704
Ni 5.518387857319898 2.1044293489397683 9.246888046053648 -0.8902318711897506 0.6085765187319455 0.022859935317309017
Ni 1.2162604488594784 7.255807109054189 5.2026676444410365 0.1597439249622733 -0.44465146580878906 -1.7124400660413603
Ni 4.596881462602939 9.307244352261506 13.02012038091121 0.18697447854345217 -0.5100541595843151 0.5809821540534447
Ni 6.640923809539007 0.46243681525168223 0.5750494582673921 1.3335587046498452 -0.16779250629836265 -1.369104462964939
Ni 8.28264659229393 2.437078758313814 6.436904667556885 -0.7456659395194964 -1.1729318628619865 -0.572231147333692
Ni 2.769942108083128 1.6565962911042613 0.05480501803844688 0.06798922355577969 -0.2931759515028951 -1.5502787898868462
Ni 3.554126674306462 6.9877956043202705 3.8949690706436715 0.19629267062058453 -1.1533020044462008 -1.5471199325428904
Ni 3.0105320351973743 4.927763538276937 5.388322328928412 0.5987047681441882 0.039390843092796675 -0.30123301747941666
Ni 5.715203719210884 5.01725573579351 9.460179178731597 -0.11753720968723629 0.6775707865134718 0.7486206512724463
Ni 1.3319556939183221 7.108448685495562 12.384425331814533 1.1744297875637515 1.2002894289393329 -1.6225440151101604
Ni 0.19597963399817395 0.3872070006944856 5.481061769574913 -1.546779004263704 -0.43034507648844594 -0.45597280435887927
P 6.256100848988321 6.670280152472415 13.342215087393452 0.040189684845008206 -0.5566677456777962 0.4807911489541397
P 6.282638759757971 8.768440117655175 11.186060531931476 0.024253216120409843 -0.06398267349954787 -0.4498967733681284
P 0.3672147358444315 7.4622874957575345 0.6598489197225256 1.55957229937363 -1.247638864757574 2.253344378237313
P 3.0951687159169774 9.282259834796635 2.9056082239524987 0.5012139355848658 -0.06645118964469847 0.6808250317847113
P 9.153849088853772 6.477324519452583 10.740608723712873 0.37167455923043086 0.1656780310585211 -0.7383352101860381
P 4.07219729408435 5.572300836927638 1.782325340701212 -1.0792981992652249 -0.47847407078518883 0.4279814613522758
P 8.863327333835048 7.28965620028824 6.673830632858245 -0.43988669743029407 -0.1917431035766891 -0.13528142104453478
P 1.844212715998688 3.8949523274823026 3.8132168645576705 1.705904836026004 -1.691826503556067 1.5127535392478786
Ni 0.493327017801603 9.130241231323675 11.002965690782274 0.5044491546927119 -0.07506824188974813 -0.07052613104502048
Ni 7.384878279695491 5.498528607585164 11.572387586478465 -1.1772975960298497 1.4913614467253478 -1.5200521297918208
Ni 1.3288117002835025 3.1548580861969744 6.369909697866273 1.0225817204097871 -1.210754590136715 -0.9489093304263013
Ni 7.0889242989882035 0.8230342816528863 4.9246409386816445 -0.6981121009999333 -0.09582090105606723 -0.6512465467966462
Ni 7.9918364828294095 3.346278929424659 9.746523514988786 -0.10482593276815497 -1.182068792166248 1.1376833240723374
Ni 5.016567405826124 1.7668500087182246 1.7125668192091072 -2.759975628183008 -0.5748531583375713 0.9828131822625977
Ni 3.1178277943028387 8.795861695274846 5.197943282408122 0.25207043971183685 -0.09556919005657734 0.5254486397625144
Ni 4.591077166661733 2.2957292693353453 12.135070359723686 0.7669446463926146 0.6349943466038419 0.2144963381128048
Ni 1.8639789481702627 5.554227524405581 0.5633673825100837 0.752899224043142 -0.3302000941357281 1.818590888268526
Ni 3.5124734095232575 3.875520958538105 9.76164910093429 1.1512476930203335 -1.094697821649747 0.3091263041845644
Ni 9.278567037539169 7.905265036796071 8.89716991383968 -1.6504098882824931 -0.3321651882818989 0.4932520004253118
Ni 8.439604428370705 8.260629335093874 12.87443627348947 -1.8583954218599736 0.4255998484939767 -0.7296453957215241
Ni 0.6936803376195766 4.935483996019246 2.570388739308333 -0.5500237579987173 1.7866876118020263 -0.37300536222671243
Ni 8.967172141347264 3.8031346908867203 4.558041979105335 -0.4073694415288791 -0.13835440354290363 -1.6758321850103397
Ni 6.847246066384981 7.077445931694216 9.721691546327499 0.5964622519669147 1.3677572049084252 0.28306020322513187
Ni 4.343492318797828 0.44230967493504564 10.648319488072067 0.125270573775752 -1.7449236404913626 -0.08624251333901276
Ni 4.7884883409569445 4.805808211217402 7.17878949693305 -1.0502393342260556 0.12739970430361283 -0.5037984084825904
Ni 6.824540479217539 3.778373415573435 7.87426414334599 0.19653769675185506 -0.19105610481199353 -1.843130268170787
Ni 6.579057828281059 6.5549755811788435 7.249092171169643 0.4225206953480207 -0.0756264283860633 1.8189385014159318
Ni 7.485430265471829 8.927007157574625 7.0647174083513535 0.9955190598650404 -0.23970908993300652 0.437607157367498
Ni 7.667121471592942 3.5887292078021127 12.606415466999236 -1.0134265362730805 -1.9987288035061193 1.7579642757254046
Ni 5.593164676344505 9.223695977030879 8.724407463606328 -0.723770939218618 -1.8081938613049182 0.2956642651423876
Ni 8.563968910316094 3.491525854299546 1.6109655953203197 -2.0415309862733095 -0.41224091068856744 0.2796437213444152
Ni 5.856618320483565 6.418435100215765 2.878556856234206 -0.09344134508029714 0.7495670743461155 0.5969574464357783
P 3.3407071773913546 6.97390808214043 8.183520565760839 -0.2712909785043457 0.3534870896881267 0.02584961407325226
P 8.486634108304578 1.794829691716858 3.4583929983018296 -0.32904052660998817 0.3488153952440703 2.6516519666742395
P 2.901422433610283 8.52902221183675 11.987289636428311 -0.07340113859997036 0.4581111908581207 -0.6140285429854522
P 0.321755192376705 1.8865915177745438 10.669883749739531 -0.6432704705697051 -0.8156871059036404 -0.5432679273321225
P 5.128244292156441 3.2284256769004953 5.394653104277106 -0.8775481050744951 -2.313992845157305e-06 -0.279203548483203
P 7.508061438588743 5.255948104619286 3.504000439694981 1.138548243175794 -0.5650821949937365 0.12250869475989869
P 1.984548313538709 0.8544332902732943 6.4256867494397465 1.3969068298891878 1.6385761288723586 2.29399634743072
P 4.7543229900081485 6.651909183748245 5.596209141186743 -1.7333441631838793 -1.1128922331705866 1.1349327579103936
