# total energy = -340860.66618167626 ev
CRYSTAL
PRIMVEC
9.29648335326176 0.00000000000000 0.00000000000000
0.00000000000000 9.29648335326176 0.00000000000000
0.00000000000000 0.00000000000000 13.60634309044059
PRIMCOORD
 96 1
Ni 9.208584817772772 3.941662337209886 5.129250862851023 -1.4723360546627804 1.0786045156323103 0.7263374143942136
Ni 1.9212204867277498 8.492411651882518 9.83633820358204 -0.687146603127365 -0.4077481650245364 0.3616657688441771
Ni 4.596311378174952 2.5735825928587874 9.379015382509623 -0.9637301974892176 1.878616634002855 1.3884422440616022
Ni 5.041836032589382 5.5761142108268364 12.242633372628305 -0.37023114191568496 1.226922715256145 0.2035714636701849
Ni 0.4285883215663336 4.620500827110481 2.7597604702597027 -0.6230659705973721 -0.6428984319422669 0.6456623678406493
Ni 7.8380693948586035 2.4293755475521217 4.0794808393541775 -0.34515003057734106 0.28648568396691304 1.8162020763213753
Ni 7.076743210720898 3.6164527666246755 9.356524401030097 0.13543105924852158 -0.1466284706262378 -0.879295426782905
Ni 2.468708967400787 0.8128268410220445 4.450062825187178 -0.5011707410517563 -0.1626436151075715 0.08851665408517014
Ni 6.41233286253742 8.947976508007315 12.630305083279978 -0.20956753335261968 0.09670921719829151 1.1759207702869812
Ni 1.778352134982466 2.5301959063937143 12.728434110274208 -0.3118190205253791 -0.0819927369237233 0.8770835067332506
Ni 6.669566548950226 2.4659850978626974 1.6729272280787024 0.0989123954971974 -2.2035431384444695 0.999563405137743
Ni 3.219697462370042 4.326016133055605 13.218302988909423 0.5009100311912019 -0.07108740286512918 0.224933988506361
Ni 8.983265957722638 3.6790552835854213 0.8470602102611667 -1.2823659838261139 -0.9945500110835517 -0.7148908631201688
Ni 7.886253066585295 7.665173402812873 3.9246135169167005 -1.4063749172806232 -1.158640643050295 -0.3050359361652747
Ni 8.134153084000687 6.078105703379011 0.7910358847173238 -1.9534002547726488 -1.5071595900998689 -1.8690009652899617
Ni 2.6694014438113274 8.014525939918286 0.36088947258927057 -0.7644563327531221 -2.5848374801528515 1.1750928750690472
Ni 7.852348792846679 1.261960390162368 0.19204767680825371 0.997129855995586 0.18849811427683022 -0.663256940993961
Ni 4.771345561325667 2.5680883713672817 0.15152802572047439 0.5146636333318685 -0.4540740446742696 1.5851540044974766
Ni 8.33293978138287 8.568177988863521 1.1802907864349916 -0.4586853181940359 -0.7645144396845673 -0.24122604079816518
Ni 7.199382415316406 5.434500884295348 5.163715714518468 -0.9140045481293162 0.5078219278196866 1.0261856357109618
Ni 4.483479963213179 3.254559273864368 11.767812711130654 0.8746101054920937 -0.4955747350212175 -3.206458747883897
Ni 5.7405318103171465 6.532582870985185 7.095462609020891 -0.007510963665064483 -1.0757724455001536 -0.432780682513132
Ni 0.5899538856663537 3.9562113332068516 7.640614883499655 0.6849146284730527 -0.04581088768652756 0.0728951454978293
Ni 2.352874788408971 0.14991043766713763 12.259110459212984 -2.1884448493504505 -0.271401535940281 -1.0463801083809656
P 5.265546601069243 4.7683706867448175 9.937555522250516 -0.5878390290742779 0.10668021236807433 0.4676242725548785
P 2.599120031838765 8.476765670883864 2.4421210258344477 0.31840567260396135 0.052480329286903174 2.208651149094996
P 0.8262435253816743 0.7011379638289802 13.718595084357288 -2.5010678538343636 -0.965476490756363 -1.4787969797967757
P 6.961829383552531 6.928306265619586 12.428074038922155 -0.519415546194557 -1.174298918412842 1.5580687182449102
P 1.4818129181701902 5.955977805352085 10.996224139337325 -0.8950873995098392 1.0954069319016295 0.1865031953339885
P 8.574536783280086 8.635261410661672 9.239700146591842 1.42813519177585 -0.4835088049956188 -0.26609195080190945
P 0.4269493516019469 2.8880175395714844 10.195954057991385 1.1205883162632637 -0.7512524324683385 -0.6322190978515498
P 3.7225442313642105 7.406954289195161 8.258886786230775 0.23681814153845665 -0.03576455919411905 2.870131200694192
Ni 4.323357338898971 0.5327135801375887 11.460377086517711 2.015702198135664 0.9856066858473348 -0.9756230922720617
Ni 7.415804541073187 0.5144320461899637 5.256130193372549 -1.8088389510880847 0.14753941247628138 1.0113573124488775
Ni 0.3023755488805795 8.732669960218352 3.143445848973037 2.616598317504216 0.9874907902439253 -0.8726722650394325
Ni 2.748179841305441 4.316868393719493 10.409097314171087 0.16774442666924658 -0.41445977271675716 -0.037550961670580495
Ni 4.206435471388531 4.934034014965859 5.517984231868736 1.3696811614040152 -0.8058942881829346 -0.0032092509659170537
Ni 2.4551732880579236 1.9764694855839586 10.57393790364086 -0.29967030097798714 -0.7883850756545777 -0.7943245810674643
Ni 5.855743124943597 1.387146831117729 7.92090477756235 1.2785101004151336 0.45785870852768246 -2.8927347970263213
Ni 3.6692010115363582 8.423059888216471 4.651287060429045 3.4146844224966415 -2.7494037662044324 -0.6677923669704693
Ni 2.118584822200965 1.1891596312791484 1.599181016867757 0.8789830377488088 -0.2300042039404168 1.4010434777653806
Ni -0.33872944590686344 1.856377517348302 2.418472632213309 1.9567257196014558 -1.8305727432207506 -2.22491800457582
Ni 8.7817460943193 2.93038161289939 12.129360374720939 0.5965504408053468 -1.353488867914869 -0.6516445535660133
Ni 5.177759911484996 5.394953645336184 3.562221732664101 0.7306468404028449 0.5632299722763461 -1.2394936099426201
Ni 1.9566865696213114 5.449644855208484 0.9276700149191154 -1.3198043311782302 1.1178341505568943 2.2049505603149573
Ni 4.698786511002142 8.535882006695177 6.877720382668859 0.41691209091199166 2.37549388988558 -1.6470939365353825
Ni 8.179222433900552 7.030567579336278 10.793802517076667 2.0815360659113376 0.8039849869753637 -0.43784626996149756
Ni 5.726038593218572 0.17563194701180515 3.6563095784699096 0.10199489107726306 -0.2413031738930038 -0.4247858372331136
Ni 6.420550953567017 8.577883517183542 8.778539737310128 1.3868119075470309 -0.6490305129819339 -2.1587632631256173
Ni 8.281697566727743 1.5448430733519327 9.253279519405112 -0.3722168048871461 -0.8917866172713802 0.5846225790195093
Ni 9.200180797081872 6.59217332743282 7.642097672548548 -0.013487235853157418 -0.0037209004950129465 0.05411657933874551
Ni 3.1189235859437745 6.631041923128229 6.453814699622444 -0.8691323702069741 -0.21858799168367518 -1.4348102898031805
Ni 1.3353003450633663 1.0884136443020767 8.420040390516908 -0.19445561741184578 0.6451476329877599 1.825590973735443
Ni 4.6070395196321385 7.354977652377886 2.5487126413628878 -2.101873491917109 2.158150312131967 2.1033781014870936
Ni 5.936957201000781 7.07176959228104 0.927837351614288 1.6177555925825817 0.11523915768167896 -2.8917683193479937
Ni 9.069063199930943 0.08503586024526834 11.851423420522035 -0.04439678094782031 -0.16277165604500354 -0.294807316458731
P 2.9200811096631996 0.7068134667402566 7.003565944273539 -0.1687780101400835 -0.3285455892514406 -1.017418431041293
P 0.16081893089578908 6.728208764125216 2.0827496689297162 2.4725388931567354 1.2939117796821844 1.2012844458627505
P 3.6254424657486792 3.0692431804435922 4.209652984177381 -0.6117034943967014 1.0835124944568888 -0.6010640124049842
P 7.9516352319825225 4.737543548900768 7.441907206223526 -1.2961514676459807 0.5544946492858773 0.24525290256937118
P 5.982472782087774 9.345940355060419 1.400473339591627 1.1165421712183479 0.20622869878737388 0.34593164593837195
P -0.04935781753782108 6.300942402450747 5.195949410250275 0.8292321915779268 0.4909243807333997 0.7822041436548465
P 5.940331824353431 7.519200025723828 5.063300682338516 -1.0200489266856045 0.2766722974209171 -0.5620128120397934
P 7.566147265202854 4.459857599744624 3.3011569655801454 -0.5645605181623116 -0.1582370013994436 -1.516867304305936
Ni 1.8521940999689825 6.1044147504533965 3.7941011208133126 0.6902483819811402 0.6138619355006009 -0.9294522501429541
Ni 0.4285762361383489 8.97127349456859 6.843132817424954 0.013442755768467173 0.6850989765697169 0.21934955244004806
Ni 3.8550748939410435 0.42122829592365124 8.876805422605416 -0.579023744775493 -0.9959708026904782 1.0561456724081617
Ni 1.479033269733709 2.5836227945691532 3.850703687603808 -1.375173294866838 1.7287789124107003 -2.010307509482654
Ni 6.987608531092203 1.6322393106474438 11.583555487131 -0.09579956089982855 0.19444276189603932 -0.1691580191873216
Ni 9.299829799057255 4.904675721446103 9.66016334195923 -0.33519780446063563 0.9197231957806482 1.2362820449838579
Ni 8.386069182100224 2.0320717507966437 6.946582221677373 -0.3061561658126469 0.3412175282921543 -0.4168969214033401
Ni 4.368900809435159 1.674268710585004 5.586151623592283 1.0985218233815275 -0.6184534115260252 0.7880839994743911
Ni 6.9543271217189515 6.129106209474445 9.040842795938362 -0.27001673977761237 -0.9602522662429462 -0.07416012825318194
Ni 5.767333570993984 3.147110522597321 3.6236956565807366 -1.0249772172251574 0.40075604997741954 2.2069945873281798
Ni 2.087590347661742 6.063426556619134 8.49154150106762 -0.8503743728731806 -1.166178346188237 0.8454615089525955
Ni 6.283055969033392 4.531561373626155 1.1148017114825157 -1.3238239938605845 2.085122754821332 0.2311745700994341
Ni 1.5765068946718468 7.916020405359918 5.069750582289119 -1.7466527073673275 0.4119863714756002 1.2610721074443443
Ni 0.3728196493067824 4.870566925080054 12.619351966932614 1.0777406249701182 0.3736730777176984 -1.4883452856068433
Ni 0.6488099199518425 6.925303501589542 13.203349595899121 0.010239675450137204 2.860034221469507 -0.7645254954281607
Ni 5.537570992038709 7.819894770466227 10.624049665955265 0.2209942871323226 -0.6799449431726032 1.6565630523680825
Ni 4.35744754229889 1.854862190608682 2.4666256255458863 -1.0022013569812223 -0.931719448910576 -0.5637339084959582
Ni 7.152174874311555 4.8210445597919795 11.48742706329239 0.5935111397583906 -0.12984688029252475 0.109888692003043
Ni 3.4953753711841125 6.69125524394123 10.456283473264886 -0.2902657198346356 -1.436416457948036 -1.7414891608885172
Ni 7.786018386176807 7.87958748822758 6.28161315486168 -0.8799250899471039 -1.6382061471274496 1.213688218843742
Ni 2.0419818017440976 4.343019400581771 5.280757506660448 0.5841983469978972 0.38816535779660244 -0.01408476022784026
Ni 4.171545770445009 0.2923790406406196 0.288624191130604 1.4042822964176527 1.0084817906732955 0.3490434520944763
Ni 5.1773880521623905 3.7045369436670077 7.358976999392516 -0.42176736212176397 0.5956024750697807 0.041289602777406315
Ni 1.4501769862994716 2.2172205075222466 6.379932759758747 0.5722735705358531 -0.23472989155086027 -1.4449085545794471
P 6.430042662776538 2.5773941509155 6.021908463250156 0.38033917688396435 -0.5878053476228651 -0.49383615506355594
P 0.09285978039290177 0.7702582450667051 4.796426542987145 1.6209854123737888 1.022415112924936 0.45840429661850723
P 4.095017121852663 5.752403419191348 1.2914162967543077 0.5711080894728423 -0.8107040508667523 -0.49861069363406385
P 1.8326250031168339 3.2809240998371445 1.3842007756343817 -0.4844529140764431 1.0279800086072233 -0.0006044663532183139
P 2.781070798389955 4.130362350466378 7.267651138705363 0.9682525108396034 0.7436514801926289 0.8948156339056912
P 3.853903537074834 7.665954307390345 12.19974590730383 0.4537236033133863 1.2704185816562505 0.9226750793201206
P 5.944580317114207 0.9982935374684757 9.975381052546012 -0.6732701022555889 -0.6374613200870957 0.09597362458384762
P 6.859651738183426 3.204070074337518 13.083723381465031 -0.9124639431150736 0.6801038373479706 0.6879040501186798
