# total energy = -340859.9878760275 ev
CRYSTAL
PRIMVEC
9.39492562117854 0.00000000000000 0.00000000000000

0.00000000000000 9.39492562117854 0.00000000000000

0.00000000000000 0.00000000000000 13.75042330022881

PRIMCOORD
 96 1
Ni 5.472318551008216 0.27305786898331125 13.049219700907098 0.7301295344467942 0.33027311346550864 -1.3591630354815107
Ni 2.062909528417877 4.050631469083265 10.892727320858265 -1.5861119975353717 -0.6064224485034201 -0.8108709154619197
Ni 3.6722790345002037 2.8365816328059146 4.54071963010115 -0.6006076415938559 -0.4762246126293799 -2.619994744780275
Ni 3.2521191820115356 4.829132565112534 6.845772086073081 -2.2498127109349704 0.4158008601256839 1.270039343939961
Ni 3.6905615592742063 8.76748528107447 2.816856986987303 0.5879431587523101 -2.1309966345353106 0.36907903058911273
Ni 1.0415214267450863 7.382475987801987 3.048798904572389 -0.3549119950601113 0.9230365764245975 -0.24471091402297213
Ni 1.4828950207238358 5.971564885278773 5.981668188023872 -0.921140130732833 1.184871551722366 0.7931495869227565
Ni 2.797000812213482 7.190039731406356 4.363862038957447 0.5346961265027115 -1.3812786364336276 0.44242437625048314
Ni 4.501897919478779 3.0867778903888876 12.288189408099685 1.2305292016604807 0.5333560675350492 0.2245066711609553
Ni 4.544701199473823 9.049981292086539 10.61209526304001 0.08856267683175714 -4.935475744447332 -1.515823436422454
Ni 2.5218798176184696 0.06531164220139357 4.67950240718956 1.4483849431638218 0.6231240775288172 0.8814309850686691
Ni 2.9358202295108424 -0.12472233177660468 8.463330209109683 -1.7666697739192025 0.576000384568137 2.0406020467011374
Ni 6.796721180705626 7.468693217941259 12.969673807274518 0.2854011926534827 0.776194961346289 -0.032168100092112344
Ni 6.00271845781248 2.5637905797031695 4.489114244525036 -0.03620010406964088 -2.032001963736952 -0.5636058675585262
Ni 4.8097602289953745 0.4732421203332687 5.457446384144267 -0.21427470902030193 0.741538290504368 -0.07066959860142022
Ni 6.653439173856544 1.2311955750813353 7.343495502940829 0.7763944789516047 0.8977140384994088 -1.1217566255397518
Ni 8.507180083791175 4.603334928720766 9.985351336037946 2.1275354154595876 0.6551083437448977 0.31072475901993585
Ni 1.190468573593513 7.368214491087221 8.203062591527877 0.7959885990334484 0.4216827728277577 -0.38950978763963884
Ni 1.4252571535663299 4.906978916745312 3.980651488464501 0.40543545773095985 -0.842275140804814 -1.1794920325780074
Ni 4.336077486662156 3.7938493688144868 2.402240140468142 0.5892665055494238 0.1463039974072835 -0.9383073865407389
Ni 8.14014853428143 1.830535444265676 5.13572749919644 -0.3845758406731312 -0.8076092139915123 1.224231798687543
Ni 6.336820793893201 8.49554916618058 1.7809405727191794 0.43035998888678145 0.6720843094776038 -0.6797464540085518
Ni 0.3576150158093423 3.4548710664656737 6.123022356186611 -0.37793956630353626 0.480203908992102 0.15679306986406547
Ni 3.223004308283563 2.4799784504591416 9.535038470567693 1.3226893660355092 -0.41146058087911713 0.7827438182084004
P 0.4236491277718462 4.881368350181114 1.6733301580152202 0.09146185275642311 0.19392185639556278 0.7902159582157294
P 1.3583746798427299 4.788696806311246 8.759665884687315 -1.1346095702430201 -0.1681221217236395 -0.7347405508562442
P 1.396283203718938 8.84263528912547 10.020896096690548 -0.9413253474314563 -2.2352582101595635 -1.3240245399071648
P 4.18520438011246 1.5802922120558427 7.666287288366144 0.33137097451537767 -0.5550600348710442 -0.7530570897772451
P 3.9513740825275923 7.145564154695088 11.675457072797492 0.3139252682351045 -0.40859688617807693 0.34481861537985126
P 6.540812808496449 3.5406937097393194 10.473257055891905 -1.2715514097091134 0.6773278172647302 -1.548014676443018
P 6.506201903425829 6.46039224731173 2.6918791132405784 0.6633764972909607 0.7775998121136156 0.21091736251229481
P 4.403504866057335 1.4533761652048653 11.067398712867892 -1.3404662304029562 3.3164114603556563 2.4107668541552614
Ni 8.122166647119334 3.1339310208311897 11.78878805756049 0.5147644205757909 -0.8965123048818239 2.061681750189572
Ni 6.317222979567112 7.498832138534785 10.106588150501521 -1.7271627169635158 0.8749785445751059 3.124772229346683
Ni 8.975723801945882 7.42977004212487 10.034110059226329 0.1156721314540395 -0.3787085832590768 0.46736459113558865
Ni 7.6513963316514495 3.637809053310165 7.918483725560825 -0.3292228178241234 -0.5314079426697429 -1.1171684919484375
Ni 2.6489931579022596 2.4190335695706753 6.363915758666184 -0.6254326710573358 -0.8507844638274058 1.0475268203908992
Ni 3.5360808013816443 1.155171838970734 1.6542725518980237 0.848553517614358 1.7826733484363106 -2.0662194901589253
Ni 7.06569789410732 1.8611347162024319 2.1403500192745826 2.329672460676091 -0.5620614058895417 2.468843446583019
Ni 9.609035721275545 1.191633544339647 2.748942950457852 0.30186936551183496 1.761677977131566 0.8558292253401647
Ni 2.8501291151924057 6.465803724326029 0.7935076103260397 -1.045059332687013 -1.7137657268313196 -0.21990182539909223
Ni 5.041598802401369 4.051927968784606 5.923490112657473 2.2079800911699006 0.9112575815117984 -0.5035384699529845
Ni 1.3618414073050151 2.520620897618615 8.31545784172382 -0.6065872562160586 1.9845573971017436 0.37630023092790027
Ni 2.1838691925829767 8.777162054207677 11.955208826108388 0.29350402426627514 -0.3757541286164432 0.09497706499853321
Ni 1.3684084601400759 4.202772890558188 13.413661069491768 -1.7905432381026902 0.1969200197919383 0.7790627698123873
Ni 3.2153850238068338 4.9058985003275275 12.587618832602331 4.377081760107048 0.8197939289831624 0.865381130694658
Ni 6.7160469565358625 6.08553472496707 6.370419865501251 -0.037805757993863924 -0.4836173055490251 0.10954853505480487
Ni 0.7468984460627792 7.461243042121227 0.7491532281520704 -1.131300560474445 -0.10145084564833497 -0.8272575843500592
Ni 9.207102024008647 2.774142958783293 0.7849582282374772 -1.1128747496690898 0.21800075172163744 0.14449059834762856
Ni 0.41738647051884 0.2437353674046166 4.939894037786278 -0.8232456349771886 -0.6089272172031448 0.9794154694349584
Ni 2.1254139669181025 2.7766326140068847 2.320782379522349 -1.626930059992998 0.9281132196165565 0.24935201233940926
Ni 8.398997518132058 1.9387274048501646 9.676145552193148 -0.4351036742193539 1.0076947759956258 0.8601602486153508
Ni 4.853286918244066 3.5492430918278814 8.22790935065933 1.1891038446361586 1.1852932126408167 0.5692039304715939
Ni 6.493481174472079 4.569212559769492 3.6870525546477473 -0.40902446063379877 1.3642419926663152 -0.30023157279809587
Ni 1.1117578888265067 0.45411968923100504 7.1963117835847354 0.7822329400102528 -1.405572733094302 -1.2951739342240598
Ni 2.800364195496675 1.3112873138780325 12.875084759136215 1.1715591508841758 1.7589045281514868 0.0375231937564386
P 5.324536374905923 0.9789042491403956 3.1124222786844262 -0.5745212289194492 -0.7393320268816687 0.2513335615458123
P 9.043339079848502 7.242322491101796 5.561591950371015 -0.2840531632660205 0.25565430040835324 -0.675977730994739
P 1.3034613410431177 2.3741540110684087 4.409004655370131 0.013441470216886527 -0.10698848763711252 0.06939458854373855
P 7.411788154962773 3.910130360144308 13.835812646159312 -1.6250778372756076 0.2747154308048624 0.3362041342379629
P 8.966197347618628 1.6839652135363772 7.653884107889968 -3.1540290693292716 0.4646970716057546 -1.2464710697017178
P 3.8526991813449865 5.040405646879118 4.268997719505744 -0.26206560325133577 0.6381825145238363 -0.24687526866414256
P -0.3761314742251089 6.1458501458556105 12.00879466195293 -0.3900846863065024 0.032835044252149906 -0.06734130555913563
P 7.386140008697086 3.976355189091864 5.638787233675511 0.5314393101283106 0.07404288594902732 0.21895128856036486
Ni 4.601916294989587 7.104489540968501 5.739192680111647 0.04131454247807078 -0.7837861434299856 2.005378190501837
Ni 7.924638341172053 0.46477635308051746 0.20987417737868624 -1.2170062274733817 0.6159689545412746 -0.45116689832980367
Ni 7.91448242684487 8.957798284336018 3.9612490885861504 -0.23885136991840156 -0.6016180851362413 -0.5002338310597837
Ni 9.04360213775892 8.350181485898903 12.424222290531699 1.3705034001949945 -0.9967920130401929 -0.29195699149412946
Ni 4.5990508427511125 5.103351646871831 10.491613800576348 1.4331853526052478 -0.61118490288907 0.9695115800576851
Ni 5.684258672476216 1.6421296108546535 9.4011776948817 0.6835609426586357 0.12261128177603399 0.664616540345649
Ni 0.9499866688452363 0.6816027752345183 0.4662466589012427 0.36611969085047275 -0.4301244758372076 -0.5491549822405187
Ni 8.812778216293106 5.864349996932977 7.4485213736749385 0.8272169609201109 -0.3050451921366553 0.9720011792487582
Ni 2.7877186259459 6.034708178704299 9.653800661688273 -0.23777613457635177 1.2886469317388194 -0.6533340254532942
Ni 4.956368039426161 8.907056292401593 7.851629436613342 1.8768945091054257 -0.8354902566724967 -0.18207498435930577
Ni 5.733206233664579 2.1351940842304034 0.5891670439914888 -1.5736915123838318 1.8448151120723775 -1.6829058040276696
Ni 6.587364663714939 8.552707892144113 6.2674289356027275 2.026909379705393 -1.1441151957406102 -0.2908853556965055
Ni 8.652716872729549 6.083486631235965 3.5007615189379724 -0.9599961843680822 -0.39235111374317594 0.8662244525315599
Ni 6.801352878914045 5.332803909233324 11.99901736311824 1.3377400897210445 -0.8596861371924098 -0.9882150700044593
Ni 6.618800084009808 5.595166595173097 9.176303579654004 -0.8393777646523608 -2.3407343749172074 -1.489200691628603
Ni 4.4265975926218255 6.37629827030654 2.3954476094241524 0.1940720088201819 -0.4258407608601891 1.3358079056953382
Ni 5.732905596052674 8.02529557160816 4.032971827861429 0.004017091579193082 0.1211102717504753 -0.07388476310460824
Ni 4.616478429316259 7.7253907638816885 0.15638041180279008 -0.21414615386223765 -0.06833606537223715 -0.6544324007237955
Ni 7.438178500332851 -0.10084888691369705 9.27625525119467 0.017635967914208336 0.9637456241081855 0.36930734454983494
Ni 1.2635704879134078 1.4421304395345254 10.45765020586386 0.15006423578066413 0.8012992126130845 0.9106793404108251
Ni 1.8770309299319348 6.5047081102916735 12.236335996493748 -2.9086316707622357 0.8154122549756989 -0.7353239341635401
Ni 8.659875805863049 3.4351417231843757 3.591322023076741 1.0223405509332586 0.70649955373268 -0.5557915137204299
Ni 5.468353892501213 5.338581788337133 0.13378561628301802 -0.24162019091279033 -0.3848414356296921 1.1494247808789817
Ni 7.948172629229029 6.085356221385001 1.189871056339851 0.06976071363390567 -0.5054277165558974 -1.669452506736241
P 7.447883458242177 7.417960620932208 8.360972497181237 0.8613090175078134 -0.32064818878123486 -2.4395215576904503
P 7.655774366874824 0.32170667154484295 11.650032525755659 -1.1193017362413562 0.2482235551619209 -0.45423268173932096
P 3.2386938336548807 3.243334926788672 0.3746677448521441 1.1638846650580537 -0.07952396366825659 0.7999141593400998
P 2.606227457608704 8.620924445270543 0.8392543204401461 0.501044242776221 0.4995355194411784 -0.02235291377390344
P 4.763396272284324 5.853451883501403 7.976496450240676 0.22661574708415808 -0.11670545781456029 0.17878114409938242
P 2.8287180802695118 7.9922442241493 6.699398209284058 -0.8581668723344058 0.13139339884403825 -0.934156854707475
P 0.7003775940980161 2.3140170937619384 12.362001578777706 0.7445922468393434 -0.09663259832408519 0.9805711803059565
P 8.863445048824554 8.913247548221772 1.895000603691048 -0.7702197175994606 -1.9915004040784798 -0.35188734930117466
