# total energy = -340868.24752043665 ev
CRYSTAL
PRIMVEC
9.24947956114065 0.00000000000000 0.00000000000000

0.00000000000000 9.24947956114065 0.00000000000000

0.00000000000000 0.00000000000000 13.53754828945040

PRIMCOORD
 96 1
Ni 8.968831723970387 6.868802166017574 12.479873068578259 0.054310954737738726 -0.8774684008764952 -0.09487936307840435
Ni 4.647123454617196 4.706995334959813 0.27972645667751106 -0.9291642865888902 1.7116327396487168 0.6828988835946046
Ni 8.024626364919726 8.236837171454662 3.0208087604541536 0.47341002599872023 0.392887188752304 -0.9620157859012722
Ni 8.632927629034121 0.28204900096208246 8.165050111711867 -1.6820061750315358 0.8536928957234524 0.6738527142319364
Ni 9.216153554417042 6.76693764906821 4.775721741959618 -0.15759268294722537 -2.0017225960271205 -0.9610421091340934
Ni 5.067660286326972 2.209395402718932 3.9400765980168284 -0.8819647460849521 -0.5898923120588808 0.14930190369334287
Ni 2.1634532383960874 5.768030868675633 13.455997456189762 0.05872116799029241 0.6549751606011429 -0.8390646042873162
Ni 6.107782747054278 4.835257866198968 7.866763649612528 -0.8721827269975237 -0.5528529999173962 -0.5664621060603986
Ni 7.537141801104304 3.315919876265586 0.5973415559392116 1.0760758356731854 -0.66571825805026 -0.14138650550100812
Ni 8.33804497536458 2.8166884735755886 3.166932961418263 -1.7963233351195773 0.18994744512884706 -0.9477086252499808
Ni 2.492253733131035 6.778000026465054 7.252592665852617 -0.3126744265471389 1.2906032841342419 0.10997816639305576
Ni 3.31411622777697 2.0065728178042277 8.835280340393844 -1.6282948015510088 0.22943007660450163 -1.7647427320998186
Ni 9.188053635912352 7.739955136539579 6.961616067345857 1.6040143317370892 -1.7169286979403335 -0.41191360925613574
Ni 0.5443753369381369 7.966484137230296 0.8546352501580563 0.7690498656610755 0.11060191601998372 0.5631045024420753
Ni 0.26506140704315023 4.274082699774304 12.505201843046082 0.12878012959090726 -0.05288065004911539 1.8147388615122877
Ni 6.158081416188088 6.557335195732197 3.6692980877387376 -0.032572534619382615 1.4559941229696474 -0.53099836593615
Ni 3.1642284136332823 3.289410868222648 12.808821554984066 -1.7572482234949867 1.2734689384468003 0.4946527374275804
Ni 4.029794698580293 8.949278324457905 8.610421795687968 -0.9061495708612717 -1.839515040015703 0.8811484208312437
Ni 8.817214257173513 1.8886974519636128 12.713490870303207 -0.3447563946833482 -0.37028976306776223 -0.5072560280138877
Ni 5.413692561237771 9.042346586470481 2.4139753887251088 0.04093504765146498 -0.17843584494482173 0.13930056950625685
Ni 6.5002566581770775 1.0991711374007587 0.10690640818600179 0.7336959116418138 0.22450949937443268 1.8549635133602893
Ni 3.581638921296124 4.500324966602728 6.904962080896521 -0.534317403007054 0.6133896238498726 0.5555863396881593
Ni 6.334247001388993 4.842916435166014 1.7370836849585114 1.3409837934693227 1.7818372256882606 1.9800559096869639
Ni 3.9754540069360993 4.776375680155234 11.40690015671163 1.7443916792472924 3.1465903536630386 0.09359689682155493
P 4.375743728176234 1.2677798979083357 0.9027279184480967 -0.7012812427565343 -0.6167685676244345 0.630215694268276
P 6.944573901498296 8.200384973025765 7.010445919146373 0.1854528996926032 0.729007505027209 0.5848454936635927
P 4.996550288478365 6.774707211788402 1.728690707324819 -1.700306001781988 0.17501550640936311 -0.01751898272036983
P 6.876599477176051 0.8563464038523841 3.5849326609207193 1.2018783706930076 0.08053440721064194 0.3425858693945906
P 2.235580678981862 5.334979491298693 2.0052630915171097 -0.06829749882481786 -0.09069669245562444 0.7578743086602302
P 5.000712554221325 1.3249601797371713 9.803797956123102 1.4405770170836287 -2.1973904885795124 1.0757696172866764
P 1.760351675409598 2.2389197410556587 11.346617599482377 -0.09318423476416855 0.26635086089025095 0.874222640245688
P 4.456399188795361 6.055005217433551 5.375029737225392 1.3339052893559866 -0.13318057265144806 0.576478095535504
Ni 1.3727984873429195 3.3887040298908055 5.689912540263825 1.2563348498696751 -2.34463396708193 3.9324948289876076
Ni 6.465904091578518 8.906083255525415 11.871035334656995 -0.6662471339705365 0.49508545408962473 -0.794987925683076
Ni 5.631943277839714 2.7281894544008396 1.8757084080017505 -0.24878199876855217 -0.8322254698782958 -0.7254408707218731
Ni 0.6740456389463559 -0.06860523881928798 12.11440023780401 -1.1104594553593778 0.712959707535727 -0.1726621756858381
Ni 2.2864065684431125 3.0108442962655086 1.8479155722140952 1.423012525837304 0.05479175102889919 0.42865740437337785
Ni 7.210598179349984 6.288092099039286 5.971642434185614 -0.4887535983343261 -0.07444783469692985 0.5725723327231945
Ni 8.175170892102859 8.891681816054774 5.204348168377821 -1.7215230021792352 1.6056703792832734 0.6006112411382817
Ni 3.2625781283997024 8.659510632912491 1.385256611185569 -0.2307559945047768 0.5089773815803685 -1.7693995141455399
Ni 6.613664525453582 6.719404574283612 11.425054109986535 -0.4757659278254064 -0.24349812466179355 -1.2624738728878773
Ni 8.385217320451455 4.134767040617733 7.876443229834766 -1.4614070664551024 1.2911234183037699 -0.6320522332563825
Ni 0.7237356923337499 1.5726889872786949 4.207565068462096 -0.622076095880277 0.02718941593059834 -0.19155258483243784
Ni 7.0055927172900825 1.9540357746486492 9.011377479446976 0.9053754116994086 1.1599403356983249 0.07057909577014297
Ni 0.9326805076823765 5.841647475449444 8.975530196972723 0.4112235251676466 -0.20709567477335947 -0.3683969169204236
Ni 8.340773571796076 4.10529819915758 5.186763058087788 0.8272429290620399 0.5498916032962272 1.7380968473775162
Ni 2.831247154196518 0.7815384641281435 3.7404922558501466 1.2676168505413976 -0.6176779668125814 -0.8432331338427091
Ni 6.846335180485021 4.561639765736237 10.061566148636645 1.1810166967526499 0.7093753326185783 0.26183086153271035
Ni 8.898008459984073 3.2095508628343974 10.393182184909719 0.6814878621796909 0.6017065310849895 -0.38562099410819395
Ni 3.49294566305337 2.030713959113393 5.845459185922052 0.26326527998639176 0.1976116465423242 1.0909206139955017
Ni 8.382007751089661 8.151630966956565 10.4749216845179 1.2200954079216664 0.502171928622761 -0.40499759886259284
Ni 1.2269064483124728 0.889202404679364 6.59250171652049 -0.45449930513714626 2.5923325029783157 2.5378497985494035
Ni 6.7119402443845715 2.0319071419597083 11.362713543584373 -0.5281585824945098 0.6670997117788188 0.26509487699596285
Ni 6.144521679345467 4.463845019735545 4.540656396704063 0.04836322179473606 -0.8953355109649033 0.8592896730849394
Ni 4.4544198001975985 7.304526642949437 12.756066224113969 -0.3976632699847087 -0.15491179368095256 0.3130503218293189
Ni 2.31862250529362 1.2884709833905592 -0.2084684671580435 -0.6850051313043299 -1.6837540109605775 1.0332420283371109
P 7.859976381607675 8.569004476701693 -0.052515769352892115 0.9056181238378339 1.4214999458475195 -0.7593925450769696
P 1.1815007537964985 8.938955905415366 2.7093917373576915 0.061439595362719986 -0.12300517478034301 1.2479705370653797
P 1.1928591145350638 8.265704796751944 8.73879902047204 0.18494022172224278 -0.8813818769982885 -0.6053662393247639
P 3.19443721344774 9.310248508646215 6.680197880880819 0.5261497795945972 -1.248383199122766 -0.4358366957306365
P 0.6010616965654744 2.993057547323928 0.6563689588099781 -0.8075274529109835 0.9021792733596139 0.26824756369233155
P 5.24195747668326 3.199533676613008 6.629797467473293 1.246555401885408 -0.6217966169666452 -0.16870807613409652
P 0.7794823048511216 5.255757699991029 6.472965144174463 -0.5715467196721576 1.3975902291094575 0.9128578361193826
P 4.730072786134666 7.31467332188283 10.553290673822229 -0.08625871128892887 0.05942307915332346 -0.24091699419817864
Ni 1.104498837551747 4.22467198066566 3.8478315396734164 -0.21784905663512158 1.5268169593194802 -5.015370718301763
Ni 2.612857695403145 7.269730101338296 2.9722767418912452 -0.7221228620922338 -1.377742341145595 0.481495374110016
Ni 5.294938494851421 0.07602424626912768 5.597451044101779 2.1733712428467795 0.902575223246452 -2.2605079858652872
Ni 4.9548998826104835 3.3875478449622056 9.934895452807185 -0.27335557434285823 0.4263932909295496 -0.6950146930215321
Ni 7.375729135592333 4.9648615719553 12.48710246169981 -0.9872920439695577 -0.5391690746724005 0.9843224198182725
Ni 6.943935687417708 7.171241644380444 1.1269778474075571 0.9878998527568857 -0.9908157408521 -0.06926757604757103
Ni 0.02336510998508917 5.211757926348232 1.5768808513558268 0.3501279434079067 -0.2743891578136952 -1.2926907627908897
Ni 6.812546832131618 2.2432577469077652 5.341496674504224 1.2332838815874825 -0.5500438126033753 1.3130533856076418
Ni 1.1025101994745552 1.0921230340760137 9.56254470912968 0.6495398485181846 -0.25298549532693854 -0.5071236162010815
Ni 5.16987628349463 7.04226690322527 7.459080819464955 -0.449438088564155 -0.3613950316812938 -0.895322912559413
Ni 0.9858187670008268 3.091952981376647 8.220040116811964 1.8058191904251546 -0.6698687898835237 -0.40708096375418273
Ni 6.319586576494347 8.482105617468125 9.399742771807503 -0.5261220116804551 0.3498253245658233 -0.5598492287295712
Ni 1.8170509843081362 7.546983247216546 10.751453371000704 -0.6138318535936138 -2.1489491052486733 -3.8235926692675504
Ni 3.67170110249434 5.957034731323711 9.252697322692285 -0.23755836213859086 -0.22916191054477952 -0.31096644271709667
Ni 0.049967537770257996 1.1745451452660416 1.6141497788182864 -0.49002346618568504 -0.6900730327455407 -0.32528748732545915
Ni 2.9905046910015796 0.38585128385177936 10.796654652021303 1.0394345303010681 0.11286397258128303 0.8337917859241512
Ni 7.937995740589595 6.633310419760351 8.559331371115054 -1.591629584919491 -0.8601455933273314 0.7319473043818233
Ni 1.8176059530738637 4.6377444824763945 11.005200814806548 -1.2330455403244311 0.7878371735709077 0.2652784537616786
Ni 4.185805668105846 4.875012128783947 3.4696869220817126 -1.5386144661750405 0.13051562422477522 -1.657487621064881
Ni 2.335993027660904 5.916956736958726 5.013929135377135 -0.04715891707398975 0.1289840180715972 -0.26464339128084097
Ni 3.8538326019268214 8.082851837924016 4.789990913874426 -1.8342640760294089 -2.101971450947554 0.07638773203212006
Ni 1.2336585682954961 8.671312968663639 5.131908095387353 1.9572165431949453 -2.6513256936830727 -2.9189055418844183
Ni 5.665685378795972 0.9264186101090797 7.46176131860342 0.1634871940547894 1.672017953470572 1.5084641678439052
Ni 4.536518179607619 1.5997899620050762 12.369474056959943 1.0369554726329562 -0.8835120359674139 -1.4439176514210876
P 8.536224321606028 1.139887345846332 10.602485880060181 -1.6219143519459616 -1.8195769063308793 -0.5357883311256256
P 8.114438810173365 5.1884677371465155 3.3283548764096635 -1.1940848427905177 0.5300450008839452 0.5018232870340906
P 8.765805650508248 5.57243212719482 10.66757446680064 -0.3955511087377123 0.34791319514477503 -0.16557210160827612
P 5.63566156857009 3.6581413656517205 12.330621618619272 0.2767391461031105 -0.2526491950334423 -0.4899036527783692
P 2.6446296572410697 3.982076634207119 9.295015540974926 1.9189513290661597 0.4203324294474503 -1.976438367539035
P 2.252571972692566 7.951990202965368 12.596188047239234 2.1068701738007523 -0.06753490962718046 4.847751247246154
P 3.0519027354499473 2.9579280244533495 3.9438531604676075 -1.2072882288546691 0.5985317329014337 0.2537953928227435
P 8.685048445615404 2.2258132287050505 6.616273803600446 -0.1597261843504604 -0.03854186482894008 0.35411238197695144
