# total energy = -340872.8119846334 ev
CRYSTAL
PRIMVEC
9.25272883944893 0.00000000000000 0.00000000000000
0.00000000000000 9.25272883944893 0.00000000000000
0.00000000000000 0.00000000000000 13.54230393669980
PRIMCOORD
 96 1
Ni 4.1601655590841435 4.403882429798591 4.3302732728782525 -0.714333190844486 -1.4465327204464313 1.528629844158503
Ni 7.804935630980125 3.0633378608547837 10.736257411046012 -0.1961132076199268 -0.8809023662587087 0.3391673306313449
Ni 3.5780671515854108 3.681244327945958 12.653481989633944 -0.17086034659040897 -1.1483091792173 -0.866986784618881
Ni 4.234668529585006 1.9086065871914453 5.45632941540905 1.3817686886961686 -1.0614115487927915 -0.28883438670474776
Ni 2.798367472599293 5.835908726181796 13.80231557410239 -0.2846614862739807 0.47111608775822084 -0.7805871768767138
Ni 3.469264316250134 6.516372891181109 5.2776925364127925 -0.8225820332512607 0.24602063397333113 -0.7484468446987432
Ni 7.984466323556908 3.201036967535589 7.98869944688082 0.05590863824216177 -0.10794956599880119 0.6141709821005874
Ni 1.4683802669616812 2.1689876220728146 7.545758376086606 -0.4263549814924464 0.021581325715201542 0.19930317531213415
Ni 1.2974916228756852 7.548422236643884 1.8182166817241165 0.4343009758124004 -0.858152731267019 -0.08377476852481056
Ni 7.443274229096465 7.329622963986916 2.9364857278846297 0.6860135179641863 0.07192352561317936 -2.113476109153044
Ni 3.985603581753135 9.241801104409028 10.27714627179088 0.0392309204761647 -0.5339471641518287 0.0703618375530143
Ni 1.6327734955867226 4.59408151842449 6.50948701057421 0.8911926924411232 1.991114995714603 1.878987129968396
Ni 4.405140800885044 2.4333750884279635 9.605447216572424 0.17475582499007322 0.9770068599934658 0.21685044016727814
Ni 7.718320838772155 5.221083417706716 9.60584045753694 -0.47383760045444206 1.346076891721514 -0.9586383847886072
Ni 8.716699504943742 1.8391741119507006 4.019504653985885 0.05781768233941655 -0.8973137177371966 -0.39654612566112996
Ni 1.926778946116395 7.0010400667655235 7.228935696886401 3.0728344028268113 0.2788402516065133 -1.7289948850762478
Ni 6.013792433071896 4.830627524491872 3.181940261025811 0.09887871404578455 1.5749629228970876 -0.5738406579126569
Ni 7.423427126299105 2.96256639392422 2.0254815029371733 -0.20790351538663548 0.6581620429695568 0.005836918396751238
Ni 1.8591877638624452 6.157968449756503 9.30230284602739 0.3136095367668986 0.05905978227663377 0.8705459627250492
Ni 2.148280015517806 1.5474540853795122 9.908321407443015 0.8172482797431732 1.0919997059922935 0.7843646416412751
Ni 7.437019384578509 2.0098129323651213 13.520229488525427 0.3776258917178593 -1.9994988489029244 -1.2852867570173347
Ni 4.666437855895522 1.4243280262072588 0.5130193864896236 -0.3846858838884343 2.3948499258146887 0.48653087965139424
Ni 3.6235720707264005 3.4909619647628674 7.191897949666095 1.466500678927926 -0.5245713793638836 -0.6669025081663482
Ni 1.494398939719807 4.694797468983592 4.164840962834029 0.023341502939417866 -1.1595945223231319 -1.0417724344056252
P 7.005000234596419 7.645048481172014 9.144223679383195 1.9966670358810839 1.6608897047678943 -1.6586111931463627
P 9.405583652947998 1.8867979059357902 9.591024988539676 -1.8359278368850769 -0.4710284131404211 -0.2405781228015212
P 5.568329068467631 0.09411597926522955 4.875621693015419 -0.3766481011856223 1.1837220114989548 0.09464719246294023
P 2.2081081584957714 4.28460550571431 1.762828923190185 0.8491042479115054 0.10454105453788448 -0.5283473014665481
P -0.19564524466623795 3.123684156633054 12.56625559206704 0.29040430229502884 0.33565340394081544 -0.07784066242856272
P 8.441597378896592 4.037909256398115 3.611068858600492 -0.9258596476956894 -1.7806655739776622 2.753935592636515
P 8.496549333914553 6.611278128193944 0.7939609095416299 -0.8118484488838406 1.768086708871387 0.4831984728440517
P 2.7307947958024967 0.342430530809518 1.7848485666573926 0.38228601619769004 0.2736795333411803 1.3818319378339365
Ni -0.0015220738508931898 9.003931958155155 13.865151779140694 -1.2654969759849173 0.5349393528617691 0.6888692422454266
Ni 7.340568941893338 1.58854545298934 6.123219827586111 -0.35435432278442847 0.22547700549402458 -0.16877003972028354
Ni 1.586519105431008 8.262973453720342 11.053363223740668 1.1905729729825174 -0.42254177839394325 -0.3139473797222916
Ni 6.146134209906701 3.6740919687560463 6.566257126757525 -0.8703742130338753 0.6987021691754483 -0.7060010168297066
Ni 0.27485322764843345 8.67244370416063 3.508824357280492 -0.26378695681781666 0.9652196375505506 0.8675007481408221
Ni 5.410144420717661 4.4736850141824105 8.73872655059381 -0.0753088971456445 -0.7000483987906976 -0.5249696432435669
Ni 1.435819915099717 4.889993031040995 11.492215513776769 0.012887397485629419 -0.4303872425802911 0.7939273456290457
Ni 4.967623423800836 8.925922203523662 12.508443618645973 -2.2111078381656046 -1.4185943421649505 0.03141708085870073
Ni 9.276785671158128 7.5091073929208125 7.926026089865471 -4.263183689834297 -0.9212756278694327 1.8444883248605783
Ni 0.3647804966869192 4.783457114207049 0.3177932904279174 0.8358460973500186 -2.520685370954975 -0.8940569013627957
Ni 8.615113797898415 8.754117539308558 10.556740597562095 -1.23084339046679 -0.0629647737579948 -0.6634297191263994
Ni 0.5752828476290185 4.004321851664119 9.397898336592059 1.0749679473209874 -0.15685709033278147 -0.5567245670576606
Ni 0.2377396080537971 7.256470891858273 5.647018898649523 -0.22743361499976314 -0.021451999226188862 -0.5872170792195629
Ni 3.769265534897611 5.328868452898538 10.818540075734298 -0.4569163992190712 -0.5505942857902066 -0.15044835859296024
Ni 8.366335684652427 0.5443417232680043 8.160483755093056 0.9406704874562768 0.5069379825528367 -0.20368613487117823
Ni 7.563550447867047 8.556969651521438 4.968996528721642 -0.07513560479257382 -0.026995040531605122 -0.5420404826829245
Ni 2.5222105354943802 2.0560858279779897 3.336268371504946 0.300881804787585 -0.23063129600145443 -0.027181959731430606
Ni 0.7046720787749473 2.9677016582843767 2.0489778818852473 -1.944920756546728 -0.42522909541811926 0.8671554489862613
Ni 2.3297815392814583 8.596478802544622 13.512862466032534 0.3980641049675532 0.937923777949075 -0.897098516402597
Ni 0.6252688632197801 1.0923216194124294 11.950080310492597 0.10452665636018127 1.2189733785020813 -0.575652514310415
Ni 1.5539124899261594 9.067664752592554 8.586538596234504 0.49817154921411627 -0.6443549618831355 -0.06313395234600741
Ni 6.488957056407878 8.838863280344002 7.0626771181802654 -1.0234175860475212 -0.637016005019561 1.3466353353281453
Ni -0.017865168336198 3.1621384965984767 5.869925457521758 -0.8878883106582386 0.3618935685842671 -0.6375075999439989
Ni 5.230900562726762 6.22315392258047 12.568584503849836 -0.9804259129773438 -0.5124815380788851 1.0012796164979014
P 3.285727192199573 7.298700345083055 12.203037881236753 1.0093940180749197 -1.0536771562630112 -1.8793483699625568
P 4.963219124998252 6.549007264871688 1.5074619419246154 0.9311532919944608 -0.18967156575964106 -0.1867955297634267
P 5.862612100854609 1.8451143636970437 7.887199790211258 -0.01694331272255792 0.4676453556008011 -0.2768275920518587
P 2.44157300594706 2.9834405495936123 5.351200838591644 -0.950768238011911 -0.45602422642210494 -0.1291061454717583
P 5.541681210166279 6.064312331101543 5.553346125083125 -0.4296339093540342 -1.144408301500997 -0.7227119018264844
P 9.18233381784556 0.4404604142627586 5.8832641910381565 0.13974588457379158 -0.036526634171124193 0.26806321559566737
P 3.7270083234870994 8.069785733764117 8.36093671752783 -1.0181671362818594 -0.2973110567171912 0.5569503099152215
P 2.856169268018927 4.166355634502062 8.94752177311348 -0.708728957283831 0.5321031689645546 1.5555539222428563
Ni 6.592106474582694 6.1882618831171365 7.4368778178312835 1.5280528886091103 0.12563309932149333 -0.315151941553354
Ni 4.776693369617366 8.658018700309306 1.5028846170976433 -2.018436309237375 -0.9438936223792648 -1.958463785338485
Ni 3.1636559440850816 5.951595591578255 2.7068764924313182 0.4932178047532667 0.6193352999103463 0.43774445427631065
Ni 5.18943908597386 6.765317553541482 9.562626513991582 -1.6419550726469208 0.6032905877426578 -0.2663673159504832
Ni 4.564741116107273 4.486398263247013 1.0181832064174947 -0.5620112693778967 -1.0933865590374912 1.4738267802756941
Ni 2.9770006505041193 8.60605537662167 3.715480348953191 -0.49335895831682125 0.020078258807113808 -0.14931090255440738
Ni 6.221312629593674 3.958548603394401 13.045138887018062 -0.23971783168375488 -1.261585042525021 -2.32918703639924
Ni 5.462551875376987 1.9292771828321467 11.721730371398596 -0.24700999446979396 0.7417555487214967 0.4477943823131449
Ni 2.0689193625140923 0.4961433348382918 5.704465389291805 -0.9485280358274825 1.0846993156761382 -0.05133824526265997
Ni 7.527603597345952 5.875797239076632 4.6333769314175495 0.5474567686024895 -0.48364147391874124 1.8902807006043447
Ni 4.122738271990752 6.05566102988218 7.536873906107107 -0.37030107592167194 -0.08688014692301166 -0.49137098135251506
Ni 6.360436656475316 0.2654348752300493 2.6852084526500315 1.4624139104530622 1.8826645788199834 1.1837693197971226
Ni 3.6343144886041325 0.9929843254112787 7.898129113206243 0.5846963696802382 0.6560102867338767 0.3106769365011359
Ni 6.923215366705568 7.842936587245283 0.012836310354675515 -0.30338863036983876 -0.09740341505183871 0.8702960514977721
Ni 6.718850350628499 7.223087047152969 11.214652161928173 1.2286962622168 1.0826619735311356 0.4106319143302347
Ni 6.826718660377512 5.295984255536384 1.1394429902357956 1.0717666667748704 1.7466249394531856 -0.41763354245904843
Ni 8.057988504828623 5.288045414417439 11.955944689864609 0.1347132072458906 -0.22981265675490098 0.9829201401541072
Ni 4.039223143856028 8.72398140233373 6.301667025646543 0.4820548461579117 -1.7247474226538038 -1.32167120918364
Ni 1.8256281173141802 1.7549002600726753 0.43766053859540127 0.7157874067925091 0.25526786360321196 -1.0220201914793625
Ni 5.141102831888353 7.664784551226454 3.5150264612455597 0.13356083880900224 -1.8768757400523484 1.6038130143595604
Ni 6.4616430016489925 0.8702700126606956 9.828151140688826 0.36307241938371665 -0.8182327551436296 -0.7092953713102623
Ni 0.6744952297943816 6.798497838218095 12.909485558625601 1.1706618358808871 1.534441051523641 -2.0052735466031724
Ni 6.360816018346967 2.847055330370721 4.168971380870739 -0.2015253797744336 -1.6764978436187967 1.4963951524945132
Ni 9.167113079336628 5.463615939163326 2.4128997253602336 0.6917712463835699 1.7750754814843945 1.2637756224184364
P 1.5623324729311003 6.820065948530752 4.013545896782389 0.017792805207046777 1.2655049464047172 -0.6210479117260788
P 6.901147609049762 0.2121567388116416 12.056442276029298 1.9313936685945705 0.49550814344934013 -0.5103734905969468
P 0.14374761535149744 6.485820381420322 10.640567542649856 -0.13234779233750754 0.42133850211446144 0.056982330922314764
P 5.874945988047561 4.3718957471083915 10.731449693277476 0.4283265033965204 -0.2553840774661021 2.5436252675806
P 3.098683284018383 1.5380995767883083 11.84656355899328 0.5435224665450897 0.27788894343683757 1.330797082744308
P 5.243530537234174 2.7805467173602634 2.31192839949241 -0.6408248372426899 -0.2791999489387772 -0.19416662541651722
P 8.931140742441011 5.384384824359688 6.9913765170398525 -0.9569080323610618 -0.10522471086847039 0.16640668169442954
P 8.323745375013148 0.9686311437969878 2.0404320617716607 1.267435587768527 -0.8845116808765219 -0.8911453841429556
