# total energy = -381171.03325143695 ev
CRYSTAL
PRIMVEC
9.21098024127997 0.00000000000000 0.00000000000000

0.00000000000000 9.21098024127997 0.00000000000000

0.00000000000000 0.00000000000000 13.48120064326173

PRIMCOORD
 96 1
Ni -0.38335639040724945 0.08906188864562851 6.55575949132887 0.4237962196263346 1.5503461527896718 -1.1894797399183386
Ni 3.7455161443468157 4.583521911904358 2.794814955148127 0.433260450363028 0.1985974074943612 -0.3627214638022011
Ni 7.814844297602121 7.020286723644957 4.058852505474572 0.22072766373449726 -0.21712297710237444 -0.29728277458241703
Ni 5.433934869790439 8.026042862593238 13.216739693867106 0.2587493943939092 1.1421202767977685 2.620198890371281
Ni 6.818225451011604 0.7950697044562476 1.205973373345722 -1.5968250130775015 0.13366265449418915 1.7009454351381996
Ni 4.685745370156852 1.468561839065107 13.06045238733447 -0.5864629746623577 -0.5234616912394726 0.5433139500787094
Ni 6.064269877773218 8.380932718694368 3.01083731046965 -0.914114334234303 -1.179503345431917 -1.603170238569239
Ni 0.5263135663953712 1.0841784243656292 13.269545322252014 0.7596550547097368 0.6305409388181786 -2.098364450322586
Ni 4.395120522906656 2.540535714666585 10.747186555910847 0.08292784714348299 0.6180829155604839 0.03911624927517134
Ni 8.01880303215654 7.024965901586232 6.629757742956467 0.3351571810306873 0.9231219370495521 -0.4872312481525286
Ni 6.631122810222011 8.721029740595323 5.219678259373133 0.9182923768713928 2.135136367735297 1.9737060562095363
Ni 4.32500654162913 4.779549992507131 13.859752694996285 -0.08752060872048797 -0.4945056703267548 0.14920805842795593
Ni 0.8281850204689855 2.5558351527777208 6.523890420937106 -1.0110534080552136 -0.18788799149665708 0.22827436573350363
Ni 4.551826929038362 0.6876512533713153 6.218514188897635 -1.0363168106076925 0.49297509261484124 -0.5514057259479084
Ni 5.808563856458795 1.301198328842742 3.746560669501423 -1.2712655030375783 0.9494276648236164 -0.05018639104640389
Ni 3.96841265419112 0.1792042252686419 1.9912140408312329 2.9629778496132837 -0.7070536264639371 -1.953426994245526
Ni 7.5308974109964595 1.3249995016778875 9.76193958547446 -0.40954845145806884 -0.9069972635735477 0.44398117921464186
Ni 2.25276627127819 7.10870292257861 11.322765971000512 -0.15434126588946323 -0.9076431246876626 -0.4688321768200507
Ni 6.354913146983813 6.32531826760327 11.969216509940093 0.6443981564162451 -0.3443257349038328 -0.02859915179393139
Ni 0.5580186813395871 3.8424801329054747 2.19925600290803 -0.42048026787922427 -0.22528700097040558 0.6977133228996177
Ni 2.5637013298679743 6.375481265768983 4.083105016339487 -0.17514457578805967 -0.04395377987313075 0.17205385267787787
Ni 6.484926132497774 3.110170363135584 8.978722570338748 -0.49680680765610563 1.2673191167953206 -0.27812111405230167
Ni 4.996984391093214 0.4074081019038174 9.243749182516904 1.1655980482047346 1.9548074195328207 0.3703530122055299
Ni 9.063521617348114 3.8944484831902617 4.643033133874401 -0.7395739676891457 -0.0804521319094808 -0.538970328398033
P 2.522592725238232 0.9908251400451189 0.6953884767387772 -0.3696487870496537 0.4152051355232139 0.7849107439527322
Ni 0.5447843449891472 1.6500457819330905 4.300719029039459 0.25989199263878465 -0.23048242912841596 1.0715784620234643
P 7.756207197652996 2.450351007534654 2.5119383844416325 -0.5328685863756694 0.6519230040383805 0.17936247052414916
Ni 1.9369493931827453 2.7781145269486687 10.64915040925698 -0.6454947319145334 0.9288565255404843 1.2585244013218262
P 6.391149143088094 7.977740482427795 8.046713223258621 -0.5957672827824191 0.13960267412770797 0.38956198103381295
P 4.170556825646267 2.759692566549949 4.347795427740365 0.3704496856843943 0.3748958943812059 0.016181237745552777
P 1.8805966163230627 8.241386368674068 9.736742949139112 -1.1211465027595788 1.0937411141634326 -3.3872888040925084
Ni 8.925237171615127 8.37583904664412 8.611076427759526 0.08924247650760114 0.9979322972922233 0.9547066538343687
Ni 2.0847027265606735 3.729673258403917 4.124883259229723 0.35963511156739353 -0.15460968905950145 0.28202430576144977
Ni 0.024695559012503192 0.067679519210835 11.119510034235304 1.9425861948762801 -0.6322869749750079 -0.3781840782141745
Ni 4.350263049335775 5.00208727412366 5.047361083999553 0.8832307572815692 -0.15959788630271224 0.39056393993576605
Ni 0.6578703121907455 8.362842353582824 4.4125992789329604 0.27236467118449864 -0.18996724262318895 0.1550694023047394
Ni 0.30507595408497146 6.528236161395164 9.86995122368423 0.5389351042847235 -0.1597999750111893 1.082401006560265
Ni 1.8815269253231983 8.347542915471687 2.238944274391031 0.5890536182076693 -0.13833486315887786 0.6616818831973573
Ni 5.731523218071351 6.004020856289206 6.870397363958797 -0.766775467804602 0.07363639453922802 1.6778080777897881
Ni 0.5471147229795852 6.34159406961554 2.9292353946874825 0.10016477984705977 0.01337025065931891 -0.28455375705152286
Ni 0.4540082929284178 1.6514090070025957 8.930837447576337 0.12751900349029652 -0.41616904209838007 -0.14155388431680782
Ni 8.78982655170434 2.4146124043611388 11.496727306339679 -0.292068063150697 0.08768001711648771 -0.270499850061618
Ni 2.7418232649631915 0.87932898802593 8.006781781898358 -1.7148803000517368 -1.558187760321278 -0.49188237377129485
Ni 1.4248281050785474 7.618079338583399 7.193231166770114 0.35672565123008243 -0.4100115071374165 -0.16585003786001115
Ni 8.01825958432478 0.4321340571509785 3.249670658254886 0.35118543813814357 -0.29792040816641596 1.0475347908106991
Ni 0.6648319710254216 1.6319830497621464 1.9746315131783259 0.907789677567856 0.06604701222774431 0.6893011875765226
Ni 3.8507700150848985 8.444774022456128 4.100212569863757 -0.537898435490093 0.2720957337938281 -0.1273397975999549
Ni 3.6890528357247407 5.117565332883032 10.43729418027963 -0.2095089122005424 -1.109786083441437 1.6984306391361457
Ni 5.6890421773919035 5.9415611995573485 3.0008608978157234 0.40313612017382183 -0.02449824225168039 -0.9195622447227519
Ni 6.5472384135464425 4.882077413106203 0.47894425852412426 0.4440467423452546 0.45766356179774087 -0.14826549200902853
Ni 6.527407173177222 0.8765205601631453 7.474624769664512 0.876392394203497 0.3423002198333718 -0.061224651138436496
Ni 9.089911075619279 4.008001447087968 9.586050391979567 -0.8957687418475798 -0.2560343094555913 0.6985833842093969
Ni 7.461658472837874 1.9662495211969082 5.401903686147166 0.9573505192151188 0.02670579142596046 0.2964039715218895
Ni 7.4411364089536995 7.194493992155447 1.3905862861874279 -0.7239709710445661 0.4053873781018438 -0.6569785641844169
Ni 4.313575715201725 2.403743447725894 8.19631335816652 0.4367100994745254 1.3253113770393885 0.31905127660776017
Ni 7.212335660801606 5.14319949077785 5.439084728819901 0.07175794656959254 -0.5821288660633781 -0.47678125646379826
P 8.0625459771233 2.8171690829939533 7.51133421015104 0.37409576707741377 -0.2576808439200788 -0.08749798301266866
Ni 0.7638582980507174 3.682992010753562 13.13238830049543 1.3197369682754045 -1.2822726527813595 0.3525303822018122
P 5.573075936681966 7.042503607885812 4.84069432126652 -0.5716552202255638 -1.8372912928915066 -0.20515423477627248
Ni 2.291507653996697 5.917796870643001 8.664111409551401 -0.0788325940281868 1.0088075494438302 1.4570639589950585
P 3.95805951244704 4.598443699827321 8.312602904281457 0.7661262642563773 -0.3084079379613011 -0.9326306478709359
P 6.4285457226974945 4.547203016978283 10.61176764611788 -0.19147519462728313 0.12687185682460086 -0.23220841068058717
P 8.368424207583635 7.4237552893175085 12.644220166399666 -0.5306327550666151 0.12718938806501964 0.05860649678929906
Ni 6.413587090853734 3.642039992787209 3.836736165653154 -0.033244106765110484 0.08970836040042615 0.4899738438946723
Ni 5.82532784042163 3.367617259707687 6.56224402138922 0.020871444132370506 0.11393586548922313 -0.436505696773203
Ni 3.929625216571617 7.405968886552545 6.146295498644555 -1.4050243167899996 -0.07874620496196762 1.5134405380125742
Ni 7.560252804891819 6.32704993188075 8.742693044926197 0.09273789125536933 -1.3175155351440537 0.5973197148712035
Ni 1.9839069702390808 3.4481028046896913 8.527857063854352 0.7103492664960734 0.5180775441094239 -0.9353737578337117
Ni 3.067468258931353 3.117843109641651 6.290206932181332 1.4491382763900784 -1.2619563098215105 -0.3766311319047578
Ni 5.458887415150504 3.133299134416176 1.7661317653856203 0.29966438744071616 -0.961709567514763 -0.7698787893202741
Ni 4.839826646931741 7.772492210645465 11.131386672104357 -1.9498608741608225 1.4297950959767762 -1.105612668790038
Ni 7.327058419184631 0.4256403161104299 12.612539000003968 0.4207751734118237 -0.4431990496329787 -1.4089979567257669
Ni 7.328283479551145 8.242611429040583 10.388141626641788 -1.7339748547893428 -1.0527687855161287 0.43912539378423726
Ni 6.252487047166933 3.1258290294744957 12.3068532790298 -0.328484396996202 -0.040585377621530104 -0.7648736227961989
Ni 1.9176247567244888 5.2959728083644295 1.2101579216502911 1.6587063239633302 0.8915292498449355 -0.10336426062096392
Ni 2.750398687528795 1.3010877970803496 3.4012529961016886 -0.7500216453850309 1.2257279236170953 1.1114359603400343
Ni 5.340305256063947 6.2023701039022185 9.404081030455078 1.6161962185152616 -1.7136384572248358 0.11875077037936321
Ni 7.927411686618495 5.124915695082121 2.297614533868872 -2.174605372364197 -1.4044283350772135 3.2661939589610007
Ni 2.424551051996248 5.25699194016074 6.495741665447863 -0.4465579388028825 0.9086659095252223 -1.2157422731592933
Ni 7.888458451355403 2.796287790882005 0.3445809270620051 0.6787244405019408 0.06579915788299635 0.7675306008030718
Ni 2.678764894518375 0.7474599900017973 10.750974110968823 0.6715544051160628 -1.3032217442292007 -0.9735469264693234
Ni 0.30736488266451234 5.05920456233989 7.61116189245368 -1.0432202225957454 0.4422935070995737 -1.1848710375017335
Ni -0.2084693515580474 8.876916369489287 1.2790063142484247 -0.9234667219834806 -1.4420137495301555 -0.029953866049612924
Ni 3.365784274648014 6.74534817567427 13.211239817590068 1.091494741331417 -0.9813666796240583 6.324913776763301e-05
Ni 2.7279607397631547 3.0944011650342804 1.2470221066041685 0.20169275859023328 -1.3251298571562016 -0.37881117027521216
Ni 8.154720255978292 4.813087171412999 11.885215133815992 0.7486507331794332 -0.4149297703746402 -0.8349315559555492
Ni 1.4746226640362856 4.99503166329095 11.388971733379451 -0.4471073835484493 -0.30522491224762915 -0.07425808728362694
Ni 2.84498624319602 8.804278579637135 12.688020219443661 0.3328766125266267 1.3737586739074987 0.5028247317154114
P 5.774179267374585 0.8113077414496987 11.148359745317718 -0.048320541482258714 -0.07329855158383505 1.048406394782375
Ni 4.043961113786268 7.806305718957314 8.805111252247158 -3.0931173214455634 -0.7533260271679155 -1.6212178400995694
P 3.940263898701877 6.696566824538461 1.7350576025850606 -0.17247628492727715 0.34707167308008613 1.3542092910206611
Ni 1.1223026714107787 7.261209121739409 13.786684752368824 -0.4740057506011901 0.6586145571259432 -1.4967651342394224
P 3.034649536481034 3.7418317522670717 12.53758372753366 -0.4415694844493556 -0.420953607971217 -1.3953510553662938
P 2.226312336145629 -0.19678982866525938 5.782329142654978 1.1365121865823715 0.7732345931663844 0.033383974777084435
P 0.181260116049139 5.880354236132604 5.432964032477426 1.1765406632591673 0.3118017941341985 -0.5718999892465182
Ni 8.865900037170851 5.48468737068891 0.4484430186919647 0.8327510033644625 1.036299584216512 -1.1495692768766461
