# total energy = -381166.64348595723 ev
CRYSTAL
PRIMVEC
9.32649222933327 0.00000000000000 0.00000000000000

0.00000000000000 9.32649222933327 0.00000000000000

0.00000000000000 0.00000000000000 13.65026411391024

PRIMCOORD
 96 1
Ni 1.6481124118024735 3.7204682996823766 7.747616843622828 2.84191462905066 -2.7590731709733967 -0.2771857467222259
Ni 4.9812514914379005 7.840604768559841 8.598833660037446 0.574832589512281 -1.0208991905010418 -0.09821022722385021
Ni 0.906974317236402 8.757632111712173 11.60090931427127 -0.009544963375957755 0.17971856831198724 0.14644977895652841
Ni 3.080400468172573 6.789676977244395 4.170155379063686 -1.4189458119670981 -1.4930182656024804 -0.010152000832337355
Ni 1.1855183998995422 9.14346909301105 4.361955623301285 0.06803010409604414 0.6389425326183126 0.8531601631484339
Ni 0.44824613634019994 6.099870962962851 12.17239105497194 1.2099966289247677 0.504019523354461 1.0362263077764153
Ni 5.24725237477426 4.6396780420037675 11.671125675912673 -0.4269283374974131 -0.6898907415314054 -0.33986924179437594
Ni 0.9893542899730431 6.948171385274202 5.934302410617956 0.8148558682515967 0.027824735521752075 -0.7379168917016968
Ni 4.140664078155656 3.480264493703345 13.5624515527192 0.07939232318639874 0.679340733929701 -3.176857637188013
Ni 0.39240376443961933 1.9467187117842504 11.397342767505107 0.7027017772531446 0.5456731943395053 -0.8441147651167139
Ni 2.6538067160669265 6.670381815828056 7.816250499542056 -2.5752894314531 -0.496837403783725 2.12662473071986
Ni 2.9600793926169335 1.01268917339605 11.558975540151955 0.7795404807797542 -0.43344788378348575 0.23747454417553293
Ni 8.40058601175895 0.8227187869232754 12.927496504219985 0.33939975835712516 -0.9289290306496325 1.8151489524665128
Ni 7.017644425489221 2.2405032153113136 0.8215436489091671 -0.13295328713199037 1.2449160665097723 0.018352277254942585
Ni 7.908343081230224 7.438707567734818 13.180476671830183 -0.2678431291650613 0.1036707361177892 -1.6286480711253692
Ni 5.321761720764029 4.407914711443529 4.135019685091066 -0.7944006857210383 -0.9288570397611163 1.1086702246694389
Ni 7.575956226588922 5.241852335804667 12.23926386916844 0.11477121690632491 -1.1048757906240132 -0.2829774137033384
Ni 9.119705190947972 7.545020252042914 8.031433192312758 -0.32993295651727045 0.6006806609236365 1.6256933593724197
Ni 1.9963822826185873 1.4675888292542245 0.06628990843553355 -0.2703260434879151 1.0344216504675088 0.3707659313732324
Ni 5.758456063895702 5.386636800336546 0.16632586350954243 0.3379751100954566 -1.7867626880143355 0.16564666359995342
Ni 7.508488382191627 0.9450161461708952 10.852573965693395 0.43517695065945056 -0.2174371659086836 -0.2086265095955891
Ni 9.088554707081927 3.02012334924256 8.937333097650546 -0.43171855979720486 0.8357730780202379 2.0613367081453275
Ni 0.5313069430056498 4.238732143380643 5.6284820689384585 0.4678556718393943 -0.06513864148086201 -1.1285571934013532
Ni 8.809263572395533 1.7275181661843595 7.173377259185873 2.13319492773821 -2.3689491467885264 -1.3060437870590282
P 7.885754317181253 4.246473131886276 0.7587269261597758 -0.170540501357145 0.29083470496422814 -0.44243337511154773
Ni 8.705012042858215 6.062359811433141 4.142772798036528 -0.2253163115464442 0.3391364773934095 1.2558417122833403
P 7.435256765629897 3.278084796323672 10.807118508128625 0.4301126487626657 0.1806696193713469 -0.3759595597590299
Ni 3.681875275060314 3.993855764821704 9.82941860277804 1.6842317219279448 -0.7728820949229721 -0.597062861665391
P 6.76728406953111 2.7729060211475804 5.028320432149022 -0.2318003766088911 -0.30042311998361165 -0.16014835948954356
P 4.384076197443047 1.4245750473409924 9.50982489745382 0.15020821755769614 -0.27713098222489047 0.27008384557012194
P 4.8111922331105195 6.183100579136677 3.061453699318121 1.3941390373360636 0.3387878358047391 -0.7610480784025216
Ni 2.9749085151759185 8.634475782535192 13.524859260707565 0.35335442076500434 -0.5473148437079864 -0.2216224076346248
Ni 2.931577632528721 2.0647921027256033 3.8622057992205305 -0.4371168479946408 0.038295038925456625 -1.1586581265517917
Ni 0.7884681770581075 3.6620378262031057 13.149654480488715 -0.7246068048563521 0.8108742578960294 0.7242350233392302
Ni 3.742917166348714 6.474590765588576 10.02411192488847 0.25235068995641696 -1.5813603417829991 0.7997521798409388
Ni 3.3832596485863613 6.098770436886147 12.900332163109733 -0.38210629608671615 -0.27823758502550794 0.35416971757744814
Ni 1.1710996429962774 9.169881718851958 7.094888298984834 0.4174211693379262 -0.5594080274270946 1.0509661850897514
Ni 0.8445306541740291 7.531944510012915 2.707147722766048 1.2060713257284326 -1.3904842141922957 0.6135143223531949
Ni 3.2059910118073485 7.048608379511756 1.7711903984451796 0.8380829571003372 0.37934467418117895 -0.062098311992641445
Ni 9.260619161227032 2.0383514974081676 4.657688431043804 0.6125457877923386 -0.10203782850005652 1.8005607702396926
Ni 7.030197883957393 8.728794597905644 8.955064624574534 0.8373054555043644 -0.8727877075713742 -0.08048632758152591
Ni 2.287863142578311 1.860831045340418 9.513974253822683 -1.2016359156648981 0.9061089474313234 -1.0178838007134858
Ni 3.0516655457799735 3.9143474190258876 5.614803835513926 0.08377271164228152 0.21005552873263178 -0.3994530148952798
Ni 8.103639827384404 7.471993818309043 1.6879094865643887 1.5020322961756325 0.593931515125261 0.7997400956560807
Ni 7.00593035131684 0.02001278691010705 1.2617419551511606 -0.16718855416577658 0.6543838068740472 1.256450806622249
Ni 0.4552298136811861 2.7205750735510614 2.5286974194284046 0.5250570607510505 -0.2092410032511364 -0.8127447354458647
Ni 8.23646772894734 8.448887914735668 3.716393555250917 0.5663176100627343 0.18195517095198988 0.07578892210585657
Ni 8.559947783561073 9.02536772259317 5.8982517877629235 0.10305341424876446 -1.003102528639253 -0.04085868588757479
Ni 2.1505771777555056 0.1723880834235929 2.1453571400848994 -0.7453988019010388 0.7593372663590019 0.3392881724799253
Ni 5.265905359125185 9.163614316110047 10.891982125731593 -0.33703382922810987 -0.7232500337181414 -0.1936896857800987
Ni 7.538361136629633 1.385347821250998 3.3366159959184385 1.8719721321031437 -0.6615890663732348 -0.36730162697371577
Ni 2.940932104180709 8.717649439755967 9.191514517452944 -0.8686400039515878 1.1955904808017668 1.024696709870261
Ni 6.684697981317392 0.7332758616621565 6.457530746101221 -0.3628536185046912 2.193807142103628 0.15718876264058734
Ni 3.5507074891046115 8.912423902348321 4.560935401215557 0.6802413913670995 2.0673492328879943 -0.20480276497412472
Ni 4.372156940442807 9.089095643628104 2.2478571543916654 1.265536313863285 0.6530530038777657 -0.28489931331639967
Ni 4.10211768599447 6.311339846549283 6.2727878584927925 1.198108105017298 -0.23754319262993925 -2.7646223829264
P 1.8879711375710133 4.8379685921462725 3.781041068414352 -0.6395940501593823 -0.3381422318009402 0.5191378670531381
Ni 6.026872508705507 6.2170490106553595 10.196051404038421 1.160282549529092 -0.0026243249967245127 -0.8257025811581133
P 8.24386363724248 6.480382517229538 6.398711357898232 -0.7529514174373162 -0.24842667231166246 -1.5154372567276289
Ni 6.9782399960478925 6.133567579192795 8.170488392701248 0.7009814521279282 0.990869476908171 -1.7251965943760803
P 3.6367350529310762 2.5305664484603674 1.594637103616025 -0.8482087326804296 -2.222166152862296 2.6493315460711795
P 9.178667274481244 0.7965029500672683 1.705327643351282 -0.16846433555440665 0.23486564579777616 -0.13229199939890765
P 1.4705733067503726 6.52107400259108 0.6938984790481372 0.2153697418566936 -3.034794417334954 -0.8086939624152588
Ni 7.808950654116321 3.5459976105560034 6.739354023413252 -0.88736689093713 1.8401444460695857 0.03474794500414661
Ni 4.249065896711055 0.4637159889116393 7.435585058154474 0.7307118893128254 0.6133472006477114 0.22841371952484532
Ni 1.5326317856858989 6.9427713463046095 10.068585302827161 -2.288530953440775 0.012940876431384165 -0.05620791465013546
Ni 0.6059207457077835 8.324603080005458 0.5301038255150152 -0.5715971132941188 2.7088261018923863 -1.8009065836148856
Ni 0.08943173347050822 5.085726856787429 2.1918366464905334 1.621862929882736 -0.10516377572354793 -1.2980044616943196
Ni 2.662489680282282 4.620530753567544 1.508367983642216 -0.7257105794434922 -0.15919088067228065 0.626367009946147
Ni 8.852538496089677 5.311931598011092 10.092022777664098 -1.9866142796307722 -0.12179161408821607 -0.6543642664900213
Ni 7.130942652436737 5.782611678630149 2.216693613436576 -2.7672888740149695 -1.1113819671736473 0.5856795595291139
Ni 4.800998377162739 0.9843832696435217 13.505448032542773 -0.17727756297066244 0.35500635454613055 0.6020184058984536
Ni 6.2811966238381896 6.372148575533298 5.029753913996392 0.8608405625118272 0.1362954641313459 -0.586387641339732
Ni 5.54406798825835 2.168008391631445 11.387855859664226 -0.682471823359515 0.8877361013510904 -0.14649605881343158
Ni 7.471061169091497 3.872518101618939 3.155217588404132 1.5100518240459995 -2.040682008009453 1.628551140536189
Ni 4.997283731487519 2.6240179000585 7.757021678332565 -1.0693652564222293 -0.4724270932601606 0.03374547188156123
Ni 5.726699358038252 8.105094760163777 6.426380262235177 -0.1472311372072432 -0.3128623741882289 -0.3532739452360561
Ni 5.551407937600438 4.482125609683683 6.527133424557478 0.4954153266252177 -0.3224551600829866 -0.6082222207163203
Ni 9.291769645093076 0.5195201221943005 9.187896771138082 0.29867502694425335 -0.4780076726717316 0.42296601041555537
Ni 5.541801650659711 7.044570008399781 12.172199861882342 -0.6107485866825997 0.18882438726799738 0.4803072673391857
Ni 1.5564889526707315 4.482144262668034 10.17556203337815 0.10154237692087674 -0.7727525113236433 0.6516278413954648
Ni 5.6899529788669305 7.364394078080735 1.1057414511290726 -1.1690127303132383 0.9828077829459589 0.700405010799168
Ni 2.388440034198497 1.4689598236040176 6.30083914900893 0.30725762640694176 1.9145493433437217 -1.0704530901697693
Ni 4.761827110025798 1.7116164970251961 5.3301826105492545 0.319368807848179 0.5688324060647881 0.622146029886264
Ni 6.084678107209022 8.9165368853977 4.05329536475436 -1.3041648248687605 0.12220041949086052 0.36127084739860366
Ni 0.32637219983734606 5.275949991198158 7.728506861155306 -2.150276308700529 1.9770767724539817 0.908593404416074
Ni 8.156073366394853 7.414477341062967 10.789345944639065 -3.0853237935430735e-05 0.8719148180481177 -0.5494151778804409
Ni 5.4829887910012465 3.7697494843375194 1.9410267536095658 -0.9118494494595263 1.4673535138465246 -1.9858858861051798
P 3.1350257328442557 8.300083732076168 6.541588554780227 -0.835159098585323 -0.5608262479308599 -0.5581541004153355
Ni 5.480964942199171 1.8989111128928307 3.1051212683328533 -2.4805136838320956 -0.7666538546250732 -0.3169118616672542
P 6.2589809194762385 8.819550693265066 13.032439126827503 0.12771980664719293 1.2798069648496864 -1.2653589077451564
Ni 7.033191687945717 1.6355682798264763 8.66431402895215 -0.5141753808415402 1.0779257443977306 0.30404837544102475
P 4.6543486141957695 5.5569012414917855 8.160059509150646 0.5566602894786283 -0.6784246498733348 1.8074194450327388
P 3.0727247651121674 7.805201404261785 11.507677967888478 -0.6091956403731831 1.254735109482723 0.08701821516277272
P 2.445229045054887 3.128776983086696 11.914673961985825 0.19261727865152634 -0.0075495302124837715 -0.6551978181349103
Ni 6.35617229443673 4.0400778600432945 8.883674057568241 0.7390103818761918 -0.10732324526871195 1.5558735103658043
