# total energy = -381177.99143889436 ev
CRYSTAL
PRIMVEC
9.09801049934415 0.00000000000000 0.00000000000000

0.00000000000000 9.09801049934415 0.00000000000000

0.00000000000000 0.00000000000000 13.31585800678745

PRIMCOORD
 96 1
Ni 6.836854574167409 6.956811841167021 1.1880964396894582 -1.6934429561135673 1.3738103530810406 2.0879296281425073
Ni 7.072301985064865 8.497769155048344 7.70563359417398 -0.544112791830921 -0.5373657029150746 -0.505837036179174
Ni 6.396738321523783 3.947435650248356 11.312500692069165 -1.944041439265568 1.4000011525437952 1.551819909121721
Ni 5.165331713171074 3.2526478907520073 9.23458699314599 -1.1192400297654852 0.22536799071998606 -0.2055805236804137
Ni 2.961429676160382 3.1809464708639577 11.758581600324847 -0.21682575757692982 -0.6175722944726526 -0.09365191842920645
Ni 4.950591373922546 7.308177002450678 6.993475003438923 -0.45729306583219953 1.719629384700948 -0.5236874340970336
Ni 3.70490998726704 3.489760237550937 3.228949393286661 0.6234968874872037 0.5159219312190018 0.36883451867847444
Ni 4.186731519541021 8.616953091164758 4.720923929026217 0.08398354210150698 1.1196388078658008 1.2235088044785896
Ni 3.950538071791539 8.00094500364032 2.365655563744563 0.9231928994968035 -1.291571304474466 0.20022054492008098
Ni 3.2571786999265093 3.2226517504943115 7.149777002346768 -0.2904852920446094 -1.5169254112373811 1.9959463556649755
Ni 6.193734415679085 8.472039981663825 3.2694955863932575 -0.02588123864213607 0.018699376181716184 0.13260156021952646
Ni 1.4690375417438999 2.386107891102555 8.901638024494918 1.0848643804990927 0.4144170924042798 0.5794631463057569
Ni 2.2500380477012514 0.6774951711469999 7.1299224142714355 0.23136071796831123 -0.07563568435744393 -0.4057187932993335
Ni 2.3868994180065344 0.07051685893519843 9.473207790067677 0.21117472993873954 1.347602584337421 0.34887838727152176
Ni 2.597791298859853 5.792603137559032 3.7036462736237903 1.5691326893685558 -0.16103050498418073 -0.84534632353097
Ni 1.0134455734259202 4.979131832517751 2.167581869730513 0.4312259364315024 -0.24350480953001288 1.1852554174243457
Ni 8.931171076023734 7.274678128192614 2.3366265419913845 0.5279359249607424 0.12995640928719554 -0.1530901670911815
Ni 8.689118509582729 1.4688828755672605 7.852254400225223 -0.8720050637690788 -0.3162783418483133 0.6001754391524438
Ni 1.0028463913209111 2.8289899389049142 6.4972868029572 -0.5343546840028925 0.5378341579110608 -1.120856996543618
Ni 5.283296515895152 1.5570425962518442 3.814114315786042 -1.5841728715311298 -1.3878125808974036 0.5233976707707566
Ni 0.3528645133960216 0.6901714290241754 10.494973493995769 1.127675305017032 0.5809700698685866 -0.09217790498684125
Ni 3.85280724417608 0.7345970137613088 11.640563119339463 -0.8692889503894965 -0.42610789847864683 0.3176675088863561
Ni 8.472649548359993 5.597814735097017 0.7990837114096401 1.8146553006595456 -1.0550331560702733 -2.8992931669701294
Ni 8.908735382400598 4.102984333895861 8.30209096717013 0.7645938867722509 0.5638269824303966 -0.3424796828340295
P 3.530673990277312 1.9904263212064524 9.916572032420735 -0.9298610555455985 0.14669377664653444 -0.3860987050755609
Ni 6.025412125443225 8.833321974273197 13.078023286619787 -0.9153088687630366 -0.7033067578269953 -0.2760904567755181
P 4.417666317284756 0.34734566029310426 6.882274571440231 0.56509325073733 0.9665530116499933 -0.6105382704440065
Ni 6.438871207642493 0.29936002409014234 5.517758612267309 0.10478273823504534 0.44484532698715007 0.7751078989296974
P 1.9497400187398415 2.957271885411894 2.367306852630451 -0.6561977201543344 -0.1878468538460765 -3.0248043960017776
P 7.470285351589781 0.6415643987115378 9.809166380555947 -1.2180015015071153 -0.1926828417821391 -1.1620051886471536
P 6.994277447955371 6.502466300272549 3.4904862587801038 -0.27633394024489183 0.18819523832443072 0.9036283471013147
Ni 8.545242573266318 8.83834407600879 4.004370999272518 -0.6961670614584204 1.370440408167543 0.563873519397616
Ni 1.4671906456346149 7.787159955482802 11.441464079554397 0.5029676850511788 1.0554591878640984 -0.768305017075251
Ni 2.8648906879060876 4.409186971600749 9.58849595813485 -0.225039917956606 -1.7587906282814418 0.949934686367022
Ni 5.182044758258543 5.407247809456222 2.592877463447908 0.32516921658003994 0.6011969384384226 1.0926010870217182
Ni 6.137927219943354 1.5051748390152278 7.949873322312878 0.765691490711804 1.5092069595472006 -0.6993601144744214
Ni 6.572803018602014 6.2877532550551924 12.301934796472302 0.12051069049326342 -0.981524031137529 -0.752733387889239
Ni 7.789789280485675 1.0102157797372693 12.108575691442644 0.22335096028995727 -0.2847478753401999 0.07641370017404904
Ni 6.108222216018155 3.8800193932542624 4.2737776437537995 -0.051449831139859785 0.7766261353464367 1.381509264387195
Ni 0.13594520065895332 8.760583381200622 6.37023945646022 -0.19918901833177308 -0.09275923141160798 -0.3632233431392841
Ni 3.016090522586903 1.9919547869520675 4.978625983140036 -0.6408749737543351 0.20304310197054065 1.712653210493431
Ni 1.8782660491115555 8.94832992362034 4.619537520835829 -0.8496503502229625 0.011954601258714895 -0.16422767176523975
Ni 0.6808814506143686 4.153023391043974 10.772874950778721 1.9805109949465114 -1.4675669154089113 0.18977286722419576
Ni 2.8895917861164735 1.0826723344877365 2.9800760484558477 1.1808323486559855 -0.6159743538579134 -1.8883616292047607
Ni 1.9337366184628362 7.09376419157621 0.5879407254695422 -1.496688772475532 -0.9810411779638394 1.1499551994611548
Ni 0.6509044161784928 6.917499338269385 4.724226506797992 -0.26834192317835076 -0.733987988960936 -0.5578375976161811
Ni 7.2984148373016 3.4336528074723165 6.703775246781484 0.5921777656589479 -1.8212414385174955 -1.0373717342347684
Ni 5.781348898705903 1.736273400945993 10.88002767795465 0.29527911388882694 -1.9486663396320891 -1.9266669525428624
Ni 8.93802187784783 8.04047585878733 8.788066650988444 1.534844714719963 0.1457280702991555 0.9070396867757088
Ni 0.9061272624608826 0.45858521373647576 13.043268886927827 0.258225146459323 -0.17879117140171144 1.0326948975843893
Ni 8.561855540239492 7.739231636745301 13.022429894128235 -0.4967846961689187 0.8296247990306551 0.7852871534555443
Ni 6.104537521809976 5.3538424884636 6.501348154795548 0.265941027046342 -0.1365883127814164 -0.510655797724056
Ni 8.294355838736072 3.837959291218676 12.526227136829887 -1.261623351962124 -0.13361303220317633 0.07546419177658616
Ni 1.3145351292913092 6.137035614925078 9.613343534312525 -1.0182494115830205 0.5159466138093501 0.04646806165455223
Ni 5.637018061869965 2.9559344778844805 2.2196334067770187 1.1001835273546665 0.2756610825475833 -3.1329136275068947
Ni 3.0735080661617644 0.058334623022230636 0.4886959889250928 0.6309129774456167 0.6359621098337498 0.8302151243164865
P 0.5734011950643788 2.2415768980380246 12.10467446458717 0.48551143724794443 1.4033587561621186 -0.5251570766640246
Ni 7.538211097165746 7.58361016901467 10.802170544236343 0.07711098335138977 3.1331756229190297 -1.1335798434269253
P 8.309231085724646 1.6215565879313472 5.4749215401443685 0.7327854840124025 -0.006395619113698662 0.862113772797296
Ni 3.5495705578585173 7.233527827196084 9.52701706272164 -0.22566135359068876 -1.9799435524788158 -0.35359816134469424
P 3.369748382488982 7.5987583563149625 12.433575728415478 1.0966785995252015 -0.10191904353400513 -1.4943585816804588
P 0.04365407345601345 6.26711896748939 11.726983300437372 0.9523952320923726 -2.1477969939221007 0.5773288735715735
P 1.9381946435542134 7.6096395767420795 2.7543316656399304 -1.281338056782232 0.7822262551420335 0.7375368826544587
Ni 4.729882739857808 6.426989206072413 4.799980180514001 2.2647014551213447 -0.3903104291640633 -1.4121727549093226
Ni 2.3834785660996816 5.500320455751711 11.954817496240002 0.5008053872925375 0.9788940497138497 -0.16634291833602963
Ni 6.0590201758259745 2.181393559304431 12.999673040738312 -1.283105690205616 1.2271872817714413 2.8505702478431294
Ni 4.673456879415517 6.440363281346547 0.4050634382108545 -0.18687291996858138 1.2191135036243714 -1.1588566157158429
Ni 0.06469322248419718 6.364622344845085 7.0674181730872085 0.029367654528839746 -0.0998251371194539 0.2703607533805924
Ni 3.424172680645347 2.2850562896945394 0.75305414744065 0.5032466497441784 1.4009959123568967 0.17310311987799865
Ni 4.21870192805347 5.271159770034137 7.982163980791075 1.0548207829491512 0.3109692709305741 -0.33167642157093846
Ni 7.515820893594563 2.0098141813487485 3.487836008353332 0.5845197348930579 -0.41908493019359444 0.30487832754148786
Ni 6.137818043818667 6.623342466321607 8.840557621936815 0.5588698955354375 -0.5380110498085573 1.1370163799122999
Ni 7.870333966473355 2.6794550401255726 1.2947951761468983 0.7496673473694057 0.07669652152179048 -0.5070035456834494
Ni 1.9345099493460343 5.045265270046775 7.6129558015294405 -0.5034772776977459 0.24888947088069394 -1.1582894303584632
Ni 7.8403924142780035 4.746977901381681 2.81301474246012 -0.5685197599203757 -1.4990485309569603 -0.653513745564268
Ni 2.7696345191168623 6.901350369826131 5.83791213910509 -0.8659580862440506 0.4610944418561607 2.3000147857106583
Ni 7.802517397022077 3.0300104784844684 9.990661680036308 0.5334805089280555 -2.7630157005609126 -1.140368069993352
Ni 7.620375229002947 0.028113761907887787 1.455596141192878 0.5227492385534803 2.136888317429397 0.22200061690964992
Ni 3.826486700116172 4.369874468703113 5.335450860459071 -0.4793173926220906 1.3035562447504838 0.17184405065991695
Ni 6.374248039838303 4.732120850413887 0.6979957179600621 -0.5679698009541766 -2.372479014318656 -0.5583718728530964
Ni 0.6076179023422583 2.990879935794644 3.8860067938922938 -0.6569852490526363 0.15791998437965707 1.5658007967818455
Ni 8.47343197725358 4.753037176301797 4.983806390256425 0.09743555384135477 0.39012171019202496 1.5426313006439174
Ni 1.2760505453392152 3.936044941239367 0.11836602498230184 0.8162797451823168 -0.8962631649854952 0.5824358557808356
Ni 5.053890183897032 2.5621543921600063 5.935983232309156 1.7656374759999462 -1.2528425204457003 0.8390136964447228
Ni 8.04033029062108 5.451455041943982 10.198202763662781 -2.073125987470772 -0.08522821314188547 -1.9396456241907174
Ni 7.492730143223307 7.144512893534786 5.555095937109153 -1.2097765424941616 -0.14440035262666745 -0.5658108456296449
Ni 5.0713765598677 7.82924735154956 11.109007313265453 0.6802123379013769 -0.6257414605470062 0.36893607725334526
Ni 0.5822353631536182 1.0891319218650382 2.319130158209287 -0.0721199578947016 -0.1776794263947714 -0.5286290943730251
P 4.6638948704950325 4.138894180907426 12.742396773510771 -0.24576480920878319 0.21470254058633992 0.18640677896544025
Ni 3.2708621075539206 5.011866473903008 1.3084976895961296 -0.907215807342257 -1.5430527044520521 -0.27933955984043507
P 1.996048891627822 7.543478845181884 8.057212558701814 -0.8478253811990818 -0.25301454879266105 -1.6769812110131184
Ni 5.034484127733955 8.971811888438392 8.99881660287967 -0.7362559590595062 -0.3750907840008314 0.7028401026032217
P 6.645568905705761 4.475584251431099 8.50027110790575 1.063828128654084 1.3311405821266558 -0.1560847309431312
P 5.217445116688235 0.6016368703115003 1.614946883382601 -0.07536751829772181 1.205064481730473 -0.03512538294822337
P 1.6064174986414455 4.978385795665725 5.430872613037405 -1.0772809117248803 -0.791462943248953 0.5480144408781723
Ni 4.691161607635559 5.344717184041862 10.572258362860508 0.3049742296894038 0.7037628715278073 0.6926541632091555
