# total energy = -340891.3301199398 ev
CRYSTAL
PRIMVEC
9.07840059005473 0.00000000000000 0.00000000000000
0.00000000000000 9.07840059005473 0.00000000000000
0.00000000000000 0.00000000000000 13.28715692234177
PRIMCOORD
 96 1
Ni 6.5410603104850455 1.9522828290440597 11.769644434078026 -0.293519707995559 0.41940117588243253 -0.6544727670434276
Ni 4.632081452640491 0.3353951579006099 5.9277326395694425 0.13932396654502457 0.16676920724017083 -0.42066770129968195
Ni 2.8382257937017936 1.641747055700181 5.091930589656361 -0.34896400500679253 -0.2995988243101034 -1.0635975007005167
Ni 3.3209062005645476 4.669420914599311 5.076504571236612 -0.6643424607486559 -0.7634780280002529 0.12299746147085913
Ni 4.842155644161785 4.6685493881349185 2.6067937567624804 1.2750439962434041 -0.7940219622253809 -0.07286506359084226
Ni 7.313114738728146 6.240338288266253 2.7990724672889575 0.053249346242443776 -0.31043628124523953 -0.6962115415431106
Ni 4.966629595758519 4.610138958219274 11.709360222263939 2.079383024124077 -0.5996586474170255 -0.9544487721872917
Ni 5.964527397488016 7.896184100208119 12.40188695279115 -1.3722216684376818 1.095513632682823 0.9970033577200507
Ni 2.006671527462559 6.343950075121591 0.3996003309643974 -0.713497582317068 -0.09266975702159524 -1.058243949698087
Ni 2.8016216821973057 1.5268054248077396 0.26455912098690226 -0.3049714014759264 0.18543438774984194 1.031607063836849
Ni 0.5627019695751322 0.23120144556227654 4.869437146017473 0.16499257495572228 -0.0005828690866635124 -0.09863831590020432
Ni 8.784832428265739 2.2916516029182596 1.2997600710725352 -0.32547003564991045 0.6988538642619642 0.6549643619678656
Ni 6.7959999581212145 1.0487640806877423 4.682779781186328 -0.23041146668116447 -1.2179235970813282 1.6961441570948144
Ni 0.6402169858623149 7.207741742142681 2.386812306589191 -0.0227923153041672 -0.28805842777067164 0.6995951133033629
Ni 7.621843910338544 4.034886099716822 3.7813654061054915 0.4976401021906784 -0.6729299453073508 0.3070943613562001
Ni 7.583551216309295 4.113196383902763 12.824816957799255 0.382820034324289 -1.1839634380857997 -1.0446425568645685
Ni 8.139312748571633 8.882025785846851 7.007620201276737 -0.5229713818666155 0.4155836019085552 0.03213647552322852
Ni 7.215512853116848 0.6327690659520268 0.42691996210290334 -0.7635204512024141 -0.09496292393114612 -0.3356847713993832
Ni 1.8829601615221674 6.387081556708353 9.255275151024312 -0.8828934285468086 0.4403723788174609 -0.22660237734771943
Ni 9.027343745383643 4.991695060010477 1.1957669913890254 0.4551515940091645 -0.4926223372611129 0.9527086495677335
Ni 6.399582514431984 1.7474287179084511 6.945395935239309 0.9187400059317726 1.07906011511249 0.6849315977539172
Ni 3.3631843124882583 4.1805399600784305 0.4232023570282288 0.02094369213120264 0.8422319462717043 0.5135272057345801
Ni 5.740862840162601 5.5829440604948015 4.738638272673422 0.7750222811944265 0.7158002623083156 0.26112252261177604
Ni 5.308712811433276 2.768975753385267 9.573503053256523 -0.5283257041999934 -0.2173034685442967 -0.8322583799987603
P 0.2556423158480858 5.697767672178522 12.254917632172349 -0.8562848248203447 -2.351140657852196 1.2458347216692995
P 4.058489941460787 6.2412552067339995 12.604994379637704 -0.01110793698770345 0.5967278469234756 1.0570571284788377
P 2.161676140515046 8.338211428867227 1.3003928355992869 1.118029811507468 0.28580768406328194 0.35110624816077596
P 6.635657245474323 7.954104296487541 5.819854912238916 -0.5607827962874342 -0.3792045490588889 -2.240985599561644
P 4.703355976306597 0.9252887531647903 12.806666511338213 1.4664582557257648 0.8691007456380904 0.4659875082824039
P 3.993779101479639 6.221373509265044 8.040045884277319 0.18561076542670615 -0.3327704259660656 -0.255607763441134
P 4.714404389922906 1.1921664976830035 3.866296567900615 0.07706367505322212 -0.6485582013312057 -0.9360126769692914
P 0.3754327205387779 5.3362839142703615 3.8255980976936157 -0.5273561411978724 0.5836597008856077 -2.037347030098949
Ni 1.6128323495638233 1.1232523581912952 2.5044166323983648 -0.8407746449998876 -1.4615525908940314 0.39838215042860425
Ni 1.8370143757274713 6.545781078833838 4.8741143380430465 0.7813839617463962 0.7288630090295447 -0.15250292712914382
Ni 5.933651756806775 5.627056009354004 9.000175723536337 0.24952941845753795 0.5288532945686892 0.8827360770333377
Ni 8.716090778386773 2.1654073631907274 10.229117914496507 0.3230562840020953 1.2322739522657293 0.22817666381337476
Ni 2.232560292952309 5.294886407211714 7.074308316923977 0.9559286991669277 -0.1785381748506409 1.01982806892405
Ni 0.6497901593696271 9.099190208292004 9.207402020767216 0.18045776047085696 -0.10311794893811274 -0.11893100471096936
Ni 1.640403452400909 1.1776319782091234 11.460518536358316 -0.15981180208573123 0.26766829415009386 -0.9210547701078783
Ni 4.0054902383449145 6.643927668485381 1.6446312635932803 0.5367540374730047 1.280422486946498 -0.582916652071996
Ni 5.62435972435479 8.118668465446335 7.675871288410346 0.38188595254579394 -0.6423921817298098 1.9975399254043402
Ni 4.919930302708151 3.169178890154203 4.936417586166311 1.6939129537714506 -1.860937214445221 -0.3212791374970144
Ni 0.7927232230502104 7.401157068433137 7.006264796056593 0.45233263650313066 -0.24825646528238535 0.3331900300019875
Ni 5.2553862858932545 4.403287598936099 6.987848352455898 -1.1075037151651637 0.7969496773951371 1.2563176234784945
Ni 8.332319546831906 7.2814401987878785 9.510136724414712 -0.5110154950563199 -0.8027310599636046 -0.4752684193636976
Ni 4.6488401802787065 0.38773576912778646 10.772987649720223 0.25943947848239834 -0.21797092692496653 -1.863087170908688
Ni 8.684715825668642 7.231454524694696 4.7577192552032175 -2.3540863707440813 -0.3196392879007463 0.12783679184103147
Ni 7.349982123852086 6.1544203043182195 6.8859632774081385 -0.2711739933105072 0.23513895406382082 0.06338514912486504
Ni 2.31507387664881 5.092093093028367 2.581149998387796 -1.3194551753689274 -0.6493179623153656 0.2064331014886961
Ni 2.6657724945601133 5.073999840491551 11.336030967160575 -1.9417151051252364 0.5171336921389159 0.8526559698185057
Ni 1.1063937681457012 3.08040120999488 3.910649094377593 -0.6730541295900407 0.5562486558625065 0.033421255772923084
Ni 3.5043443645178427 2.7313548610056544 2.8907270926208426 0.3816897773745878 -0.0923581393184474 -0.41499713327746596
Ni 0.9567272546876183 3.3505925707579194 8.238834715924796 0.33362326088466415 0.054566522391970546 -0.10442946866068467
Ni 3.549763603073635 2.7229845755872177 7.265444056806006 0.5063733682986182 0.17500367933482117 -0.1886634362101009
Ni 4.075521021119125 7.097666134009765 5.87338842531423 -0.04231161628401745 -0.7694231898400943 0.09403681257245095
Ni 1.0823995551728933 7.355992025096127 11.47488147405952 0.10697717478320286 1.6263117096827087 -0.7488911313250135
P 0.05754616617178797 5.707045797664035 8.217096485518672 0.11808716865343533 -0.7334349446709433 -0.5193921491557894
P 8.53748232359032 1.588148178140038 8.136310521469815 -1.0746103068712527 0.7801310631759015 -0.6592370212012905
P 1.8673634691698084 3.303566455283404 10.291527379907619 -0.8547156805610119 -0.868460283840614 1.0192374865279028
P 3.8038226458447406 6.244714077389557 3.772303346555943 0.8258383354050294 1.0945129593324505 0.03489784031844958
P 6.807801878993197 3.9603796654119274 10.486250903734732 0.4823024433923436 0.4044705227145292 0.3161104488118814
P 6.304840325031974 7.71295473947025 10.237103275726504 -0.20530695830405285 0.7141748108897507 -0.9604551262823718
P 2.3564623053067866 8.662301254412544 5.858839380399276 0.8689912166434196 -0.856409523323667 -0.6219717090919289
P 6.844505852905063 3.865464986399174 1.7448695167593653 0.866200798382476 1.6449997730105155 -0.9329872598794062
Ni 5.299498234752458 2.9302807765032592 0.6287673069363574 -0.2304153233359064 -1.010445856378202 -0.8657230874151092
Ni 1.3162046860475425 1.051424052084274 7.061605818705455 0.5020207477568773 0.94890675932314 0.23869736083904053
Ni 6.8297988438184385 0.8138277810895168 9.469411019005701 -0.6752963886569983 -1.0017889520341523 -1.0703692722067113
Ni 2.7093215825777297 1.5811396528222141 9.22374495765471 0.8332685664308295 -0.6254275288510133 0.14268285571492847
Ni 6.500389075480058 1.9309485874677834 2.5719281589864416 -0.2778462631243602 -0.2323904447844062 -0.484482738873114
Ni 3.9837656255397946 6.832413423211616 10.181337383926252 1.2286137298053228 1.097624765488555 0.6771437262783823
Ni 8.376594906903183 7.190483702467574 0.28174090209637503 -0.7400316240518545 0.17760692128562316 -0.08674876355146995
Ni 7.701388857015707 3.9152781708796116 8.000369641985849 -0.6279999175638797 -0.30260881478102075 0.33933290967493174
Ni 3.1972493050281803 8.31002299478453 12.348286259550871 -0.02325665653509543 -0.416370873696541 0.8992608141612384
Ni 8.90819881498064 4.669947461838214 10.216016874488538 0.3613873183718099 0.4832046434916387 0.6201811928504094
Ni 8.634085585127835 2.5596187555169636 5.8824904298267295 0.1346551003144455 -0.4185660815756469 0.021741505442149655
Ni 3.750114827476548 2.6929169125656736 11.535139358511662 -0.5293757427310626 -0.8016434833263807 -0.03486750130114641
Ni 1.3843017694788833 3.3646459349962496 12.713976040489795 -1.6212805750167045 0.2745688779246691 -0.5149456833486615
Ni 3.1229879875413964 8.367861485457917 7.892146027589766 0.08610778753336139 0.032447836116060245 1.0329237257657435
Ni 5.588926726536829 8.037108113820263 3.5067864542982763 -0.610323069109407 0.012075443107295334 0.9605641410564102
Ni 2.7943771184620423 8.28540237216544 3.4635768984657456 0.7847199680981646 0.18089767622175298 0.7877911508243207
Ni 3.4156120763618736 4.274183662997278 9.246306599001672 1.0539373519029334 0.5610149669028983 -1.2057795055196265
Ni 7.080344545529963 6.122981802795391 11.490693324507776 1.1426424678498257 -1.4060807830789719 -0.7816757819552023
Ni 0.6627631939281374 0.096971844604747 0.05823521678269834 -0.4330905004440671 -0.34237683870757807 0.3334620527164515
Ni 4.268491505776715 0.05222077633832251 1.6063113343620192 0.8417627199447697 0.6353995524620605 -0.13602138453435283
Ni 6.0108635545115545 5.633020518594691 0.4854556739478037 -0.22619177217286204 0.9015578377255312 0.48453570359823656
Ni 8.210514645032374 8.968297827421045 11.233720115121358 -0.2879360432601944 -0.08918848334121414 1.259640002983508
Ni 0.2489070503904519 5.027073587424413 5.92972625635674 -1.2258657347465403 -1.3940415925262506 0.2638702605602424
Ni 7.781741781352569 8.690970843730792 2.62499776578748 1.6777561415059299 0.22839083670670987 1.1168532747008637
P 8.541059213454599 1.3892676546457867 3.5415585445474056 0.5681706041110731 2.1927797292803786 -1.0385009627432051
P 1.7242697177973527 3.0444961353420403 1.6651203060671094 0.6774720561520784 1.768384442617464 -1.0480703515991951
P 4.766450860968351 1.0672749396554138 8.147286307880758 -0.5187601719987452 -0.047026248150867395 0.9629161862283546
P 8.703108665427592 1.8529832825073311 12.416449615307108 -0.3826274586975088 -0.3876117992859776 0.21805937287371477
P 6.42162487126058 7.850891959261717 1.347144783373546 -1.4900452990170854 -1.6369987570829097 -0.39684000275246495
P 1.8066925174871462 3.241715311513543 6.125937730053789 -0.9560084033649278 0.42500232411929384 -0.3140268268099753
P 6.8648687056095685 3.8928817564248566 5.828769901697599 0.760995113677399 -0.02123628367095698 0.16530984908582497
P 2.492111768129222 8.58767680089893 10.18006186863201 0.5735714634116702 -0.27367490535548994 0.029433474769768663
