# total energy = -381159.258514339 ev
CRYSTAL
PRIMVEC
9.37030980848794 0.00000000000000 0.00000000000000

0.00000000000000 9.37030980848794 0.00000000000000

0.00000000000000 0.00000000000000 13.71439557016054

PRIMCOORD
 96 1
Ni 1.860578051603142 4.072636417646854 3.241205095534417 -0.4954448943115725 -0.05059622489031286 -0.7494863417068511
Ni 0.22051149666035497 5.4504748574305015 10.297467104166891 -2.5775370898366963 -2.0609194181022508 1.2507707255183362
Ni 1.7271729533176081 3.7136692258072435 11.854641088978099 0.8344844411158014 -1.9424147022954223 -0.4474951059051713
Ni 3.3104273209382638 2.107335785553501 3.238133508035787 0.4466970354839081 -0.695048631583261 -1.3877652725992358
Ni 5.014446239145697 6.9069301950588935 7.9907339406554865 0.15537999156662272 -2.1485711530839637 -0.6805108429784023
Ni 0.8662017300781686 5.201393286690452 13.221664317380053 -1.256015261746727 2.1188746544607957 -0.053167842272231015
Ni 2.83596169252722 5.648075947031214 1.131802219675249 0.11577703246301997 0.7645861734627671 -0.665268572107351
Ni 2.7378358100206452 6.096726372395501 3.684276438541523 -0.07973530834811429 1.2680873624199127 0.5326287024507214
Ni 5.669833806005647 9.134740051600462 3.57214756531514 -1.1322454408862177 0.6106133466563161 -0.43112977717327045
Ni 8.010687077994056 1.1052373918576268 12.779690237631305 -1.341755895748657 0.8876677100070002 -1.4261428439361696
Ni 3.850288340297873 1.2297313256794715 13.041635369439442 0.027518774245559062 0.1176649935143522 0.6628939012275873
Ni 9.334871124802852 5.563827493095325 4.161866128185157 1.0472550547867514 -0.4025889894211002 -1.4863153996610081
Ni 1.4656288707618852 3.4969339639301347 1.005317095055787 0.24728947338342572 0.1760604027341097 -0.5314156559792268
Ni 3.8694693641224487 1.407308063588382 5.3657710064463116 -0.13028551049184015 -0.11879653601563411 0.8288413838974114
Ni 4.703689290382513 4.5544296281931285 3.717986127456478 0.5071776093674684 0.36497272173022305 -0.6517258004259098
Ni 7.163367458863081 7.589585362959155 7.200523547662099 -0.7070189165712598 -0.32254283470078643 -3.1544669281976385
Ni 2.1471783421251165 8.886033293245847 5.675414762424757 -1.200155988685262 0.24361999495163852 2.5732006672448717
Ni 2.9576351631486757 8.69933924406126 3.792044369663384 1.8418452308107762 0.11997487259445143 -3.229849616004012
Ni 0.28397754085490096 0.03461579785674089 11.267746737432326 0.21204067748346064 0.8211578992102245 -0.6571593127366553
Ni 0.4190664837819965 8.265269020490347 7.535031420259262 0.5278109693471039 -3.122366705228984 -0.8050602223174135
Ni 4.803979714414969 2.73534330765751 8.250073189353895 -0.8763029198134843 2.645983198424237 0.8581481032813286
Ni 6.966637808058502 4.824360137872932 7.800871789783019 0.42987173639645326 0.9353696440686535 0.16752999666559534
Ni 4.79867611916108 1.034201074508281 9.823662082585177 -0.09826293483865657 -0.4723378759804639 1.1756209796583754
Ni 4.961850691159696 7.274012075043145 1.8956033319909695 -2.944292614498955 0.10539157546363784 -1.9470280326977176
P 1.6131081741204594 1.3803871640045975 12.749848612534027 -0.8107127926175004 0.6963812343517555 -0.3446098418031549
Ni 8.1283313154721 0.02429440179285694 8.252486981116089 -0.6378361869280113 2.053382229184941 0.18904241681607442
P 8.831320055282143 3.8526683989453776 8.333634799593476 0.2075795563883135 -0.18542770288162258 0.5101544326076053
Ni 0.4100588051290581 2.381951450051228 9.738523449233883 -0.3653301050696418 0.8573335777998331 -0.026094640204522804
P 5.457727477088645 4.913565485606183 11.716852559844915 2.05667966898929 -0.6939978217212436 -0.040656597179097725
P 3.5531089701970293 3.7436073650937702 1.7351180388578415 0.9630349711944058 -0.6009930499577326 0.6297958331220379
P 4.177340257517792 0.42010565112061177 1.7429347511560642 -0.33926786076495113 0.26034913478086125 1.0271382294322182
Ni 5.5680816136699995 4.799144634642872 1.294184063478672 -1.201161547131641 -0.5789296423997901 0.5294811579606753
Ni 5.850156044637861 7.0368776490888 10.530502019655556 0.40611654295838445 -1.4200837822262833 0.5059830748387351
Ni 5.718025308462801 8.937972919557339 8.592534580769964 0.49071920670112906 -2.0448554226608526 -1.4243582412319211
Ni 0.5471155130796813 3.638847303365017 5.7151448752807426 0.06373456204448379 -1.0224490514866649 0.20373241472808135
Ni 2.608656721380877 7.303500439467151 7.416141868630615 0.13562312065466967 0.35766487521490015 1.4223957181889115
Ni 3.9619730608475168 6.282567723403228 5.901770521204989 0.4133963644492493 0.0971344776611682 -1.9914749501571833
Ni 0.7242209244139085 5.6910856682597455 7.753597640639215 0.15434769364736645 -0.8062053916654501 1.6115682328249472
Ni 4.030048360351936 3.723920344548859 13.26478273420036 -0.1994165609615469 -0.4751462919635366 0.7019584713292168
Ni 7.665869053704574 8.1620269489226 11.696884430010929 0.01951133056005027 0.0605034567016958 -1.445968363302529
Ni 3.442464354016964 0.6708776257189666 7.800748101695826 0.22437348801720067 -1.1845067121837793 -0.4367651210821768
Ni 8.745722276758695 6.193821520842134 6.0720758988364825 -2.013596207536255 0.5418437932910861 1.964046164522269
Ni 7.664782097786816 3.703343144588542 4.970179022364036 -0.8511914694578374 -0.3773739236080533 0.2590921224453086
Ni -0.010255803896433031 1.7333667279869023 0.7759440965728128 -1.0028176504089827 0.4723268202368704 -0.2616791664461945
Ni 7.038348787701628 0.3371381185119439 10.17370873965146 0.4653660726483211 1.1059515401866953 2.0998279222419898
Ni 6.27200738444363 5.83143416598544 5.560665950624192 0.5343436282592992 1.2710772982861722 0.4652514014473278
Ni 5.463939992377211 3.908609147471376 6.3959822031116484 -1.3108648625967554 -1.1830026168344272 -0.9536054503503899
Ni 0.7573037396142251 8.733484652374282 13.514398412589651 1.8893826142701073 0.8714209091308347 -0.2555450285239986
Ni 2.92848412987156 2.2785688238389437 9.375778148549099 -1.624940797477111 0.7762317281214954 1.2359938243194777
Ni 7.13350428205364 4.6175011823520045 10.21718322823793 0.43658360119899003 0.2326591250647606 0.4489266961453752
Ni 8.63730779427196 3.470996946858114 11.880670872115513 -0.02723569578750148 0.04533189116757999 0.7552682384959509
Ni 0.2086374402898114 5.59762619995182 1.9756819981389062 0.030380926284702514 -0.04395300854218237 -1.4890217428485775
Ni 7.0444113780360205 5.241460730693329 3.4528185461645733 0.21167403817266126 1.0083570921699732 -2.078825351848394
Ni 5.821792117370156 1.256061895756198 7.200934904255113 1.1556702475680614 -0.946777371684963 -2.4984144753719164
Ni 0.7162402316970589 1.0798251121252134 7.045674495774932 -0.14096355903097657 0.9957769415121174 -0.32383609959091325
Ni 3.7099211019529057 5.732624250875449 12.327102408158034 -1.9237657197356675 1.852078221392694 -0.38917271601519426
P 8.859309170164416 7.0954327140032 12.956757230696024 1.4236190490730514 -3.283017201165926 -0.08210637968345214
Ni 8.717236535465725 1.0242310650557414 4.6269623839913185 0.7712831258669685 1.0166445289897459 -0.011053686711000316
P 3.204186750287046 7.603565864935836 13.43887277989377 0.1526440806926984 -0.5325986205437344 0.7359242867517003
Ni 7.412186660933325 5.755150475240022 0.5026740085387926 1.9501503803767837 -0.1757999499838714 -0.49912105761157916
P 1.4046187847228944 1.5254489274771237 5.075628738881988 1.850334756339026 0.76370402796813 -0.5838144812959172
P 5.483336533323412 6.909966175380907 3.8122045908449054 0.009243887195771176 -0.8359306866440248 2.0216198491716795
P 7.465709869573276 3.351534869310718 0.23195545581861324 0.6046275613865264 0.09656934918631756 -0.9932955698511604
Ni 2.340881382917317 7.829259142824814 11.446541615593896 -1.7458957745966448 -1.6459096864192941 0.3490704486776698
Ni 8.028153335155272 1.9739119466486952 6.532385800480654 -0.8883163993345926 0.783940666729979 1.544326171847837
Ni 2.2186175827888035 1.1677748383672604 1.1504294582003467 1.4624321652855072 -1.0744609257775817 -1.0837881167157788
Ni 5.906584049264922 9.216289856361225 0.6145320798166998 -1.3340011915039025 2.050801098721326 0.5913472993378525
Ni 4.491226889699349 2.723086942653824 11.17536672879445 0.1615454969473863 1.249940516307557 0.8794630627090209
Ni 3.0763663565444754 3.6318476820670402 5.016657632219757 -0.04857456647459377 0.16904874730296693 2.1042517623412986
Ni 0.9317629755072897 1.237058907814703 2.8783773361248395 0.06666613386898196 -0.4351227003827474 1.8741151465880754
Ni 2.2459320353772934 4.55174034932764 9.65567491955759 0.7776419782054608 0.10711472880233165 -0.3874163954457199
Ni 6.063264996685897 7.451495109855698 13.109892452950795 -0.8433264648874637 -3.0291588163157313 -0.07080946661339418
Ni 1.4019669870959501 0.30605305332598964 9.053749654324957 -0.06966352593440904 -0.6382185099680944 0.5627414626757018
Ni 7.93121748197245 0.5878857303052455 2.4852816025295525 -0.5562561120616742 -0.33020266523888936 -0.7201747372269275
Ni 2.9106243197056383 4.7394463919528995 7.221644225581295 1.391174812501417 2.820877091654071 1.1994844165395342
Ni 4.811016816951488 4.678511268390995 9.742733529353268 -1.0500950953387078 0.7019651561974362 -1.6222413962680773
Ni 7.124237045823789 7.606367587516955 2.252616814271506 0.7251799037510026 -0.6758787435230295 0.6163013981800289
Ni 4.568166502119277 8.641796172587531 11.78641211639565 0.254764184493916 0.1647938286813549 0.8959471764069731
Ni 9.103265181533656 8.22863110981419 4.967820515428692 0.6228906213617724 -0.8066044268760817 -0.29184566272724577
Ni 9.106610382073653 3.25160988735406 3.0339535240397475 0.7155035570035033 0.3225163523382252 0.3263822630515347
Ni 2.463969770293785 2.7755044547567445 7.257672129100158 -0.858158901914606 -3.2647921935174677 -0.9958625592473882
Ni 4.61656415138842 8.717667569708974 6.179226326553342 0.2807369544085939 -1.1476466059326365 -0.22630310093974576
Ni 7.7032097376034185 7.05210440224705 9.114066337450895 1.3367586996443817 -0.7948866242185214 2.668496034814772
Ni 7.191150426933363 2.4295338823820525 8.790104748348877 0.16776679526674979 0.20278342055125076 0.4494190624007615
Ni 3.9254944454351697 7.85193529214356 9.742309054326764 -1.9733131916464919 0.4828660292052974 -1.1367970648126422
Ni 6.973290727899952 9.151353610584815 5.523664471934164 -0.4417862284458521 0.5655761039110195 0.3765588839059257
Ni 7.054831162351081 2.983253589693078 2.3268530923614925 -0.44667852354114684 1.3246675728078023 0.2297517216099785
Ni 5.597804235834902 2.2108964476488664 0.8402122392721871 -0.976219073984848 -0.06269069416100172 -0.9999102469542005
P 1.3685618332441603 6.889314012943504 9.619304062706055 2.263076260813096 2.258487355890833 -1.6623855725871304
Ni 2.655217789961394 0.6079597446381175 10.947502350162848 0.35192822984143907 1.4805682127645856 0.7104377124448216
P 1.5889327752599778 5.521670470043657 5.6646351582196806 1.2238582173982084 0.9169623452060596 -0.46573348329006886
Ni 1.5437397718862944 7.647568838985768 1.6330828631711916 1.2686146956782924 0.11883998765905986 0.6635826997644959
P 9.15382737232868 7.725932738470345 2.8055541007279374 0.31559082886298556 -0.00951488146897071 0.6376220140346761
P 5.830825095859111 1.053157210901597 12.166465316008804 0.6769853463236469 0.19491610198803205 -0.5416710151586477
P 6.796997722411153 1.834050705024063 4.053289539341723 -0.5493059059960862 -1.1093752211562635 1.134347574830885
Ni 7.985940090245789 8.580355052305292 0.3512910341859251 -0.006938121880729987 0.22228163848517846 1.4578646005194829
