# total energy = -381179.44515972957 ev
CRYSTAL
PRIMVEC
9.07529952099528 0.00000000000000 0.00000000000000
0.00000000000000 9.07529952099528 0.00000000000000
0.00000000000000 0.00000000000000 13.28261819432134
PRIMCOORD
 96 1
Ni 6.279190781813071 8.188189147391228 4.5820380444825926 -0.699089377311538 -1.1805742098985925 0.597782513440235
Ni 7.700128605238218 7.941431748757181 6.684424693794197 -0.16328973333200264 2.3714837402849227 1.7725259755896636
Ni 0.5074671630150559 6.480970995172003 3.5892420045219136 2.0246920603391 0.05923744550507862 -0.7420023746249802
Ni 1.948239961447727 5.421747391583455 6.99992658006756 -0.799192707793043 0.08839298402311228 0.13451240408899415
Ni 2.8598175143420015 0.7705383203760068 6.357818270817319 -0.1839662878447477 1.0646467679006375 -1.2642533333858033
Ni 1.2696072010557944 1.998571573541306 2.0179083145957217 -0.7669716429758082 -1.170686004250603 -1.573370124488671
Ni 8.775424564581854 7.174296665765793 12.816292505582043 -0.9620240134313883 0.807600472240764 0.07909638921253474
Ni 4.572952761960615 2.49229510270232 6.866675769745237 -0.5996295939513028 -1.290097805252733 0.3995995677754731
Ni 7.852965727356495 2.1383039629038807 1.3312638796354135 0.07735240993823453 0.5114189011423257 -0.4791150468032975
Ni 1.9851855064951414 8.67493377108885 0.3092698779746498 0.29221307336899355 0.6851239162703814 -0.5674059580309067
Ni 1.8323937608753258 7.235627541086458 5.378278521117205 0.9360255324850977 0.4564957667418848 -0.6405836677661614
Ni 3.6275878683118523 5.435868557904697 8.68644760380849 -0.09094120436626273 -0.03794562600583787 -0.37727570746729217
Ni 3.1294355929009887 7.906918384027308 2.2409102087551633 -0.3644793270335723 -0.1619702431896307 0.1639836740752337
Ni 3.5197370067683806 2.74228330802683 1.2011857940855237 -0.2981587494294672 0.0690217785853521 -0.34024822240034946
Ni 3.746991586363641 2.7854000568650186 12.062158696929863 2.2362033476816516 -0.8928243145072752 -1.5019397364618263
Ni 6.157336732844357 3.281410561548496 11.212110768419516 0.6623976783174592 1.1560546274906736 -1.7112277909008142
Ni 5.634172931481472 3.9985407432352287 5.364491325824639 1.1777691363496297 0.9465356879878021 -1.1766571342323735
Ni 7.382774450297654 6.60769848007549 8.707779095735278 0.576252352677943 0.5307366276343312 -0.9751350968920496
Ni 4.417084489745105 0.5524969850283846 13.78430299455304 -1.535043975214963 -0.08785150969734548 -1.3280925393289515
Ni 4.112499281471628 5.56991073436019 1.4853152768525224 -0.08482120751145392 -0.4485119772054598 0.30976342354793107
Ni 6.016288425026397 4.987893614492643 9.509226071803372 -1.9538409418544933 -0.014411547439639696 -0.1419629468297684
Ni 7.443760464230011 5.63271180823101 3.9561082719938407 0.2741263910706118 -0.7176689400859382 -0.5943919997014473
Ni 1.827928713426707 7.166963823614403 11.756631472548325 1.9565184886866565 -0.11310385650623102 0.6742334946101226
Ni 8.440482478837586 2.732491059658822 11.839887364395652 -0.5901854178192675 -1.096371352697428 -0.46284356333678356
P 3.3207701363140663 0.9888083532758754 2.7225917227544447 1.5730309959816973 -0.28170908851387616 -0.793518283116085
Ni 1.9860113587671422 4.333337624184423 2.13257744879803 0.6943343791250559 1.3440143527655306 0.6660368177319432
P 7.337343500037925 7.482285111423888 2.7029328085609516 -0.1958499266562111 -1.899503504754193 -0.6758185797090553
Ni 5.385881807199427 8.483572001776697 2.225329734243397 -1.2902885811073004 -1.648612430062438 3.228038530937202
P 5.119494535330903 4.811850951061116 7.310766484888981 -0.3122653640341783 1.2621738251489552 -0.287271413093002
P 5.7028184983541435 3.392673735776278 13.213349572540393 -0.010598344341136585 -2.014690211931382 3.078974711396594
P 2.969374532227629 6.02618050169102 3.495162002731561 -0.5906533585946214 -0.35956003535508396 0.1603818156565883
Ni 1.7876979098906742 6.538562847019434 0.9980451933027136 -0.4249596438068165 -1.554272998647904 -0.2648925311771696
Ni -0.1805122485299919 1.9781612245332896 4.070497886965626 0.3308775798187269 0.10099190373404543 0.9830769774469458
Ni 1.6046218891976034 3.496649444351131 11.139521076300564 0.22424956084482667 1.21063734783256 0.6873762026396678
Ni 0.1876790126970131 6.998862047413652 10.162730234877253 -0.9894242598212121 -0.210991667393656 -0.13745323188487296
Ni 6.159133642183435 0.874353396146306 7.861317725663333 1.4148320469090407 0.34108485936903193 1.2425218552459827
Ni 6.780601089813475 -0.06874267257937859 0.7715910551403153 2.7799955229483606 0.9976409913040495 -2.98722335242421
Ni 8.221667927956178 4.365645691089064 9.825032888146396 -0.951851957994393 0.9962327981026132 0.44968182914384486
Ni 6.231100768743493 6.540849822541897 0.541937873836376 0.8739853274239013 0.6770902473326275 1.0165779374178687
Ni 1.301715611367205 4.440026847367277 4.662345371459888 -0.6041045990035209 2.7538918838827735 -2.192485852189044
Ni 1.3111448477475203 4.777700598318935 9.209383615149099 0.21913178000228714 1.4060830970718172 -0.4242433344660823
Ni 7.522388860764228 0.42468046416181987 3.0771709419729465 -0.7933722444565239 2.318039247312537 -0.8477901570857722
Ni 0.06393185621248239 8.331551656630728 1.576699914634258 0.01296890145584218 1.193617673346112 0.8783505463711324
Ni 2.973757901979017 4.71919214120258 12.912870029847719 -3.0830442534802778 0.9215455937013678 0.571013472876507
Ni 8.328983346817802 0.19258058206083245 9.061149485034763 -1.9569923429992813 -1.3115927419017153 0.3631924899013487
Ni 7.015315565755819 1.1432336528403078 5.567063812846711 -0.013858246039330972 0.9600414357837208 -0.01971290504789508
Ni 5.816550154098235 1.0992819764304262 11.651220959092116 -0.756080449984601 0.09055913843649566 0.5834277873804598
Ni 7.475433260156191 4.778608128288166 12.811988998467946 1.1594502834357838 0.11873302976755035 -0.21666969161503974
Ni 3.974572876747825 8.441489837103433 4.46379687232139 -1.0965649567654727 1.7738493223867773 -0.4743842169865314
Ni 8.132539409677952 3.6595692244275706 5.77848380953882 -0.40985775516837153 -0.07237963931399147 -1.1685951831598453
Ni 3.938779894761334 7.104090147346044 -0.18835784511399825 -0.6773915806231301 1.5244554010658389 -0.5547659006693929
Ni 1.9192897554292423 1.6607889189933411 12.730260479558833 -0.5593699751003076 0.19106716055558706 -0.06321288521305889
Ni 0.6909660926737887 3.6426891669998644 0.20382578590957998 0.16744386470969227 1.2241101855080145 0.8164900614209099
Ni 1.3744178372023406 0.46776363439114693 8.479969107798848 1.5511357385705027 -0.2758094351999895 -1.0261393558540586
Ni -0.22945261718073912 3.786823076713212 2.684629744141491 -0.7082674442663802 1.198680432581 0.378303120290542
Ni 2.8419754751469104 7.775390065586586 7.443858477466688 1.2854608207013538 -0.6824725946904633 -1.9082640245556426
P 5.053063341583157 0.038640811029938896 6.294287542851237 -0.7873028983339925 0.5735082142739026 -1.1511361071431336
Ni 0.9876648655146436 0.22110061887390162 10.859417396477076 0.7525618953083814 -0.4584919712363072 0.49183969345881745
P 8.87410937343609 4.625099433992657 7.510231589296403 0.18087582184488205 0.27390707597095404 1.4575609532361349
Ni 5.211917387397439 6.113593788327399 3.4834993350969667 0.8563061649765834 0.5122647940823887 -1.5120308021492412
P 0.7633034914612933 9.14300142801969 6.17916736625422 0.04609756568901093 0.38348929247717184 0.9155628937553716
P 7.1788615415110275 1.9839240398379097 9.787961196433256 -0.4694253303193593 -0.5117917111007122 -0.22534613634311512
P 3.557490253488411 4.856256392455614 10.766996359470479 -0.368813692742868 -0.8219963359511198 -0.5070631952767912
Ni 4.403807326295248 6.506327382512331 5.425033557602043 -1.5011689197340727 -1.3944843364906243 2.924208699264886
Ni 0.6449280048646439 7.195950330831656 7.7041308124025285 -0.8038029528715447 0.8775954133726629 1.1820155703308095
Ni 1.2808968738730342 2.855071132602921 6.0107170985452845 0.5801087503095557 -2.2575689578416216 1.6606619050278042
Ni 3.8513666081249562 0.5595022088608825 8.51783761082497 0.2670777117539465 0.1381520577241105 1.4468865042414243
Ni 5.059960569349316 5.1137317200262835 12.300182934669994 1.2740080987797222 1.5318840894297423 -1.1518326189895258
Ni 5.5807194162937375 1.881690788803981 2.0713581996635804 0.13758178704293725 0.33866005197762317 0.20113225810107294
Ni 2.467773642933685 2.595962251087635 3.8430336679474726 0.7539695742891854 0.6891839452723679 1.3970598105272842
Ni 5.966301674321125 8.51737749313057 9.899787946771932 0.21189155350010605 0.7648643668248182 -0.5480185546432305
Ni 3.640365890278632 9.169138291133558 11.363798050066777 -0.7825797818267103 -0.005293130078139271 -0.4855420333755638
Ni 6.686090918817707 6.116379905332939 6.1219984233724505 -2.008862806616327 -1.4102804229826165 0.7566489208935614
Ni 3.2508631027841632 4.114060233018707 5.89537094698593 1.7933544822992404 -0.628318220135247 -0.9928919066548385
Ni 4.431722948148809 6.863721759695388 10.402867202385755 0.5475956081731989 -0.07403594397049185 1.2392028181750787
Ni 5.208396171116822 7.502786213428827 7.660989560255171 0.2791372140216418 -0.8040258675156282 0.7953113704607657
Ni 7.001738917416115 6.7366766393026705 11.040538597616424 -0.21561836753238994 -0.601471532256048 1.018918412625587
Ni 0.2590353715877784 2.421734647594571 9.501720798957825 0.5466563841883811 -0.6133094054312406 0.0029989347273238673
Ni 4.667481083555769 2.794711314349334 9.31774360100531 0.298256451349596 0.12866700105181067 0.6244764777916535
Ni 8.808004890477267 1.8167116430070054 7.331142347758167 -1.28828826284782 -0.6179013956772972 -0.9404982235444704
Ni 1.6044131573046803 0.4066732545123284 3.9107081777530657 -0.43928505929055306 -1.447749366462352 0.5625020929713862
Ni 8.595316166888171 8.316005668257793 4.6689603574056155 1.4696140277459269 -0.16156015223540562 -0.5097268581518835
Ni 2.4022136779564014 7.4488426320577075 9.489381113966186 -0.6683053020511458 0.31317733432548645 1.478713418944034
Ni 8.930358080929057 6.036009051257797 5.835399551559173 0.023661862393314085 -0.499012814168489 -0.1956360108731921
Ni 6.580027891313621 3.3693865167657977 7.629589023319761 2.0369690779342404 -0.7499031175292956 1.221327994777187
Ni 8.640865096043902 6.025145917526096 1.6415855848444023 -1.6498876972304362 -1.4897431943956343 -1.0676819551825354
Ni 6.478085049869846 4.37758878548415 1.8792776666157947 0.06749197220438699 -0.4011214037366382 -0.21373349180485124
Ni 4.824737876624204 2.0081732406157755 4.513672904370415 -0.5195459011248342 -1.929555844054883 -0.15536610760955177
P 9.586148311995434 5.502971323829675 11.897839505640869 -0.4644695289759807 -2.188248674179244 -0.4424863398366702
Ni 7.8743380581318965 9.195184401250502 11.584369578968616 -0.2220525531935079 -0.8570983218605756 -0.296490874808741
P -0.14461580812700908 1.0116599579011247 13.18602747528671 0.9695375481996141 -0.8272349586422398 0.6284367479909823
Ni 4.465020222719914 3.847636659951415 3.110577120140358 -0.5594990444790041 0.625285089735878 0.6056973974119375
P 2.362917630288677 1.6998036323706034 10.120930312024418 1.6908525696785717 -0.11981829241192912 -0.19636054774404246
P 5.72855604828155 8.083278682948066 12.331755902299559 -0.1957321701314242 0.248967632416797 -1.088191645100113
P 6.76819515513408 2.819341677714277 3.682433534472389 0.6299318444792699 0.3645091518302432 0.22934034510417275
Ni 2.5330341230211224 2.9959107085279575 8.255890883095898 -0.4529165340310587 -0.7217780771583053 -0.47646423944401173
