# total energy = -340893.4321755335 ev
CRYSTAL
PRIMVEC
9.06414658640049 0.00000000000000 0.00000000000000
0.00000000000000 9.06414658640049 0.00000000000000
0.00000000000000 0.00000000000000 13.26629474717163
PRIMCOORD
 96 1
Ni 6.502627945087396 2.0325805245855224 11.497658962159576 -0.056678940749283035 -0.38493348112286613 -0.6050795613222805
Ni 4.834734300981057 0.3936867116022405 6.218549428101514 -0.560912379886763 -0.35943302285891643 -0.932697239442813
Ni 2.9174859796867105 1.6744470222090995 4.831889971729819 -0.0746704922306972 -0.6509151315991564 -0.5134531579635351
Ni 3.569270644435358 4.373577706604674 4.980445898531169 -0.28791007511826544 0.06394513539339311 -0.43240838677537796
Ni 5.32205002288796 4.496913551479165 2.8886955303536577 -0.7732729026034877 0.3483068310387679 -0.6737197881984978
Ni 7.208072358616597 6.0849611268341715 2.6742994543644394 0.6533592222642748 -0.08861409889498288 -0.42835709952413964
Ni 4.973107565319557 4.676546811839469 11.534632523181664 0.1745606782601316 -0.4615940072003986 -0.32876156191698863
Ni 5.744267042811429 7.776303718591742 12.329336121865676 -1.6058457285188732 0.2654095800229042 -0.4315164710887278
Ni 1.6827679089287866 6.8981691811153985 0.38328741603198235 0.7994917270907005 -1.0736294310152221 0.02623553665776127
Ni 2.9723965807192423 1.5626135795647647 0.22615318074314658 -1.4138218604769714 1.074739119139633 0.3652000072496807
Ni 0.7877586494415035 -0.15925252638512213 4.690829187878914 0.2812555459162253 1.0458301494147666 -0.523230291954957
Ni 8.729135889463448 2.326159173783719 1.2539603479008687 -0.3531813855222498 -0.4014577040301344 1.1326352201254686
Ni 6.897308087173817 0.821943172507547 4.875774944651427 -0.9835647157166416 -0.9553453158596321 -0.535582899983039
Ni 1.0066822667340811 7.369432299121901 2.681198176458507 -0.17373946791041692 -0.10498174161972887 0.05782976652427461
Ni 7.4128133054840175 3.6466784577100064 3.7232786555089215 0.33864976756497805 0.1846993093560303 0.7199752196216116
Ni 7.7403009276869525 3.7050243703621044 12.693084863155876 -0.021167120995918384 1.7359949705431652 -0.3399885409810596
Ni 7.965209601080847 8.757008140730372 6.8111814711370045 0.6478313504675101 -0.5446622365764877 -0.089286185261343
Ni 6.8561296684727955 0.6011414640076501 0.36495427280841036 0.32357153307561687 0.5533489657172083 -0.9526024630071723
Ni 1.7969127089952563 6.640013217429769 9.31740989073987 -0.34411156201049764 0.15922250524116452 -0.5573678570686142
Ni 0.13634017622169622 4.738454934165681 1.4249192198181 0.5805363247652775 1.0485688885021685 -0.3448301853440771
Ni 6.657670175305531 1.9391563639974887 7.141207054430912 -0.7975955385092521 1.171961271418601 -0.7701474696006284
Ni 3.6262841275146953 4.234551823699925 0.568808746123341 -0.1355434164566698 0.757613855909992 -1.0352708858416815
Ni 5.970816326767702 5.636720941581486 4.896244507264792 -0.4032965570110861 0.48306194726618734 -0.5491598673365252
Ni 5.403808626604276 2.899538969114836 9.337295722302311 -0.30430317176430816 0.15661592085625287 0.00986866526396365
P 0.17624055023047897 5.748590640812835 12.571379658282336 -0.5139730350227472 -0.5482090733874817 -0.4081477144558003
P 3.861317452832218 6.182137844178142 12.713355920955339 -0.4985890963675091 0.2701141845874251 -0.06680445921905914
P 2.410772983727378 8.789421529520789 1.3273192068207418 -0.047862370898917574 -0.11013371813431355 0.8387776691745168
P 6.3000805217343165 7.655505834808224 5.97150429550629 -0.13408457252295616 -0.17687569954655344 -1.3722813180310236
P 4.9452806347864 0.9342959907608556 12.588599724284581 0.0036471098342840415 0.5057707017176128 -0.003878252008483644
P 3.7629533322635424 6.166130561011512 8.305854738711123 0.9072548881103085 0.32271201328879906 -0.1876337093940059
P 4.861092839740153 0.9492880894910979 3.807612383317898 -0.023652863532249588 0.8714741309662734 -0.002483171433169917
P 9.089073157043812 5.766737062613284 3.9282425803864767 -1.1246393464041855 0.016805501593112993 -1.5362323390961092
Ni 1.5012946267775282 1.3737076970756597 2.713182831107483 -0.1534586061741938 -0.6568330397454881 -0.2614145999308982
Ni 1.8457775241432228 6.1258857494260965 4.844240778096099 0.9129627371283632 0.47535069466485874 -0.4140579092926482
Ni 5.853227150934912 5.587457303976366 9.383675148410475 -0.48457838391071384 0.3851818496882463 -0.7058346664551715
Ni 8.601077624130399 2.2434669629517963 10.146831890733706 0.29774068805544207 0.37724793955315034 0.129387424157603
Ni 2.2376477807360673 5.038795436841967 7.198358312540901 -0.18943116761406084 0.39411720450466314 -0.2622743768280322
Ni 0.62330692847859 0.128444397984747 9.385068307766485 -0.7740588888398927 -0.6897313331354057 -0.691485596822351
Ni 1.498910756181365 1.1527600558130322 11.458085803848595 -0.18160370114984206 0.7346227943314574 0.4606815226884582
Ni 3.8582628353762978 7.033741624107075 1.6306662869751554 0.7462377528625663 -0.2501421123408724 -0.7091791574473721
Ni 5.615719313553692 7.870271727984984 8.018958178499584 -1.1201849101772579 -0.11995816042390309 -0.18799726338101172
Ni 5.3220137663009455 2.80509055994366 5.039574047048091 0.03089463269632744 -0.14684315774020518 -0.06479257099535292
Ni 1.0271581742501739 7.430751251909138 6.702079055909491 -0.37753847421037556 -0.6019379303695054 0.8898816869391836
Ni 4.933433794979612 4.431053461168439 7.218058329094897 -0.3775937529283433 -0.08663280679889596 0.19473895298021945
Ni 8.122200622850979 7.2517252893813176 8.912588781265665 0.12957820001217038 0.2135260037797355 0.33647050052547217
Ni 4.691049446645023 0.41055055663707474 10.437151072759354 0.1681102946490976 -0.8695656010896509 -0.8173490669870958
Ni 8.052787387012891 7.545430836634063 4.537365025610559 -0.9689148270139507 -0.5032163107268753 0.8997184705239473
Ni 6.89916623725828 5.838769836863125 7.061184234817887 1.3662340833956792 2.0451778389972777 1.6859170800501677
Ni 2.524591474510723 5.0046417318748855 2.544780954989406 0.4818782113707314 1.054206289293604 0.5988474643696395
Ni 2.0851707040491654 5.297839686909437 11.481328088953846 0.9471550667393559 0.3697891692822599 0.9188215099019853
Ni 0.7911776455969132 3.805101614667186 3.627947398443957 0.5693288860852324 -1.5734349162883354 1.0286289550451317
Ni 3.8700099695687977 2.722162681296147 2.721447520117298 -0.32655144163954725 -0.4633477566667117 -0.24107280304975254
Ni 1.074618046651352 3.1954924247624428 8.310538183338641 -0.40111703286126404 0.03727482519105838 0.005950818266796202
Ni 3.303518925770319 2.679434293500281 6.962018843676203 0.6589835104295877 -0.3453210089375665 0.8841931211948385
Ni 3.9081428349606533 6.655331625443136 6.050863619576962 0.5382450201962342 1.2258863035718308 0.6726021296542868
Ni 0.9207450913644153 7.6963851366663825 11.510249062000149 -0.35691411309180465 -0.41875017256199487 -0.5211541261522186
P 0.07052540664473775 5.521053364860433 8.068693151735884 0.8469967146501994 0.7683754653018703 1.1046785870115425
P 8.673699567919215 1.4141700481831576 7.894095931311809 -1.711137545179853 1.7666957420611313 1.918886537266495
P 1.932956487618114 3.213557269242112 10.557676125725592 -1.4995113295259916 -0.12678906730280745 0.24941834680097044
P 3.943157633869315 6.380533888318132 3.800169812418622 0.3884376376213826 -2.2056272746670076 -0.15281197372913038
P 7.010138585961034 4.0017029577499885 10.538439287070702 -0.6039940415675856 0.417502673308139 0.5276818999684073
P 6.2038192832124475 7.740246542806431 10.057310751737718 1.1007293725558074 -0.3111561901303996 1.5913326225043627
P 2.6592484386802995 8.68324411445062 5.732339532098535 -0.111544225328595 -0.5262834769589839 0.2414037040266101
P 7.110116124651828 4.126072115354375 1.5618014320156537 -0.9046277349001065 -0.645447937836998 0.06604855488964109
Ni 5.531885020230831 3.030262093593406 0.328242665627499 0.35766847475932595 -0.9255405737933738 0.34303452689623504
Ni 1.2789057861810986 0.9274978806957518 6.90839625789734 2.1198043653639167 0.021957992328329925 -0.37942180727601754
Ni 6.954375955133677 0.6171007071964879 9.024516491036234 -0.2726135539705111 -0.4366566205287705 1.4671920485679957
Ni 2.8092419391567507 1.6680114780141344 9.207073845139208 0.04293382324904864 -0.5220141601596687 0.010598858561768842
Ni 6.410246161376013 1.6941977979849143 2.411255196334663 0.6801809704428091 1.0952069000756817 0.933013228021335
Ni 4.026103640810335 6.904323736761005 10.543440883249266 0.034054004260915545 0.20836991350009276 -0.38627148320799926
Ni 7.8544094711664085 7.493366377682121 -0.037049699854815835 1.3912776566278684 -1.7381989201730192 1.256036859013282
Ni 7.60084902988479 3.922763303674003 8.51308741952107 0.4126312041484506 -0.5134652421483932 -1.4659653752497463
Ni 3.2245611434008263 8.51281096304509 12.33793255864667 0.25566201371783714 -0.8863687886899186 0.5906093927305635
Ni 9.176088965877142 4.87609400261715 10.232027618898936 -0.08105171316669267 -0.5073349608809392 0.029216987883588397
Ni 8.665587156574857 2.1634214829718874 5.677165164395477 0.6939852233157532 1.4791121970443493 -0.32237262767150937
Ni 3.865079073734909 2.5006530629348043 11.432733385379134 -0.03997525484135696 0.910177203963426 -0.2531541596943188
Ni 1.0784521807280705 3.318719499875891 12.745354171824447 0.9161588754681576 0.39934142901808 -0.5844901672067031
Ni 3.08029618367257 8.463393234945164 7.906340687161075 0.3094623473677445 -0.40866322063963817 0.6387098477822161
Ni 5.70223659431558 7.922689688660311 3.6062034167970536 -0.3829761002861791 0.058947682178801704 0.12341963660994229
Ni 3.2666187843369356 8.41477315175954 3.551864763424666 -1.1346105986842847 1.0775961289724538 0.3268350343182371
Ni 3.3274482731994843 4.387173926734882 9.507860303835766 0.9538162808096153 0.00853786226768207 -0.5794988846396987
Ni 7.32872521605206 6.14479355955384 11.309463708775944 0.20298833747320524 -0.47429525681715085 0.197561252920363
Ni 0.46502245296673866 -0.012878339707332683 0.40202028812738244 0.06195921531161587 1.030162875191155 0.08454147148750603
Ni 4.6136597616638815 0.5608622086645724 1.4476974206095743 -0.013107483916235492 -1.8663023354118762 1.0976206517234968
Ni 5.896562836563262 5.55846109851201 0.32641352081264846 0.0405583810383366 0.8928245716175914 0.748802171155633
Ni 7.9114320183924995 8.796020228357316 11.308216482182667 -0.38645557419434734 1.048026642845453 -0.9574700755121189
Ni 9.120072538940684 4.815645207918246 6.090211080633782 -0.8761643373530912 -0.5767596313316647 -1.2354011850408015
Ni 7.86845889863429 8.563561120717779 2.32751879579674 0.7452350226296649 0.9216188701414643 0.47051059296373804
P 8.342785698243468 1.5651515406557368 3.493917673229721 1.5568317605140156 -0.30559540821317044 -0.7159095341926702
P 2.024631267882728 3.1435729921585565 1.4991310149474746 -1.25809245599073 0.17417835522004843 0.7730528161728816
P 4.733478717598024 1.139154771536071 8.229467548360914 0.5358621217863546 0.22703072313438968 0.05792284045871315
P 8.580828320283143 1.709217089155417 12.388994522967677 -0.2568791739543898 -1.7800101997818503 0.1383726583753488
P 6.1481926145863905 7.675156904969751 1.355059121545067 -0.047331180985795904 -0.24666649508744615 0.11346278250754654
P 1.6856321793028834 3.3475978714324524 5.7135278019263795 -0.020071831049210592 -0.2334307131234625 0.06589377447933167
P 6.88546124736703 4.009833497387853 6.185330236664715 -0.0726640033236297 -2.262588265433084 -1.2147318296169078
P 2.4897398302436238 8.685120392828589 10.243874458705726 0.8124290039776589 -0.7685456723311473 -0.27718651805317424
