# total energy = -340889.74893662875 ev
CRYSTAL
PRIMVEC
9.03273264248207 0.00000000000000 0.00000000000000
0.00000000000000 9.03273264248207 0.00000000000000
0.00000000000000 0.00000000000000 13.22031726487840
PRIMCOORD
 96 1
Ni 6.513882908643949 2.0155910678944466 11.305341121180076 0.0002565960954963323 -1.0658042785438484 0.2492211431884998
Ni 4.546951171684139 0.44164010862937014 6.146614707789484 -0.4423014775193737 -1.4691270608071796 -0.9835372049128157
Ni 2.9130562885502074 1.7345104924305539 4.960342312137348 -1.06804293806638 -0.2794979397951703 0.5719107878797957
Ni 3.1426141568206414 4.414215164985704 5.079563544203445 -0.7959937412397711 0.13112754677716126 -0.7264014348629296
Ni 5.159831116597069 4.671259638794304 2.673253494876754 -1.01438555775224 -0.4641846507457102 0.1203656802749669
Ni 7.326178492881912 5.907903971496763 2.5840037731084506 0.08078791798234473 0.0044330960706891395 -0.8096578689904249
Ni 5.227386924293401 4.4463084641894834 11.434398095858892 1.325134485141892 1.1806356592641474 -0.6709838773245735
Ni 5.647201240953705 7.894427705634451 12.500417721373141 -0.5194978214957182 0.014187604354291694 -0.519619434675247
Ni 2.0112282580111294 6.37424589417977 0.45211898180874094 -1.5104878831421535 -0.0411294230504582 -0.9933498201278634
Ni 2.859401856444818 1.4709895492920615 0.5214135905455252 -0.11800283646974516 0.07889507183500606 -0.3509987760486342
Ni 0.5023671704213796 -0.05098345305260135 4.821039508782243 0.2629148386255085 1.1011525761361554 -0.17776812945383577
Ni 8.315642095859793 2.2574605508045513 1.3373412365931812 1.684687064297808 0.054872483668163566 1.5540300293991622
Ni 6.726405043084289 0.8472703251659208 4.557784127984474 -0.16404820876458198 -0.5362716985199474 1.0614611710838042
Ni 0.5429015583124464 7.316296683332537 2.4370466320822834 1.1684946530262392 0.059852453381258205 -0.613366226811105
Ni 7.800225336538977 3.5330540268131463 3.8358357425351532 -1.6220873871887163 1.3350859399276491 -1.6590536800004203
Ni 7.795501217348553 3.571388944297199 12.59867127107455 -0.39877372944006806 1.0328676757168276 -0.28043253579429767
Ni 7.7711309045841865 8.94831275806951 6.895320757249883 -0.21296164663583322 0.023111646316798906 -0.5076635478649516
Ni 6.848075952252572 0.825991013523854 0.37807947859637403 -0.5440359158463985 -1.4787131618337177 -0.41979455466610927
Ni 2.0635639111455784 6.459478759726312 9.07568151501087 -2.399355784104842 -1.9996790832345304 1.465725234214482
Ni 0.21248600350962815 4.657520852391559 1.4819579965825624 0.08247173344267086 -0.4651680977049021 0.4726561785518312
Ni 6.161163730313415 1.8853571281477273 6.647519478790349 1.2590861873625672 1.4695451221812046 1.9656209652085568
Ni 3.3955306717955436 4.37891524568135 0.4889364002029445 0.47817916525258936 -0.35556402682181343 0.15543989827028068
Ni 6.406357258848906 5.521022998179262 4.8021213534621205 -1.3422279502890688 0.9752181435241591 0.05248572860354186
Ni 5.274140348633047 2.894837266739337 9.268923281550713 0.5343379718323443 -0.47485781418884027 -0.4229480126934264
P 0.09685347613637085 5.432746101720343 12.687604847199138 0.7127036256608629 0.5374379509139067 -1.1613834959027547
P 4.115412368008212 6.181252527788565 12.411538341644622 -0.5034723926017394 -0.20022465868513906 -0.07305223990098386
P 2.3890403677202445 8.262592856843808 1.35904869976417 1.1781311476747387 0.9068831065931865 1.0196012976252247
P 6.365113801442641 7.868702482968432 5.7253361851621305 -1.0065277522707183 -0.677231143785866 0.7597311593633109
P 4.812829658051504 1.0273559165607287 12.592708764234018 -0.26415745278335795 0.05242685034114842 -0.47039257932863504
P 4.126748447518695 6.2070680777813605 8.130151317230666 -0.21839438761563032 -0.12684434602077507 0.1814589480418617
P 4.6881327834362 0.9259905904518589 3.793332218920353 0.2900214650343134 0.4478828282618932 0.7140747949767767
P 9.314282955238193 5.500274811218643 3.55136066613099 -0.11780871818106807 -0.6066430491546585 0.7963616661021511
Ni 1.4651453712496056 1.0908018308887182 2.575040592472394 -0.996291933475323 -0.7115923948745552 -0.24522821997902283
Ni 1.6184669757204624 6.780764028338537 4.731908115812017 0.8476580023832821 -0.5279606075510908 -0.13284787190237765
Ni 5.956978808134571 5.545844947577513 9.161085099205023 0.24106663240216547 0.4639558225643558 1.2576921352285177
Ni 8.845059590831006 2.104364764650637 10.103244281149918 -0.47685607556579174 -0.44159159593654274 -0.24333074584599385
Ni 2.364913938738174 5.712562094609362 6.857986666546516 -0.6974852660492117 -0.8622125031586892 0.9028022516555936
Ni 0.4233352758580616 8.986882526603184 8.826372673467432 -0.08567378531973632 0.06427912169404414 1.2795069171107643
Ni 1.5740349636789785 1.3369799272860743 11.653035390322017 1.227374715191899 -1.3852833867176464 -1.1817399480719197
Ni 4.1052957074092165 6.733378312711454 1.4501103877076156 1.190352372331279 0.9261964622098179 0.6644123947546429
Ni 5.714603492194516 7.955787058713898 8.192908034055348 -1.301880656820274 -0.8417190111910279 -1.09108542170814
Ni 5.053967489614718 3.267085213119004 4.903627590200761 0.7588685542526995 -1.2119583806368288 -1.005813756922829
Ni 0.3582408878163963 7.377141170649355 6.949325659383167 2.037483555676814 -0.10953799353184362 -0.5548533181768767
Ni 5.199051241883534 4.521623389255938 7.112768440819358 -0.32705537785915934 0.12427015753569566 -0.446624787485076
Ni 8.089715386125786 7.175349922630094 9.248563502095234 -0.01734363348477013 -0.16644704801406174 0.3826873654011667
Ni 4.713406369468335 0.6350643363693005 10.282815910055366 -0.31803491952810387 -0.5238337298669107 0.8259519781647582
Ni 8.081865941428886 7.243366399692988 4.587066440778961 0.29742984168324266 -1.0098478177828867 0.38752386755786167
Ni 7.308844678873454 6.196373322290993 7.127020286438194 -1.2816715288622507 -0.14584274150014884 -1.1631503579951903
Ni 2.5823950434185567 5.206783261055625 2.604350003464914 -0.939011354586299 -0.19474126697306463 1.2439732429805286
Ni 2.2882802347007787 5.308898303976742 11.447076439445278 0.9034622538370957 -0.5957528846047159 -0.007331500664406729
Ni 1.0767739970402888 3.2646734734940646 3.7726553905478872 0.9312504796939576 0.5950558585376914 0.35113247341302106
Ni 3.4606928053322914 2.478943156061144 2.8426723322524956 1.506496245484257 1.3888245671016854 -0.5659944223953607
Ni 1.0298399180470892 3.316096820628069 8.234737715812393 -0.003146516048781678 0.433868259150356 -0.13433756907402672
Ni 3.4657872665625 2.889119546954369 7.155457135454051 0.20360103135653967 -0.09549822760932586 0.49358547250533064
Ni 4.084104916547391 7.051511157619169 6.049550768981724 1.3718869108060825 -0.11745596282733964 -1.0207079004258421
Ni 0.7131830216589056 7.031341065549921 11.184613229303341 0.9623991373826198 -1.744852420933795 0.028651345188105495
P 0.07557326122103618 5.606011979943506 8.094112520393278 1.371916221382121 -1.3470860497123187 0.5699009565386185
P 8.256107354781237 1.7505526256661048 7.778675946189848 0.7731654304913459 0.1783980497283508 1.6007878543799916
P 2.0461397698103436 3.253274164854839 10.413670398537041 -0.6899221089899731 -0.5812662609527667 0.0022137198218671553
P 4.120985564070338 6.0818473046707515 4.036837529718385 -0.12613986375458278 0.013857474708382587 -0.8732229953365801
P 7.154077837174169 3.746596860046062 10.258714772724794 -0.9154669916074556 1.0677395478933482 0.7349364689171343
P 6.414495750991491 7.829319768493769 10.382166033503848 -0.5456441408737829 0.0020805366781125457 -0.012172630806791939
P 2.414097168168115 8.583119375911108 5.777701646314415 -0.19087664181133576 0.00903922738413282 0.21185658649711256
P 6.768145300787825 3.796285922505953 1.5252672399522111 1.7418542575374194 1.698650982677068 0.8549401378669921
Ni 5.421690036922869 2.9611104263954386 0.19587119502231262 -0.5186681265055713 -0.35234372011230286 0.5427987010051878
Ni 1.4736813036300085 1.0194703409331183 7.092594735657039 -0.4257515435804926 1.3412038798999288 -1.6938029105561474
Ni 6.804312362429236 0.67303252490664 9.101567520318554 1.1800404488823097 1.114028917878191 0.7204907258054495
Ni 2.5087963375608604 1.3218320345856132 9.245576377398725 -0.2630343949225083 0.8403085039967463 0.3282046609722541
Ni 6.042952357760682 2.0373328554496104 2.576969984172345 0.7164592360485532 0.8033432396263068 -0.3597382128041611
Ni 4.083770705438317 7.299622258809548 10.129340749128989 1.0565033128578964 -1.0393743664870938 0.8279355842536903
Ni 7.996533715822889 7.332799485934649 -0.0031415844252953864 0.4222088205345568 -0.3915062492443774 2.0053499083670623
Ni 7.41865561003595 3.8473027966694615 8.07600098810127 1.1343686578768077 -0.36692033237489713 -0.5091717569793618
Ni 3.2018869486515453 8.46705779373566 12.252920846004844 -0.2806721626089295 -0.5407150790032818 0.3032438772618584
Ni 0.20748999906560608 4.469305801586844 10.216648433371594 -0.2776737421022379 2.0199319199462953 0.43186562689803043
Ni 8.563816426178917 2.1933552469910915 5.578365495036946 0.6813899031492459 0.13481528004139362 1.6789889854717666
Ni 3.7227956094403885 2.9198850344545297 11.836057523110338 -1.7498079651668572 -1.5967352815771727 -1.4414517063790981
Ni 1.1731261565130486 3.387870914484875 12.650587805412757 0.2832592066098154 0.6339152546070502 0.8983128484256723
Ni 2.876265968354037 8.166258762836405 7.949204906411675 1.0309817715480245 1.7182687569079955 -1.0954197874174358
Ni 5.711396872093942 7.761158767708033 3.598517853621328 -1.572032379513854 -0.5055848109590518 0.04194934784859227
Ni 2.9971239315813296 8.640558523008444 3.5506994700989845 0.5717529221456928 -1.3610011171315142 0.05320255216490837
Ni 3.627662868879115 4.4662075742784015 9.492849240996616 -0.40259438873773895 0.47607214621191557 -0.47797296277905427
Ni 7.230657344815499 6.016594843807227 11.584236678609239 0.23083055649645406 -1.1722695466876392 -2.430469989011143
Ni 0.6392293294069765 -0.11633798379538372 0.42095695734402977 -0.2598313146041783 0.4404163446815189 0.027007638937095423
Ni 4.710109422040984 0.3380753121134867 1.5944362937047756 -0.5381791999553054 -1.6464573313926483 -0.12883797941203617
Ni 5.973851952776469 5.515693685899434 0.335032184474378 0.09981819514091841 0.25556225491517925 0.6065862277747941
Ni 8.543863119693933 8.741255426899166 11.464038104867416 -2.5765413015823304 1.172701492018735 -2.2935230073387274
Ni 0.2559307378694419 4.878154380776451 5.862298607480449 -0.9596246599612765 -0.26347353934245593 -0.4192859904608069
Ni 7.731657862782747 8.680094793938627 2.7000915502086626 0.39477617824490074 0.9970473235841087 -1.144786510776022
P 8.571151005113189 1.486571013161051 3.4877051924048783 -0.2481536211559339 0.13390870906672422 -0.21051241376439228
P 1.8082175910803824 3.0604975840478974 1.697052653289503 -0.24860330709884282 1.1356863482469668 -1.82072644655429
P 4.404676599278079 1.1594776974370817 8.146901616708147 0.8222166794920421 -0.11891634942295005 0.5673550501883131
P 8.647911167408072 1.458831491107911 12.439869507688151 -0.5292842114585208 2.5747703257248364 0.7430174461530558
P 6.359278656132863 7.66462595358172 1.3843394479883926 -0.5716217958844672 -0.3682920159114431 0.16505479565222542
P 1.5704489688059415 3.1589634029672333 6.151320761514554 0.6358034727686984 -0.24237043881525355 -0.9943934309010295
P 6.93079771811472 3.8203039586958907 5.846711723971853 0.22837875252185183 -0.19158600917353455 0.7439468999458607
P 2.164820844462316 8.382692070526177 10.167798511777459 -0.3151223738669992 0.8491541273128344 0.9209272433910785
