# total energy = -340897.7408646949 ev
CRYSTAL
PRIMVEC
9.00750796137542 0.00000000000000 0.00000000000000

0.00000000000000 9.00750796137542 0.00000000000000

0.00000000000000 0.00000000000000 13.18339839433872

PRIMCOORD
 96 1
Ni 6.308435151229141 1.8927386188002737 11.385433185853678 0.2332088269206435 0.42074174907072703 -0.3511980365436339
Ni 4.716574317426584 0.3032899956022265 5.93860669507612 -0.45850379831084903 0.21715434456094215 -0.42713222597810313
Ni 2.8495431260544914 1.6016790173683282 4.767473042082652 -0.25637292374193266 -0.6113792782880633 0.8667080770361977
Ni 3.4014331325452316 4.26717173534994 4.946108136430997 0.3762282400393843 0.1314011121535221 -0.5206555892492453
Ni 5.045195226628506 4.422272013165577 2.654938621023799 0.2603712462680483 0.11187872584987829 -0.35197502391897445
Ni 7.205952241758663 6.016393731440618 2.4461662068824612 0.6811736733733817 -0.4719858919576839 0.25033854462239463
Ni 4.993302973855645 4.4379720993629554 11.534167857865706 -0.06359366559124532 -0.09866762647624297 -1.4743196607517126
Ni 5.446524739264297 7.719317137138568 12.339541746005844 0.2890159065879345 0.5074190359543133 0.7781767676630081
Ni 1.7510415126780956 6.427631502720767 0.4002729319639884 0.41130400069659484 0.35674287762126305 -0.03503488011694611
Ni 2.8225926625418376 1.4993897581271196 0.46890473734109867 -0.41224373890204485 0.39488673568083604 -0.5390361486389621
Ni 0.3482924056141146 0.30338817743788427 5.122633672438878 1.2196305524701059 -1.2760228152169057 -0.16385794713064683
Ni 8.649873766493096 2.2468417677339114 1.4327053759490187 0.6241918566716992 0.5556842987186043 -0.13128952627632226
Ni 6.985817757204604 0.8113656823676157 4.782949742085139 -1.3011435215439333 -0.7955764511966943 0.011179927876219454
Ni 0.988564979963314 7.436967795805798 2.5940442648971467 -0.10736104048518286 -0.33875672545648755 -0.015253583724960827
Ni 7.612407026365945 3.8206605632958763 3.6886357191121637 0.42974395256933734 0.39398042181648274 0.00279067537125971
Ni 7.308313561062739 3.87175114786933 12.501961524707305 1.6168276814516735 -1.069756321213061 -0.07193175314329547
Ni 7.65189594081764 8.818359200986473 7.207653759993136 1.0670474069223301 -0.4663029826402937 -1.1811231404235272
Ni 6.740327138028847 0.7282930403917466 0.4119430591454704 0.0031830257136719374 -0.932279435179104 -0.3475049039627628
Ni 1.8737147622031063 6.25509268969106 9.056177224968353 -0.7090164066172627 1.1406465204657195 0.624971415150201
Ni 0.18399456152415625 4.733481409677003 1.478214908653341 -0.7092262086352237 0.27124829819186835 0.14317470774968247
Ni 6.209992097843514 2.0582065381610524 6.958869995944307 1.2984538905269123 -0.003404140585542524 0.17510292391684681
Ni 3.2235708823711473 4.068177871739798 0.17809554462761984 0.26147373530360773 0.6014897870884931 0.13431725735905256
Ni 6.037444277305949 5.754176170171613 4.552293587601557 0.20738723787184926 -1.017998214804163 1.8824923149081774
Ni 5.313483848194144 2.9194413870365077 9.087830508333935 -0.4043288549303423 -0.1436642457915913 0.4719326701222453
P 0.14914631512116333 5.600291905916874 12.285806557125133 -0.45869071751067453 -0.2864334905727389 1.674719154451819
P 3.8986115363033984 6.0457491995514925 12.6351141088749 -0.08333151033980488 0.379198892631934 -0.10732221682744741
P 2.5499353996648226 8.353490727916771 1.3869598465388038 -0.22757991076964032 0.22053765921087826 0.13099770606751632
P 6.33619629044906 7.779595379727698 5.78411082103779 0.18480960968164947 -0.45462657474362994 -0.2074844255713459
P 4.6643397793551005 0.9528412037964743 12.512956088799397 0.33878500759126173 -0.33229631454312447 0.4148282117997694
P 3.883037555216039 6.2200534841214665 8.106431901622848 0.7487849447644523 0.18073929626701776 -0.24896711819616482
P 4.8595414821568115 1.042438884465046 3.7384688555885695 0.41251061941018635 0.12553256918788702 1.0097891966308092
P 0.3226219089681548 5.6103172621633925 3.5738611532282785 -0.7338928581439683 -0.609989339919072 -0.4623625099353069
Ni 1.588059665486265 0.8997059149391399 2.7102825508080395 -0.47858000023543384 0.9394006196049176 0.005909166395583371
Ni 1.922310267099753 6.499466377892363 4.777241684355203 0.4323160841718877 0.01750021366729244 -0.1766954652149473
Ni 5.864491118914751 5.59379749275089 9.184979182840292 -0.13826184382909737 0.6447671097198896 -0.24762834478008316
Ni 8.607088104165186 2.3432491243435143 10.202684351476664 -0.23828444167133797 0.3280228839787512 -0.0383253779427598
Ni 2.2675500283006196 5.278246477451664 6.944196765642799 -0.2211020163547805 -0.8358108732367089 -0.7704372329269055
Ni 0.6088751042068007 9.036331883654492 9.20798435791092 -0.7098350458638163 0.3077366229258894 -0.8111933317983449
Ni 1.4857253687057643 1.2444502632077885 11.418484434438898 -0.14862673200318918 -0.6563699840661406 0.06215359071060909
Ni 4.265343211254663 6.801118808565913 1.6113801033319406 -0.17623986573476744 0.3542213967509899 -0.3966780232533039
Ni 5.561739772282463 8.01818624788384 7.998473316935495 -0.945045733705837 -0.9222750156682246 0.4395264858773979
Ni 5.470331582534331 2.913838717148516 4.865188288833311 -0.9339228843197981 -0.04367327251823446 -0.9718780234073325
Ni 0.6779617887307655 7.384454024990701 6.859756783974008 0.08349400405959814 0.5663263518134827 -0.057800455948235935
Ni 5.1113643793570995 4.6499007442579146 7.005117243542242 -0.05747212607453973 -0.1730910356931406 -0.4271522805827611
Ni 8.020780410147088 7.074983077495967 9.152719694195834 0.30233884894908575 0.6810654299302915 0.4389844973309988
Ni 4.572066868852553 0.20800857747493662 10.378050621223155 -0.14425431396710642 0.1272032720220906 -0.5880316047010582
Ni 8.16650387228202 7.234280853973669 4.622587278178562 0.11131925380198247 -0.18551846282321596 0.15378333650346418
Ni 7.22913756698646 6.1872661555165 7.062491465597789 -0.4020842818705398 -0.6198358936958486 -1.1334268627888286
Ni 2.449069326665258 5.246963402659068 2.423846503159866 -0.10209516410055318 -0.5421243006459825 0.9385994638598608
Ni 2.2194859663676247 5.268482338933041 11.453248911018807 0.18896811193471327 -0.7799834818544438 -0.8525161018065318
Ni 1.1116435673419574 3.3519098543391586 3.836171491828226 0.32236671413423834 0.201198335452318 -1.2622219047780712
Ni 3.638943099758351 2.603944416784432 2.82694238808671 -0.45827419879854625 0.358022515664635 -1.116641930021006
Ni 1.3232929794933028 3.2268225927080683 8.326621331974845 -1.4929485887068095 1.1293274959084743 -0.39697987076443886
Ni 3.609578624139617 2.717817331131681 7.007978028038104 0.52349640113215 0.13822019195788454 0.2698861277370191
Ni 4.093840261628685 6.921549188634154 5.982771406857168 0.3727500516827968 -0.4227603221626526 -0.4251938713048096
Ni 0.8439179150174752 7.241730062972653 11.001281891454845 -1.332646734358537 0.6191751201833982 0.9679779170219779
P 0.14975522265239843 5.566018338515255 7.897211814340943 0.5453595197538285 -0.5142023774247337 0.547820065479179
P 8.496484915170575 1.6524813616903093 7.8360931712686135 0.3113125132026058 0.610570923454155 0.9491970368700492
P 1.7221634424837216 3.315447462527921 10.482317929190092 0.4379668546997618 -0.4510365433995265 -0.13888456501476082
P 4.05229763538525 6.043128014764667 3.741343151346219 -0.6029229199905939 0.703462309568253 0.41151020317013004
P 6.818485283717115 4.001315140906098 10.237950546244292 0.6194702828263138 -0.8247427883480053 1.0992913545577003
P 6.178519865385891 7.633943977655635 10.208445553502965 0.3112824312956188 0.33041375280843094 -0.0624531242288989
P 2.4128231150426247 8.480595671308167 5.71572852362836 -0.6368195727380387 0.7177347603268671 -0.3174664486191436
P 6.879267946746322 3.8979810107533033 1.5682440489483351 0.44561845770774866 0.024424194480635354 -0.4547240195534426
Ni 5.1507902412537865 2.807315929213809 0.4902381189531873 0.5577622642935556 -0.23094111393238936 0.08469728033907994
Ni 1.597661668863434 1.2900102379561185 6.969284476530314 -0.8078159306856798 -1.0142366908792015 0.13535701147747656
Ni 6.901012070716758 0.7371321078532997 9.239808783925813 -0.5136922705575346 0.29261699367563154 0.18338881807472288
Ni 2.743569796099153 1.5818534925717538 9.224977021485994 0.6834228744188746 -0.8752441395316669 -0.2351240416654854
Ni 6.51142834832846 1.9046825742206543 2.47894002422564 -0.5678674710483574 -0.03497600185455267 0.912968650665634
Ni 3.9867229781753166 6.729166835792157 10.34961391891385 0.23354487010382358 0.32771666559224205 0.19222261431626897
Ni 8.201516055328037 7.214545404255679 0.39188153764300304 0.012688394100945891 0.03607694822821529 -0.1280010853330376
Ni 7.674027387625993 3.8214081864481324 8.136305301435588 0.3514595177351367 -0.13572570767080497 -0.3486819549899995
Ni 2.9852862694821956 8.184320722826147 12.32000446146074 0.14239386371959992 0.39964276230858264 0.2317150159839364
Ni 8.97183812738758 4.929205547934507 10.212229607554324 -0.09107824416475926 -0.8334835106551128 -0.7462200122507536
Ni 8.515067403882675 2.4894409768870878 5.588468651101797 0.14092113582881535 0.20714606839532068 1.6839581565515835
Ni 3.6506708749901273 2.4900805099450416 11.304328684344892 0.0916567423760486 0.30406637316315377 0.03928028565686138
Ni 0.8946941375666665 3.3964519806994766 12.69268559535255 -0.20670332443094724 -0.08203464590525225 -0.8015594082530066
Ni 2.89818366849043 8.29056427801724 7.847444432671905 0.8187608597329578 0.12203355489569305 0.7926258532088026
Ni 5.697753140945923 7.872201568021011 3.5964970204767073 -0.021032909410899258 0.7896243473783174 -0.03928799896634524
Ni 3.311520189101612 8.350617332909907 3.5956926500249424 -0.3322392360529439 -0.6803426928316542 0.6111612487399861
Ni 3.37090668841275 4.396276345485925 9.087619732650044 0.41188712689357454 -1.2140103780698512 1.1209001910767278
Ni 7.1455388865516545 6.1076037560158625 11.514972858619227 0.2002953640220744 0.025572449152465634 -0.8804987030623868
Ni 0.7358953770243268 0.17817481069677468 0.41744304344387495 -0.580612943639484 -0.9565547627867009 -0.0706145769937687
Ni 4.521372614624873 0.3965897620006448 1.6867891576217917 0.9138217426945487 -0.6830865741253784 -0.47361417158972624
Ni 5.850781691954103 5.39352456302484 0.27585763041914263 -0.12276220553160148 1.3263539593712899 1.6882328726675375
Ni 7.873507656660495 8.764043928599675 11.32045212341162 0.1800497263991609 -0.19074063045410375 0.3077427935734765
Ni 0.13377590371140652 4.846660745919147 5.69133889459988 -0.4617007079815919 0.49450489899580635 0.26523268812540773
Ni 8.014718357358314 8.667528481895769 2.569167329693521 -0.3224381908021221 0.6783387750277479 -0.2771757194198969
P 8.622319799953921 1.588194778104143 3.553611374811568 -0.453992797814373 0.11877365319749866 -0.4260639326145888
P 1.8766692247806966 3.2285340192011844 1.5989749635092043 -0.5734642484098447 -0.7490538821551229 0.33573696479355725
P 4.675842366890415 1.0213703235839977 8.098561141256084 -0.5323276262705349 0.27138559510068105 0.7069086162456406
P 8.474560641042968 1.5806554940265722 12.473590577205364 -0.4674977742793433 0.35633407221861857 -0.8973980499208868
P 6.324288365060113 7.691637065489374 1.4762503711894006 -0.1337600993040019 0.7851917655282605 -1.3079829130632699
P 1.7123993039650995 3.2089336821010725 5.9453965544998635 0.43463779032652894 0.4521752849896599 0.18848268765786247
P 6.9622361016310315 4.068267946818383 5.9366295471011785 -0.18381047899317376 0.7194954517717157 -0.01534202967370906
P 2.4024284509739076 8.380071883607227 10.164624027771326 0.672004605279604 1.0458702586240827 -0.40642944621311294
