# total energy = -381163.99785058934 ev
CRYSTAL
PRIMVEC
9.27855241459999 0.00000000000000 0.00000000000000
0.00000000000000 9.27855241459999 0.00000000000000
0.00000000000000 0.00000000000000 13.58009934921810
PRIMCOORD
 96 1
Ni 3.8362731712761473 4.0901529227187625 6.0273235308007145 0.05416157364406801 0.38555774497042633 0.6583445912940081
Ni 2.731735733543825 7.831766302158877 1.8178456403355343 -0.1519588817002157 -0.2734900430381935 0.2816581806712827
Ni 4.129289856845835 1.5371499445305077 3.7425263889986966 2.090071099965542 0.13874161167899332 0.025694576552626715
Ni 7.6615141437194145 5.667989319631255 6.6427058911144234 -0.8464819797973099 -0.4303643597621556 1.3630070918179493
Ni 8.744590289693576 4.072672129950767 7.97988354593415 1.8086137224511563 3.0613341154966953 -0.1288210101311717
Ni 3.8629675666017964 3.30920500079527 11.063408171815729 -0.29229097779478047 -1.7137415584616031 -1.7609899499256056
Ni 2.7669200043380067 6.152042121071567 13.34506823504298 -1.7180949503342926 1.5407250847601401 0.6666006606552133
Ni 0.4174225886238298 5.006502760174822 5.947472308634383 0.6206871859525505 -1.577622986227754 -0.7519569147345307
Ni 2.030806047730307 6.6680316999574405 10.543073446829402 -1.2795889353016092 0.9699041875104136 1.2604532429134228
Ni 4.553301145546392 5.172922876462913 0.6697491103905627 -0.968119841916481 0.47739652145029393 1.0593456674026982
Ni 3.5402316776160316 1.0539043771511387 12.17515690049247 -0.6226823620057081 -0.7058871169596618 -1.2483664869522177
Ni 8.187292595413268 3.980935082128491 10.327692265107045 -0.33460516518195926 1.3167783998677127 1.1852325346062105
Ni 7.895426450344235 1.2852929175164607 10.658395647059836 -0.6782043063324127 2.2694032314723884 -0.10275979426774559
Ni 2.121123477031616 9.06164770459547 10.490206110824367 0.4265958938586588 0.7472584808175968 -0.7611192979600893
Ni 7.57902781266449 0.7911088646837003 1.2206427477873942 -0.6932434600537222 1.0469871458373452 0.03970014680309936
Ni 3.8030373964911375 7.73802508701288 11.341555977124953 2.2893660477475604 0.8529359629527697 1.3229343921667795
Ni 7.30183105897879 8.802182264593231 3.1384963375765174 -1.5930624607112758 -1.387829550178268 0.8040706047106346
Ni 6.381315151484074 3.9402486297465056 0.8811015446501476 0.5645142383054085 -0.535844895395174 0.4411889611814854
Ni 4.814984159578117 6.184071684041375 5.205360695739405 0.5680708453084151 -0.24643458158229814 -1.192184026223379
Ni 5.515672603028595 5.566862376755257 7.619047137127144 -0.8302590901805443 1.5808047263898453 -0.6949900104311837
Ni 7.432686483823289 6.520409930881642 9.028117799698599 0.1568213519988396 -0.2055365578163557 -0.462602650970571
Ni 2.032856607816149 1.1880536881063806 3.130158630367748 -0.8537085794527363 -0.4357647048421205 -0.11409038878921642
Ni 2.0006971451123956 8.340230975028378 6.599059580508984 -1.676990466984499 -0.8673901907048868 0.005078442964171899
Ni 5.74474150528776 6.760631653155207 13.347078897353397 -1.4601708800551563 1.7802462270520567 0.7676961798466586
P 1.1099375552434547 8.47303489588205 3.4390110213605447 0.16793340275160112 0.8917143692725481 -0.634404792648959
Ni 7.6719246795398455 0.4237700463375164 6.008365592486718 -0.59471724425135 -1.5668456931065917 0.29530482492043986
P 7.47571113141628 1.953599213004994 12.74101220367401 -0.6949689273852612 0.6439728959533684 0.5705990110469077
Ni 5.153604930314842 6.1602165257576615 9.756024876686718 -0.09958345342229301 2.347867900638195 2.2274507983000027
P 5.954492461398855 3.6859884576544806 7.031313935183577 1.0057906169943773 -1.3693420328970418 -0.7276409636969855
P 7.810546252763757 5.598010477244726 1.2753917742241423 1.539072893868698 -1.126383325678486 -2.284258037097034
P 6.885743654048864 2.483543734737505 2.565308194413794 0.3401847161522657 0.10826478324637483 -0.7930362012733438
Ni 1.341242588636955 4.477068558825665 10.276238052636282 0.29811761177888657 -0.8882089272224509 0.31704350214911203
Ni 9.059921893844491 5.515626210266473 3.480484294988138 0.4504909553087015 -1.2688183270486664 0.35586998809800646
Ni 5.732902072393938 0.8226457365197616 8.979487978585892 -1.3503870890610936 0.811869531929763 0.18940468525149962
Ni 6.31134558764997 8.32904104080428 7.5495572744533925 0.30273736993908507 -1.6816331079628328 0.25653953122678397
Ni 1.1430341517420957 1.7245303107458285 11.487052957695512 0.22935217217871467 -0.23935196370390388 0.7026727237874221
Ni 4.804684966386783 0.6731710405247648 6.643873133009442 0.05160949664617564 0.890414419514202 -0.6870535291929264
Ni 1.198297209983168 6.208260870212375 8.63582988173784 -0.82154870689074 -1.5371507371453204 -3.5934763652293014
Ni 3.4477616241522098 4.823056500187542 8.865848907765287 -1.034503668658354 0.6683179004566362 -0.108197163233233
Ni 7.8981729018619244 4.664773674375848 12.729672884755876 -0.20201337515444565 -0.3429409387411642 0.44490394813922735
Ni 9.036447156210187 8.825230188816 10.800728641253597 1.4229212516750784 -3.653771562574933 -0.29806207595060286
Ni 8.56516164290616 3.0828361572916707 0.8953608240163126 0.9145732761485925 -0.6565353059994112 0.1403179550271777
Ni 1.8167127290844873 8.473600887579952 12.836426341822166 0.038028158417315154 -0.6012139077192872 -0.9803086706731892
Ni 7.399738344163443 2.6237148262163297 8.450719049445581 -2.6177990226805368 -3.417401821427805 0.3872472168577073
Ni 0.6793366386109287 8.37303065784943 8.781625631696471 0.45413343715729537 1.3321289141818542 -0.20599627106159363
Ni 2.805973431493257 0.6186029458602971 8.01725569939006 0.10365299550597633 0.2501662807105885 0.8198288959861558
Ni 4.065240009458642 7.61513066014871 6.827449292730666 0.4888991227732548 -0.43648384239633214 1.0389151674624881
Ni 0.35295798994325617 2.450270845742797 9.45898779435144 0.9580737705343888 -0.6997825467238206 0.5937674787435709
Ni 6.026642485052746 2.5154619550782185 11.075440598599982 0.10948400036545661 -0.7364662752980994 0.405861746635101
Ni 3.155941871845299 3.55119892658194 13.196271801230223 -1.5610864220253116 -0.01408630288973703 -0.11349003620105616
Ni 5.431757374900278 4.139004501234418 3.2156048196461287 0.34214466809211397 -0.25590652562847543 1.403503766380415
Ni 8.096548352700427 2.625737550644898 6.1002353236086675 1.3481954807264136 2.991166139122042 1.0284741746348225
Ni -0.023090605563924144 7.1694910657463495 1.9495862390813434 1.8856704555258428 1.2103619826839864 -0.10487246973537423
Ni 7.429466826131945 7.152938128220817 5.0591167916986635 -0.8854074532179139 0.7906612732832642 -0.46402369968781376
Ni 1.6655001602203583 3.444801765928754 7.816230293979082 1.41621015820349 0.08863826726469896 -1.0032105149720272
Ni 7.654796471763986 7.769896914591471 0.5106237920187126 -0.6889597450767038 0.10901965913452837 -0.7001175614657362
P 9.019216884357656 6.248038024456746 10.4038905211838 0.8303807033600732 -0.5689866722544652 1.0787466976371292
Ni 4.1545460765456665 3.2023067983111546 1.6156650551476923 -1.2045163225364868 -2.2154308910209908 1.2179385094796638
P 3.8769503451057075 8.160783771136112 -0.03374795087884951 1.114456492333913 0.3617866106927576 -0.08475513016020886
Ni 6.508134406023861 8.536862058011051 10.451393926032157 0.1608099043329424 -1.326311536169129 -1.9794257323021331
P 3.353092553763751 1.4980965173752567 9.873465370435694 0.05550934592121408 0.7824694815010912 1.2540468251664467
P 3.977743260094419 5.6159737547388024 2.7457055220743416 -0.9599954130371336 0.8907455776013756 0.45787439225696636
P 4.084196092062153 7.971965229294974 9.145572211276212 0.36926697823020277 0.5567315090361961 -0.7424502607956762
Ni 0.7284053352533206 3.8525291951240925 12.51700846318345 0.954023254614099 0.2614824770543561 0.47639250566581176
Ni 8.740173698739456 0.17349408465662589 12.876311127274665 -0.3677862799196182 0.2511289017341739 -0.3797730199678492
Ni 6.876474380176662 1.8699530628969911 4.575827615122899 -2.8257411046145915 0.07913315598774114 -2.748614694644234
Ni 5.402214463980269 8.932731497207717 1.5724938064263927 0.4200550074163476 0.8434545058248958 -2.591448043490834
Ni 7.161335218165103 6.674842157437116 11.698372917021612 1.4101405549706423 0.024946642643008648 -1.6959387259522276
Ni 0.5213247465300337 7.206039283746952 5.059618761384836 -0.6267789006725851 0.6324067883823238 0.8820663046598227
Ni 5.191767616437327 2.1707730110557892 13.236414530440126 0.9640978652412816 0.16422510066207846 0.8081625153918209
Ni 5.863655433161767 -0.11653305132184717 12.365169592030657 -0.2050040823516534 0.5795796172789631 2.502535696629142
Ni 3.571890098488856 5.403012419488788 11.512080925005698 0.14861850447307307 -0.22348208655118285 -1.1484145944469124
Ni 7.019800179479859 6.424859398012844 2.8975991366864386 -2.09878791101325 0.3806410243950993 0.5521012093530362
Ni 2.6246983527733403 3.430345781251187 3.7147547537365484 2.1120208647637564 1.2012397086677442 1.0778000174531437
Ni 5.653867362840974 4.795861063030963 12.135393664076735 0.20240289728338043 -1.0680239119029864 -0.6985299052636421
Ni 0.9511629661532556 0.37383844431963437 0.9568822658677949 -0.4134488149537396 1.0506543102762875 2.2155242220657456
Ni 7.23881113091073 4.619188146313661 4.5410089192942475 0.10631768682233303 -0.5906117067234087 1.0292755874901949
Ni 4.392383210846104 2.7590332347770747 8.325782413192751 -0.6404304300177487 -0.9474191190340199 -0.6746654399412186
Ni 0.6069537232911792 3.292373706696999 2.948307353542262 -2.5150559405833395 -0.3981142414791982 0.979372532012165
Ni 0.14572708867069026 1.2794845436986448 7.5403362490538 0.3899733575396187 -0.7069721224937244 0.13037164244774324
Ni 8.855376205643612 0.9931298587698388 3.3402157787088553 0.8475209625847855 1.5438245496210703 -0.7507523529034683
Ni 1.9887463695894771 6.42605633127562 3.616475398599668 2.0356020223833844 -1.509951293912393 -0.7913163903687597
Ni 2.8277316369290046 1.8901617500778265 5.94539484074651 -0.7533383684630897 0.0008698041994630181 -0.5689571045681105
Ni 0.2748901055529383 6.405652794493867 12.66480095762386 0.13163353987930235 0.5802596740651232 -0.11956272475769732
Ni 4.994162285450069 7.761063732683226 3.256140959478835 -0.16132592473741247 -1.4949396509949093 1.7267140594618715
Ni 3.2810538727389553 8.670287641877174 4.485289356273883 -0.8207478082559995 0.23421515669797083 0.558241260812503
Ni 1.4154246152718395 4.940587923750279 1.4542655635765662 0.046891265234899886 0.3007715044619658 -0.49301520182415737
Ni 8.71286691895378 7.898850236188922 6.989772000268042 -0.05663060400985086 -0.558967083234934 0.6287990164264073
P 1.7801552325314611 2.677883015271296 1.2699610374900088 0.6180960281866065 -0.5726844328210265 -0.7523950307132139
Ni 3.348638848599931 0.7803373931739521 1.0484949810875819 0.20804955404619652 1.2404171501981538 -0.1974249844528148
P 5.846304540127717 8.655896607066577 5.308515002320184 -0.6155863743908753 -0.6181165970118967 -1.1457313911877947
Ni 5.950391341227171 4.116930825016233 9.548887688793641 -0.25858612934316755 0.3541185526245385 -0.8556585040902555
P 0.8672022731180578 2.743009174739745 5.248260082874664 0.6454566795877464 0.620506437400312 -0.40266020897866783
P 2.287664214501227 5.802574722550455 6.580359585952392 1.2964353174349867 0.42647993710608484 0.5095656499836707
P 7.8544152486273875 0.17132475909974837 8.724630267717723 0.6574711875501192 -0.3483780505963355 -0.3974385555684123
Ni 0.6355659954029983 0.5757230436851307 5.323860800175273 0.9027899103604194 -0.6441060790971229 -0.009282196632874336
