# total energy = -340891.26309979794 ev
CRYSTAL
PRIMVEC
9.07780108248827 0.00000000000000 0.00000000000000

0.00000000000000 9.07780108248827 0.00000000000000

0.00000000000000 0.00000000000000 13.28627948241852

PRIMCOORD
 96 1
Ni 6.339082983999851 2.18282082222357 11.387059364664273 0.3807950334744603 -1.6675961702537925 0.5355373914570841
Ni 4.364370752291323 0.4487365879571074 6.119939418451873 -0.5060586652716769 -0.8189958585618992 -0.16341648871785405
Ni 2.7354047315728223 1.5563436118146692 4.5360955159455445 -0.37773876314663973 0.7382377653762253 1.2852605317650898
Ni 3.368554125799762 4.364969887164779 5.146692928867512 0.042758988234081204 0.321658118102988 -0.49031477217385877
Ni 5.079901191618546 4.603970234867288 2.829340001929705 -0.003713701406161346 -0.7737393007169449 -0.7105894075313375
Ni 7.325939820792901 5.826350621536576 2.89226368812443 -0.1405113019849064 0.41683932869252727 -1.2529389368142487
Ni 5.335559304363372 4.361157210697328 11.828681679889138 -1.5026843279373348 0.6341800782326626 -1.5593522129430242
Ni 5.564737471261638 7.821097560301449 12.546300013472349 -0.3931728383135229 0.4864059240377558 0.05902918614901447
Ni 1.8401882970152939 6.5422532507094315 0.2929569819578328 0.30101627348292026 0.3195410717599852 0.11029029831683586
Ni 2.9913714895554886 1.8117293905261052 0.35988307066326986 0.15724404135855502 -1.4578558587687345 -0.5698701033006831
Ni 0.872957666228504 0.01851871427047698 4.6425581518383385 -1.2269720804368416 -0.29083701895707337 -0.5676203880345578
Ni 8.566294253665887 2.1352440665904475 1.3639958995919819 0.26874481504372427 0.7945629223305154 -0.1791380132181689
Ni 6.6173357437148805 0.7945781158588215 4.820727246502664 0.26615854237378683 -0.6059797045390467 -0.12643631194907903
Ni 1.0294408018140344 7.428010616507237 2.3852458014617755 -0.011482803828618934 0.3770239964678023 0.8416832728570859
Ni 7.3415445609061125 3.618375212428942 3.9427831441228016 0.32964036497751614 0.35137030045544004 -0.17780721022188734
Ni 7.510654917839797 3.9038720574321286 12.4562727364946 1.8671351157258167 0.19122785450316745 0.849455203493021
Ni 7.959524949473265 8.782255142143656 7.047707032240321 -1.0655803354585003 1.0563796427958387 -1.195889500099424
Ni 6.911102465531991 0.4273138851105885 0.34953528517458515 1.16251349574214 0.5511982379227927 -0.3226842453746571
Ni 2.0929415134039657 6.504017552421565 9.385972489602096 -0.33641933557256254 -0.22428838450256214 -0.14639732845203818
Ni 0.112825266692881 4.773498170652169 1.4451623349033487 -0.1940090167927304 -0.5300606846132291 0.2632069159446306
Ni 6.262402797998519 1.7091502379494434 6.962501883213789 0.4025416811229326 1.08321090405607 1.0712473039362906
Ni 3.5096049994932286 4.352360821418852 0.46020729744346756 0.43940744380103036 -0.5667798944111336 0.45136718726606784
Ni 5.700850021149643 5.752974755140368 4.887570727217973 0.5603657633546737 -0.06429557675427636 0.0299968034724064
Ni 5.224238229314912 2.719046533967234 9.353261541071587 -0.2687939231141049 0.7565895284105356 -0.817285817849328
P 0.019199549353950397 5.461786128839343 12.501737995588845 1.1538216243950967 -0.7846798588888486 0.7474808812410482
P 4.050678257031223 6.127887941106397 12.651726872258152 0.02694567535090843 0.10759835330696953 -0.9006291552636747
P 2.6427203822093075 8.726009086447638 1.1846485063431913 -1.5011650630793307 -0.3163001962251843 0.7641938231203549
P 6.228660611261576 7.880548079790348 5.658187987039087 -0.16019643911865958 -0.6763220017080352 1.3497677103095398
P 4.992227788469396 0.9670763081678694 12.710584611334374 -0.581518743283205 0.7943837164401738 -0.9415027535495849
P 3.9663727180949886 6.189989178520285 8.302782027398115 0.511669326590235 0.8953658499822064 0.044076164383607966
P 4.571317384263903 0.9539498077585018 3.779534323367768 1.8776301017198695 0.4376349252816399 -0.3719026160808369
P 0.29977713393401384 5.679190387694075 3.6735637042952973 -0.5970975715580685 -0.5387654114760786 -0.07795044853354963
Ni 1.4638317406723014 1.0090248271109448 2.4987509954580185 -0.11370420909439127 0.5606259589945957 -0.4697981402777457
Ni 2.051628440538799 6.442588072290037 4.656070458795008 -1.4484620762586602 0.17044742742270647 0.8945364121023754
Ni 6.185259644140424 5.9471307653447605 9.095148790905814 0.1701592067583263 -0.029076348540666055 2.058336487866423
Ni 8.49096666003039 2.7026792585605333 10.393125474123545 0.9976659310047142 -1.6367205637208586 -0.2453827432790161
Ni 2.248689347099345 5.163062927614546 7.243519741147832 -0.24786925714629565 0.049768586782694926 -0.35527632037806556
Ni 0.610254272039896 0.3950087142898304 8.834738449278344 -0.21027355828070882 -0.3782954069810582 1.4172514549838109
Ni 1.6257161679200542 1.1564664727879483 11.711842209544098 -0.9200178442029316 0.8394384426869672 -0.93409874777603
Ni 4.026168194026181 6.867928443438664 1.4410827710831762 0.2832080416569058 0.65796458224677 0.28550917898625666
Ni 5.604743340766535 7.982473630686876 8.008305421533969 -0.5698122534795541 0.49989855920755194 -0.402800591211274
Ni 5.1472040090701725 2.8846800930746475 5.154133094659709 0.10352855411297009 -0.2237047440849502 -0.7647975181426248
Ni 0.4453187958380708 7.273687997586595 6.479279636608586 0.7572130209271475 -0.8346929575821819 0.4296488217523697
Ni 5.2718694517547116 4.696400405799639 7.37310081313505 -0.7006742053001546 -1.3065438666238984 -0.7135829429420227
Ni 8.209055546466828 7.623873253320869 9.062212712907703 0.06622081880144724 -1.3682282310075726 0.43992912063245526
Ni 4.625157822664981 0.43199349158432915 10.391850043067173 0.5107627556155655 -0.8029390622093526 0.6877184164704349
Ni 8.07427743334243 7.430879201658938 4.55019243329389 0.12351348187532922 -0.25719850496702157 0.4133261733329462
Ni 7.191007385049583 6.247823849411074 6.934229071647416 0.6734109987088273 0.10153697760423804 -0.4872286770493674
Ni 2.3371071299397594 5.181808586912848 2.489715860010271 -0.2776292620175477 0.05513807862472439 0.7200274130157857
Ni 2.3291822095681285 5.125735009437976 11.755673464438006 0.04696299901309977 -0.9226935912628819 -1.4167937986211019
Ni 1.0490942412236337 3.281570635535198 3.8894919126890586 -0.6507634365126406 0.5602932582455253 -0.997293892377276
Ni 3.8118957765554264 2.521940238401123 2.3969507182168504 0.44472808468299535 0.5643298902087441 1.3629361293706979
Ni 0.9643892790384275 3.4213596948739604 8.480645200164933 0.9479076286346643 -0.6498396391467904 -0.46609626594612635
Ni 3.5715882254926488 2.781392872011173 7.2414872214786365 -0.1286420613511462 0.12740998871625797 -0.17337462837183043
Ni 3.907938912330743 6.846468521607581 6.086152750489476 0.7871882271329992 0.4754321986350715 0.8015403820896132
Ni 0.896410165403885 6.932743943385333 11.27158791894696 -0.364334831035908 2.302291497559977 0.22310490571742222
P 0.21839373917604663 5.925480209690306 8.222612334648952 0.24560977168815767 -1.1473622419229983 -0.9798229892860221
P 8.355898057270375 1.7896975672249051 7.74441283539956 1.0283265933133645 -0.5204064493529166 1.3180169002605042
P 1.933126824809972 3.3242181451639734 10.483033831906711 -1.5421055100474346 -0.9135054970057105 0.651926089362174
P 3.872272231757849 6.250420100529387 3.5931416486751946 1.7483203248777375 -0.6678188493330306 0.9640749824231459
P 6.768980411307193 4.042535469432882 10.115854024708828 0.20499199816679534 0.7405980380782858 0.525953347313075
P 6.495947387232127 8.134045675870285 10.338997269427185 -0.8119160688969823 -1.4810261262376105 0.567970315174809
P 2.257104468731076 8.310100550655397 6.012293945074058 1.0212156933001961 0.372752622785958 -0.2532786010873251
P 7.071107787949358 3.9323037305179787 1.6262009224994873 -0.05302540315709578 0.17099507239606035 0.6544329149444278
Ni 5.55158373744893 2.893857749999869 0.5966548181925423 -0.6569839635010557 -0.3885481950573179 -0.7038430899464394
Ni 1.4917459790947114 1.1716264006466233 6.865259569911448 0.14363107856081073 0.42133567390098403 -0.4193854921531487
Ni 7.028296877900549 0.7669507359515815 9.15117788715523 -0.6284660585670209 0.7221897107744272 0.5901242255640289
Ni 2.7305571857784914 1.5337489648444649 9.27741015831187 -0.31466934548998066 1.0366525966805566 -0.14544344917920113
Ni 6.452038063248647 1.781109967372027 2.6333402903192664 -0.8523458947772545 0.3350993312095583 -0.3704417152645943
Ni 4.302033492048497 7.07096254313155 10.660658258504258 -0.1603249942767239 -1.0281805546538034 -1.4027339780939263
Ni 8.490794181809243 6.987655562317743 0.6358427778171609 -2.049811738224863 -0.7070335718592792 0.4355767572010305
Ni 7.797150320965411 3.915373631442273 7.946975797214683 -0.5425217931947173 0.56077842541206 1.444070632059184
Ni 3.119622663679655 8.459684557395063 12.344986157090371 0.15957526059489294 -0.30558769490368665 0.40084115349205807
Ni -0.08883263835127772 4.9591482812137 10.189168162057468 -0.07449462877446525 0.6600572031097407 0.12498183889073958
Ni 8.436000574291302 2.319178472741626 5.677028055468964 0.9427615656573505 0.024831714331699166 -0.11213043684936817
Ni 3.7657987025037194 2.511709556546796 11.376762414861822 0.03647752610074363 0.5626396469905148 0.671082864796283
Ni 1.1167692485208915 3.2441428615463863 12.923272044730801 -0.7749680309177233 0.9072330337334374 -1.068292849293657
Ni 2.9028810843061703 8.417590793634181 8.149099393455938 0.9629110440220322 0.03812945988186981 -0.5206733298610581
Ni 5.852204199106341 8.003561362672325 3.3633416524006896 -1.3594430286157748 -0.17768611126299078 0.9676364745221594
Ni 3.1728730450083886 8.29593918091915 3.534362886468656 0.104068228666524 0.7705729871738214 -0.33232048291284055
Ni 3.453967156471781 4.417920701056786 9.541993565110976 1.0935112575408132 0.13596841980923036 -0.7509253881462228
Ni 7.420630364202384 6.543369820246328 11.696045020047292 -0.5803470915726069 -0.34814305176739396 -1.0807493298894548
Ni 0.39216463920113415 -0.15479648013873898 0.3400980031375323 1.5084022042577183 1.5814989242433923 -0.40410542606562666
Ni 4.79986010508426 0.36640547076294516 1.550123502492056 -0.8094023013361932 -1.0514009586343247 0.037762306350438195
Ni 6.038571455955797 5.5898920581457014 0.39303066142731236 0.32048595217175774 0.056173976088406484 1.0119136991729798
Ni 8.436436308744724 8.827172102050676 11.17748107814904 0.04696711277815782 1.2152789603696297 0.5493164475190475
Ni 0.08702161702923843 4.854935124436703 5.877809952705721 -0.05191160126762673 -0.3122720489023977 -0.4193626093350133
Ni 8.00363398508123 8.732245535812256 2.5499824738192265 0.3641319709964826 -0.03497420208233976 -0.6757134215897588
P 8.409783884677019 1.5391593343078003 3.536276486943272 0.9423059661771707 -0.0265011316143221 0.7199392241773537
P 1.906837512786785 3.2678994670590518 1.6380519918524812 -0.7581046795034815 -0.8527328458030281 0.5849012866021928
P 4.672289766043567 0.97021722735296 8.297693012094177 -0.22509185424046396 -0.1927790010403712 -1.3084716797742304
P 8.65620079588883 1.6738103582166164 12.46065640665206 -0.9450375061757208 -0.8635782731579643 -0.25484594557444495
P 6.264045879999967 7.515729408661952 1.355851296433417 1.6916573249680547 0.3548330621930599 -0.23588637375280666
P 1.6953610580588285 3.1230722281025867 5.97242151924552 0.5492935647009121 0.995404388664047 0.46033185265852333
P 6.902188064839047 3.9705575844080716 6.067577753852099 -0.9022116692594463 1.0034995069673556 -1.5335861597225138
P 2.228781729258582 8.718374655711624 10.285241254576459 -0.18302115032265898 -1.198542364341239 0.1529508132998398
