# total energy = -340870.1557694794 ev
CRYSTAL
PRIMVEC
9.35251049960511 0.00000000000000 0.00000000000000

0.00000000000000 9.35251049960511 0.00000000000000

0.00000000000000 0.00000000000000 13.68834448241721

PRIMCOORD
 96 1
Ni 4.377881981724659 0.025854079283310186 3.0915807460634745 0.6473960627023043 -1.0082514198300443 0.6094303820918084
Ni 8.956936458523838 8.027007013718883 13.205678978975184 0.2896440270902367 -1.7375008656647302 -2.2937276671503657
Ni 2.8617278431137563 2.640540976144328 11.26315325143112 0.6058048695240793 -0.10878851696032876 1.5274836463692016
Ni 1.792277650678784 0.918060174070455 6.469070535649802 -1.3197184563326432 -1.2488534538909652 1.0511307356920736
Ni 7.590216728388095 4.016884439308044 11.334072401263784 -0.341830736396121 0.2336970794109717 0.13663690663116468
Ni 6.208280464106081 4.494797712125709 13.657737237258514 0.25475827095664516 -1.0187278938813358 -0.18864363871575898
Ni 8.76553733664099 7.966094114582652 8.51399970346906 0.5572701551484854 0.6986224649774484 -1.8563655359141384
Ni 6.885149687073455 4.401721530304155 8.728879237538523 -1.2377622290738104 0.7614939076906885 0.5100762710715021
Ni 3.0612636488978042 8.212233478849097 6.17256696853697 0.34533283601210846 -0.5669202766437398 -1.996338963117704
Ni 1.4579908774826635 1.212216261115239 4.20562090152805 -0.21023884838803147 2.1230305856106986 -1.2068735099147538
Ni 0.9141854290816419 7.106196266389413 6.335266977524157 -0.4961843435807583 -1.4470148022891722 1.3857996642324326
Ni 8.890028600329366 8.470671394069655 10.811903050031772 -0.3851754219303431 0.06976662717117663 0.09670484632291733
Ni 5.539996845531009 1.4001736592329805 1.486376681285577 -0.992763351496774 -0.5224702738604808 0.6251254242295621
Ni 0.643546229013375 6.430767329997655 4.021800118685597 0.2508368244150519 0.28897888270241195 -0.2571182865483894
Ni 2.1018270343132075 8.707533068186683 2.994133200959827 -0.030697429083856816 -1.966255513468762 -0.09944949894759002
Ni 1.7951021087686263 7.818483445602589 10.555958514038869 1.454183809233786 -1.6164376451021063 0.2975000327995457
Ni 3.486391353970206 8.153929930067386 0.8954158762985152 0.5977202927437318 -0.07664741345140993 0.8590204785839529
Ni 9.011994686255298 5.374420004396685 8.089127321925973 0.5164410369472654 -0.021368952594079324 -0.195223863036438
Ni 8.71040428882768 8.562335346846286 3.2628766472042163 0.4216961425641963 1.0344075094001217 1.091090821024779
Ni 7.894481943741853 3.944009679586024 1.8475435041373778 -1.25649657225852 0.3997823732102405 2.9245084898934928
Ni 7.556398051391838 5.97612310263538 5.421926080116399 -0.23314583489319202 1.0465803973172298 0.29790909531250626
Ni 0.07196195472344881 1.941207023601455 1.608270752882729 0.8443325375544749 0.3441287884016783 0.6407865278055868
Ni 8.874372498202227 4.312423762616032 13.664457951110702 0.42817789363379805 0.2587900178238575 -3.078055027795802
Ni 7.393982358715682 2.1130406940804947 9.300572936198154 0.7617237643133076 0.4875755188658248 0.42668485402803935
P 1.5493274924012017 6.2960631251367385 8.934012520695983 0.3267982675430307 0.12426244422621181 -0.33470363843303647
P 6.686539779802302 6.618537677910772 7.575745589307257 1.046299118631385 0.15455338190026932 -0.21554843352640296
P 8.92044296360144 0.8917328577694429 8.196771908934767 0.07602237827290133 -0.5365295801670243 -0.7625334046987965
P 6.720077881491619 5.563144308353391 3.2395112708934457 0.13479856787084527 -0.8460117250291108 -0.25023132962056904
P 0.27923976847693854 7.166856647749401 1.929714659029276 0.24822844025792734 -0.10602072440720452 -0.08329860021934041
P 5.783545564463393 8.41255489549257 1.4052866765764132 -0.4448535545172661 0.5356420353557485 1.7626190008885967
P 5.1142986373345005 5.419115650791903 9.672526009099673 -0.556011600151036 0.651939973319245 -1.8311864655453496
P 2.876598334381468 5.722791658001092 5.299237045149589 0.06775679582999944 0.4132600959817011 0.09625644593158907
Ni 4.260723086057597 2.4955957725801765 3.4452739779894705 -0.8003293925006475 -0.6276998698249576 -0.8122685671403945
Ni 4.866550641308279 7.977653817228496 9.928251696353163 0.15585950230620255 -0.3386770212584877 -0.060141188266270615
Ni 3.3160634376384 5.760669324437717 10.907775632412473 -1.1245544999998633 -1.5638141053691197 -1.3954436150801
Ni 1.581219552289817 1.9901300046212045 13.305426306344698 0.735445804453385 1.0601465660374387 0.8438157458190565
Ni 0.11007811017097112 2.4682116226230315 11.540177410234273 0.1655394485981278 1.1716897629247691 -0.9922275335979622
Ni 7.7494712726060815 3.13055639720125 6.968954725502756 -0.09615591579798279 0.18472527749795928 -0.24851511826041067
Ni 3.9726377134039277 7.50748442288232 12.146064821550432 0.07565213941767615 1.0424128962031016 0.4651228462892635
Ni 3.7578853734736106 3.0495730111087225 0.6053122319369387 0.1806135693224309 -0.035828065442202815 -0.6594432236748256
Ni 3.445932394709752 0.4597937194956104 12.7594258237924 -0.26328302059820463 1.187191458104794 -0.30027039645583126
Ni 6.665870732191205 0.04706370198577395 8.623698101724642 0.5119187235968796 -1.3069835252644781 -0.48327123506351605
Ni 1.818212161550083 8.533426737721445 8.244557624710396 0.34505541398100575 0.45980400517951137 0.6135246067658401
Ni 4.974319616703149 4.343174816256433 2.2000592550252582 1.4839106468742573 0.13811554805922022 -0.05560859050323971
Ni 2.833576787317647 1.1191868418448414 1.5824550188913669 -0.232929862227644 0.972742685400473 0.6929020175539035
Ni 7.573541202645748 3.776225646037122 4.451202856184711 -1.7000632896435626 -0.713739523124545 0.029039067544827407
Ni 7.698500091845685 6.669761376447412 1.1124361999599142 0.04213703837936614 -1.141899419036214 0.8229533005477505
Ni 0.9506733124979009 9.074254346864832 0.9501028093737937 0.8653101682474065 0.1672029523434798 0.3468469586637898
Ni 6.343377474396711 7.700660521709107 3.5831290435473 0.10980564537093347 0.3762410955551907 -0.1926761569139198
Ni 1.4596462717935972 1.6963115431957694 9.359870656817447 -0.7123357007984829 -0.8736189452234181 -1.1964042349523136
Ni 5.192476270357648 3.6075063614650937 10.91259404568362 0.14661407244853458 -0.7705953557713244 0.2945738602916862
Ni 1.4154743659713307 4.211313774505822 1.2660025474552465 -0.47540005984555544 -0.8299081345990288 -2.098175474240232
Ni 5.265229447446662 1.0674487552454812 10.228218498004633 -0.723567050737928 0.18883955677664896 0.8615203621876711
Ni 5.755525443810521 5.835807391635703 11.60417009098966 0.48579143038220846 0.6058174679295696 0.30499145608058437
Ni 4.3185496568175115 9.330054854200172 7.728561865482042 0.36447881281294003 0.41975855922185124 0.9919588533176078
Ni 2.5053691457718488 5.15546838737253 2.858482522063507 1.1790644581222856 0.5177106476883084 2.1556673978091134
P 1.8308848129134478 4.410615767534088 12.558344048067124 -0.2423976925087632 -0.9996022287954784 0.11126140398085353
P 2.9853586758608537 2.571285637881808 7.255753192748602 0.10040749198548514 -0.32130819096273694 -0.5885687081514509
P 8.02594082755252 1.8990084974379853 3.1630208307160186 -0.7911860354384825 0.14084040318955102 1.1797522282179296
P 4.130133985698438 6.130308586308022 1.5292345594203511 -1.2101681215056257 -0.02233028806608412 0.37987637831493287
P 6.803249754978263 8.63500435134322 10.937369780537267 -1.7503561243608436 0.03781758506840584 -0.5907379478886279
P 7.76098421270077 5.888780009585591 12.51551329221202 0.3504015087842675 0.6554826963651809 0.7455677233787353
P 9.241168596962225 4.721792487948752 5.957578010097803 0.43397238882838807 -0.6903170304355466 -0.5168038196033228
P 1.1177652602896893 8.605095023623631 4.909474922265694 -0.8420059463038273 -0.21736028992416115 0.07834639842038765
Ni 8.625913711398429 1.582388616068725 5.437352110491848 0.5225751748694614 -0.6873990854578033 -0.6264693398519663
Ni 7.620902314456876 8.615504367511031 5.631562596950213 -0.491126983662509 -0.23674023711266973 0.3960213635059115
Ni 0.4228802968638288 3.909293161607567 3.9303755901708857 0.8139904349275078 -0.2890840408217086 -0.45808882226061753
Ni 3.6325149738234974 6.7080692583546755 7.99872876378363 0.6655976733119956 0.9608438770803581 1.373540130138789
Ni 7.16514513837708 2.2872218446275823 0.32995656095904474 0.4008555516697612 0.5391976139174907 -1.3587943392881825
Ni 2.7292027731367248 4.753787425449911 7.340401827600763 -1.2990015355002662 -0.7131898212686621 -0.31564353647779186
Ni 4.020054940276443 6.8076454347869575 3.6042367238882433 0.24274350588395616 0.7737385293859965 0.5963465523246568
Ni 5.129795746787707 6.697089411343169 5.931789398386112 0.10177814708076666 0.24663307074634944 0.31144081125035394
Ni 1.3981441645127957 0.5044547616029722 11.335537004366 -0.2604226683312741 0.3322996569772342 1.8037543374763259
Ni 3.825083159485253 1.416783717403708 5.5361277120483345 2.203546737988895 -1.5086099493931502 0.0998639607771893
Ni 7.720459785868696 9.158436291456452 1.0581009212693313 0.21890912246851973 1.629143008483917 0.3956578095189057
Ni 4.651377438417555 4.476420029521272 4.595806693125422 0.40876657898672186 1.2044697855692676 -0.24960449466984752
Ni 2.550822345495799 3.2741267817614057 5.228002715722133 -1.0474466019722672 1.491048543470619 -0.6212726261423752
Ni 7.363409002769676 6.634277952629991 9.72874394809981 -1.3574162279937334 -0.131924845867476 0.8181862181764102
Ni 0.2076958709608273 5.982248996836858 10.99060426877363 -0.09873318960685576 -0.7395402862377328 0.2028484694612313
Ni 3.7579882510861546 5.326329396787519 13.267345690436056 -0.910365151604516 -0.8704521174596622 -0.25507065999074136
Ni 5.4505962002303425 2.30139089762795 7.576977314904715 1.2163246280253248 -0.7866575514405098 -0.6502818688905316
Ni 6.247916402466184 1.271773046267937 4.392288588484901 0.33448869420875293 0.2069635200708694 -0.03507936020163636
Ni 3.901577340666773 2.687499930015512 9.074016793104958 -1.2090185812822145 0.44813042549632504 1.3616251238687582
Ni 1.726071230751656 3.9341614863125014 9.759583850587408 -0.5107830673305397 2.3024982142541446 -0.654645545175866
Ni 5.697923333296157 9.183080155915837 13.087015264411912 0.8342931510406019 0.5721650699824469 -1.0852839845350146
Ni 5.594362987505355 6.73308722322331 0.04934945548629523 0.0565742968506187 1.399706504121512 0.18851456933706243
Ni 0.7286540721178905 2.784251648357953 7.245938668511913 -0.3157528083621465 1.3340294736386766 0.11970053588714225
Ni 7.35649749770877 1.2452119172111435 11.716661148800297 -0.2955223402478846 0.09235453977402158 -0.042936394352209924
P 5.913264881371044 3.6398473418448094 5.995959776835893 0.1969084498277125 -0.38018285381175815 0.2672995979567655
P 5.066675655236897 2.245556411547295 12.666112088210973 0.4597608106464018 -0.6681060415561462 0.5761531080959175
P 5.173023049076616 8.843387631806044 5.272873254058675 -0.07990063028138497 0.2787744313655844 0.018467976897200453
P 2.1310910388268374 2.9695061710188586 2.8571273433309967 0.7606968657106898 -1.2684290620300478 0.04315236701775794
P 8.93078683991722 3.723019215331453 9.67121198141218 -0.3270803175598238 0.11527875267036275 -0.21187021334386738
P 3.1000952713780183 0.4081108127066144 10.043001385384652 1.1659469469037211 -0.5538912113739235 -0.8490348281261507
P 8.943973879343304 1.262214780811584 13.295898904172109 -0.353515628933217 -1.3744739548069682 -0.4842477400441724
P 2.0429810399380854 7.98766100317595 12.963614503416501 -1.1852608167409844 0.6098366163912916 -1.0908794763449212
