# total energy = -340865.44176471443 ev
CRYSTAL
PRIMVEC
9.26516949999488 0.00000000000000 0.00000000000000
0.00000000000000 9.26516949999488 0.00000000000000
0.00000000000000 0.00000000000000 13.56051210092805
PRIMCOORD
 96 1
Ni 2.034621964283128 5.964814228497719 10.364231738542914 -0.6261754627606313 0.878303495183281 -0.41958603819972895
Ni 3.1971505811005856 2.0553110878503764 12.598244783761544 -0.4012093354647542 0.7808484009579003 0.16195970166666948
Ni 7.842567607417172 5.1107416357737865 7.106359089356779 0.114687398943267 0.6683410403850877 1.2589879712218057
Ni 1.4496098947982898 5.681698443077023 3.123772291432921 -0.342178606653843 -0.12179367097074507 0.4827690986161169
Ni 3.8858306324904595 8.083739970361858 6.757176159546929 0.08070795667402875 -1.3430712721259708 1.1689425391969352
Ni 7.907257021096765 1.7170304830300394 13.266031877854441 -0.7705853284689954 0.2367132405294762 -0.4697431186700943
Ni 6.10581157845132 4.135128549115609 3.021526513051205 -0.0004813105117927195 0.017519754051318216 -1.2730994709225236
Ni 5.318503797382377 5.930801791141978 8.79170083954996 -3.4790347637482535 1.5483085535343528 -1.8680938800946603
Ni 5.088171682791333 1.7394521932999636 0.4206961408505165 0.7420725657412833 1.167032466658416 0.005384147130048792
Ni 4.743711209892466 5.891804692577469 4.480854644172687 1.6578005243196092 -0.24942091790413173 -1.6697674668734983
Ni 8.595501609518587 3.2874489233694644 11.330200710234164 -0.38567858681900674 0.23011013339066178 -0.38648694165291503
Ni 5.825975663045315 4.263960731472345 6.827975952533552 -0.694560636203249 -0.8730494458731933 -1.3006557832742374
Ni 5.613108393024026 6.920442344473159 13.410045040491042 -1.6771910130310792 -0.16242301445633317 -0.018469776669413355
Ni 1.8435741685121176 8.717264467521623 6.060206560975856 -1.58806860704111 1.1690854925327028 -1.3572316227867527
Ni 3.9164149571189806 7.535075160955083 2.6288408327329345 -2.382481376947007 -1.460520807195407 -0.7070857652534532
Ni 3.629352209477215 4.256909937457712 2.9701585601261984 0.23487258777631162 3.326135886732272 -0.9855285243112316
Ni 0.5620307429751188 1.411872859290272 9.078410584232516 -0.05082813839546085 0.9819516055932507 -0.542321504258453
Ni 8.83715576127899 6.506493100076592 5.50334392956626 1.463981512050498 -1.040134641691886 -3.4731549079287087
Ni 2.607487396510168 6.7877002605734855 4.949221008787578 -0.36520386390442267 -0.37930970717818546 -0.30908619497524836
Ni 2.6612809708189213 0.24714654425958033 10.503647524057227 -1.3265105395538124 1.1359033493537793 -2.172960380561606
Ni 7.461898851983237 5.931598595721819 12.527987929709555 0.00378055008835478 -1.1411692257384087 -0.8490625960402927
Ni 2.9363916497630824 0.7123664573010565 7.868893660128315 -0.6827168494907855 0.6445429095242254 0.5279043003918585
Ni 5.288466117756304 0.8246751363125929 8.635036087916012 -0.057459270558733296 -0.21072247289266932 -0.07294039691346793
Ni 0.6256685599127125 0.8397958929904925 1.2934584335564712 2.1203746360450904 2.42471354614334 0.22937634054843078
P 1.838802606202609 8.260093207253487 3.508090597145915 -0.2058468899679229 -0.8212653713223662 0.6130749208229312
P 3.908307933777582 2.2889230724561114 3.2020574148852767 0.6536633837682548 -2.4599173477379828 0.723567050737928
P 6.642468728143292 0.44997129702402094 0.8775005004051446 0.3534942887769783 -2.296587505196664 0.9338637489470885
P 0.40304691940705395 0.9034059144194871 12.274378929700688 0.8474281457606632 -0.25635106936506175 -0.24485001070399764
P 0.3412991970541976 1.1467315027636473 6.796433609375316 1.15258081000946 -0.3126428019782551 1.1659299776228564
P 0.6292671517593402 2.8981079692526164 2.178835254581642 -0.09588029353909294 0.2839924852314141 -0.07853640294400668
P 4.717064582315482 8.003216381950322 4.712901741644293 0.2623525383641353 0.6245860067863243 -0.5379352022652993
P 7.212258124085367 5.207432945020453 4.487688633220247 -1.1175472154440946 0.8403090182173786 1.9784127176565862
Ni 1.7618646384003553 3.250277063202961 4.172542230206924 -0.23508136135300806 0.8710121037281903 -0.4797524232769802
Ni 5.734787864501266 0.00781795005196792 6.241334139727854 2.13671013998032 0.8727936211086452 -1.3139779543044405
Ni 1.4602648397612705 8.047040633841538 12.338194637893316 0.0015850850989327539 0.12395931116349618 0.784298821400346
Ni 2.6306410551732022 2.8392185517006987 1.4089237558279097 1.0351819256723012 -0.2365304350947088 0.4171668872352751
Ni 8.148466444719581 6.10890614507535 2.765923648558831 1.0493589885036316 -0.16439067970566526 -1.257654854232679
Ni 8.560238374275887 8.942454413021837 5.575160111650655 -0.4957986781065654 -2.3933571433192458 1.7364235734401514
Ni 5.036323794084516 3.33157892585527 8.745825279124132 -1.4448198515203827 -0.648203131984632 0.6725810466083643
Ni 2.188395983022772 5.63356588735295 0.7365392846127232 1.8324853868624311 -0.9126902001932669 -0.01863227038920662
Ni 2.5772180876457704 2.690716414425347 6.318385142598411 -1.37046251965473 -1.6170086871142282 2.0890539715549377
Ni 3.7365502209743333 6.4021580259651785 11.969687343988435 -0.9319621610490014 0.4426202943113732 1.0426594649962688
Ni 0.6356397353641559 8.31501713224527 8.041546388308454 0.9862036960013854 0.5080502417804089 -1.6641766030492822
Ni 1.5681114131257012 2.713962724783711 11.034785412258376 -0.24321016110772953 -0.7838900159977016 -0.40079795895894843
Ni 3.175877751852757 0.5161709333374966 0.7375899548377683 -1.272454381139357 -0.04036400563934339 2.097482047717633
Ni 1.4759229762720856 4.3251942369161185 8.116739724687639 0.30112014605063625 -3.597315536469734 0.3442388316169813
Ni 4.712154042462978 1.8803568915582336 10.881388485918727 -1.578768926906739 -0.17914289831417538 -0.00011698519383850818
Ni 6.762183983679529 2.0900832691078257 10.122203273933378 2.55179134833116 0.3516436087214847 -1.0218985782998338
Ni 1.2151733101041153 7.54816684550525 1.3990109509445243 0.8699157853402179 0.6942472187278882 0.8968977132457006
Ni 7.868611998974511 9.200294815956438 8.936458921817016 0.27791696846129554 1.441725014645143 0.5018132597317615
Ni 3.7281930380555437 0.7835961541540124 5.0929895709485065 -0.2283939220305034 0.8380842426519179 -0.7030275360236796
Ni 6.956437528108967 7.598208026153126 4.145014485007349 -0.9475175922850972 0.31564353647779186 1.2897188246467595
Ni 7.994673895640872 1.8799770196073795 2.738626606080628 -1.0820567358469686 0.3161649561989006 -3.4370080256945066
Ni 5.834499619015698 6.680641226619362 6.386892732642563 0.7548314080688484 -1.1928350295438166 -1.2683969232405317
Ni 6.254184003353209 2.557057078741904 4.8579859578789115 0.2990653204041365 -0.8758414067960336 -0.2630662766017082
Ni 3.4983705077888168 4.131478072319596 10.906177447004337 0.35614663879816083 -1.266051820047123 -3.165038790176214
P 8.448176148773928 3.5046337623931425 8.787822439583435 0.11971133452041965 -0.10316731411880942 0.29391848609587445
P 2.5885123293065293 4.201522753989278 12.650601330275725 -2.3894269550269045 -0.008726581239720454 2.3731760403856805
P 2.84543548045736 7.786717165472088 8.680354811652904 -0.8678460472953828 0.747272621884984 1.2200498993957116
P 8.312691574692481 7.231594532900794 7.275648560996429 -1.9967806786408127 0.8113974773893509 2.3536443981106565
P 6.363920671302377 3.696052164945474 0.6998501397788908 0.604644530667391 -1.7644100313507485 0.9996775621181043
P 4.8833187844161134 5.7904344727166235 1.8412736269170673 0.9960397082552007 -0.25123868783916087 0.009209434413409944
P 7.329842390629008 0.46813936796133293 3.9901397641271807 -1.6494683503048302 -0.8989188574407874 1.32747033236392
P 3.121843283136145 7.770428997433028 0.28517080002312184 0.9589011515316905 -1.5282138396670066 -0.665994394529782
Ni 0.9174852660418745 2.716686684626421 13.503639003562819 -0.19106381812147738 0.601141659720455 -1.9306814730188944
Ni 8.94185217700219 3.276367780607964 6.4484171644096735 1.3743880799613812 0.11648228606016069 0.6510879097315947
Ni 4.495988372087933 4.291385633290104 0.2666784481521539 -2.143948566710288 0.822706731754583 -0.4225289228781368
Ni 9.05355306089236 8.754677222095985 2.9037801060407356 -0.6941459172633335 -0.7096352711481844 1.605521769520551
Ni 0.5209378630622389 5.209165531723129 12.630613580042125 1.6144987762081808 -0.7818824986493695 -1.5691640568271232
Ni 7.005756025533268 2.1076037046947795 7.239442131495267 0.8663103273771467 -0.31400291555057536 1.1485266945447445
Ni 6.788209844897801 4.838012105399613 9.617765751292506 3.805523470470666 -2.7111128410440344 1.8084671695709629
Ni 0.6409421918879071 8.265995120246025 10.179632500766893 -0.48171443209935744 0.12253517712245995 1.391402869351823
Ni 8.932364643400371 1.707570744936819 4.847096604126746 0.8642686143567695 0.9463701089442151 -1.0672119575246524
Ni 4.943653568415183 0.17278707313836802 2.8991558599268017 1.436948676302422 2.8809200637795804 0.22721018613504743
Ni 7.24128590023234 8.231250734497175 12.346697283973775 -0.5893588081529141 1.2819160407728891 -0.40250311457551324
Ni 9.333175877399105 5.7545875317933435 9.0438718852473 -2.149575940199395 1.2638938931638555 0.25937828622715975
Ni 8.33586376369458 4.040466311996675 0.5332642446089775 0.7584759467999711 0.6792612868420173 1.0162136120999141
Ni 3.888999320470755 9.1016763514469 12.201369393780439 2.201886062457021 -1.5050003776650211 0.9492137490405975
Ni 6.264403485348137 3.555045549822341 12.06901830003506 -0.02557347759373015 -0.40030250737976864 0.1694495822858114
Ni 1.9765015558024515 1.136215535343662 3.2385075183451573 0.4967237610239961 -0.9161699312117512 -0.2226667897387391
Ni 8.672671206559166 3.7920578516466965 3.7452372439284995 0.18510014433887478 1.632362543862479 0.6250382638323946
Ni 6.306004096551428 7.9665911667862686 8.024134355205037 -0.08343846823131436 -0.02602727730169711 0.9438473425223616
Ni 4.452275302231112 7.8656100840458105 10.077195859892795 0.5392680621441099 0.39710534059870967 0.06103258973228844
Ni 6.8687426984788695 7.318992877105834 10.12667835081783 0.9082527332472036 -0.40747125721406596 1.3652110414478036
Ni 2.122187081539763 6.212008951638872 7.307190904154664 -0.6564977678932564 2.0394651048832166 -0.4938292130850205
Ni 8.688811131885698 8.659144059040946 0.4136916726835483 -2.1856690863775263 -1.8512693523381536 -0.4269486492123873
Ni 6.411766006770927 7.60645402703752 1.8868100821379867 0.007729507433773785 0.6780274144349161 -0.5681911729363635
Ni 3.923345303929685 3.970569873039522 5.23361168153602 1.0815137188593051 -0.4687339606792895 0.37139019522079264
P 2.7182247027689033 2.5987966674881893 9.158756281389017 0.46352953366021465 -0.18093058634221745 -0.02318209454341814
P 5.221886609491975 5.167815080097231 11.167447815700063 2.852775225914248 1.78665547301251 -0.6260476789335153
P 9.088529075879535 6.516110346051874 11.096770322951278 -0.5184886635049135 0.3564402587791797 -0.6825834092367148
P 4.039641711908236 5.483961194903167 6.9662789911869485 0.6021387335264018 -0.2585208233228709 -0.581069314450612
P 4.947720977840182 1.951263233994487 6.598925210888925 -1.3779678268928397 1.4039912475397949 0.646263491759758
P 1.1399771941740708 4.815432887247626 5.557260730629801 0.345153887232083 0.16789663597639473 0.2006802581653189
P 8.863867245042703 6.317029648295729 0.6144929124219759 -0.703136293687402 0.5234668334457953 1.4057542529774885
P 6.079822777911179 0.21732103701581412 11.057715780335663 -0.4396270160110041 -0.8719153322687501 -1.1325992246812107
