# total energy = -340871.74785094976 ev
CRYSTAL
PRIMVEC
9.30714344154595 0.00000000000000 0.00000000000000
0.00000000000000 9.30714344154595 0.00000000000000
0.00000000000000 0.00000000000000 13.62194520717866
PRIMCOORD
 96 1
Ni 8.718038395166426 6.763435915186309 3.7453806228892725 -0.6521605739704833 0.8302750310201442 -0.44233567319141887
Ni 3.1462891132357775 4.196665389159972 2.742111522266235 0.450024042974612 1.0124664863526562 -0.5675309136445451
Ni 6.101232666544164 4.51337816987738 0.47465128034014425 1.3947933830906107 -0.5988996577638137 0.4734586198484685
Ni 4.688175628946222 6.3304769141521 0.059036140920056025 -0.7008076455542253 0.6062663825415301 -0.7032221685329888
Ni 0.7262745541091491 4.961693957422614 1.48475089346042 1.6150119683991733 2.018050643763183 -2.235762403489492
Ni 1.3972907367799547 4.579812559038415 8.30734301171587 0.014908027460084005 -0.40892547316208927 0.8534640675420978
Ni 6.132728039606779 2.4138448538065314 7.5719213971321535 -0.6609090095870747 0.49579610700340415 -0.5692394116952196
Ni 1.101174664274003 8.397993657133293 2.301263786537029 -0.3118357326959275 0.2648177120751762 0.5908860434307177
Ni 6.671769860430491 4.402558014127808 9.023476502441738 0.07801035523720758 0.21242839984018252 -1.2987680793332215
Ni 4.686295585991538 4.100113084150646 5.343685180098227 -0.6963367542670652 0.06590225911976393 0.2691492495709945
Ni 8.007000565419219 1.465688933185733 8.999324465474396 -0.06459202494877261 -0.02123885477411826 -0.5604092149980994
Ni 5.3849083793798265 8.524403277977392 0.7547283527282463 0.019325954022121557 1.734431482710787 -0.48336276633605785
Ni 4.315238395311778 2.1886305992648225 3.282684368169379 0.6077105711872243 1.4165035210741928 -1.39963888410837
Ni 5.262007551574914 8.983785258953906 11.751979119716202 2.559798534906353 0.7892913895189311 -0.43821753725798723
Ni 4.2519963563163685 8.015618980152073 5.906557010729716 -0.5860863080492293 -1.1099025544146432 -0.09478577492333352
Ni 2.1800121845319675 3.150849613472385 0.26287095649541425 1.6026997266907237 -0.3168496409707511 1.4581376516752111
Ni 6.147647390380824 0.2666003288317587 6.387983891421391 -0.05559727764933006 -1.0292028252707308 -0.033372919033490905
Ni 5.411294130748772 3.051728536901214 10.45999219482819 0.02806127701259038 0.15403119084821212 0.19703289122071874
Ni 8.834284615483227 6.378371473779824 8.253413700346481 0.570953566172849 -0.2220931766234562 -0.31226587825481056
Ni 1.0210122386864444 0.229146522602866 13.416934922526014 0.22169362719219238 0.463252368739428 -0.2015580327845819
Ni 0.9678033002115725 2.439020676541275 9.769345385424623 -0.012317898135404591 0.03171250061193248 0.42310562131721324
Ni 3.773665031499582 7.923050132492273 8.239546987484191 -0.591024368780795 -2.363077775609414 -1.5335141688339977
Ni 1.2225398134278127 7.708446021358181 11.152259377887255 -0.892002075716296 0.6176172887779751 0.16260093479509416
Ni 1.620857626950481 6.829311875746942 7.015437989689253 -0.01230735661244332 -0.24482558522396544 0.08880821718365996
P 8.816861643150718 9.138376909831573 4.07466456211604 -1.220832286087691 -1.9455519623728232 0.3333784918637097
P 8.063392546916376 8.69165264379748 7.763010079903361 0.19706605845149933 0.3455629497450436 0.41567847561520666
P 8.144225086824415 2.212065986194983 0.10309708820602617 0.774451239182305 0.26933539743987167 -0.37950562523907544
P 1.817992230035362 4.9564075000054855 12.77693479503581 0.4752311383678591 0.6924572167070009 2.2960748272263034
P 4.1762920523886775 0.5748426783954175 7.081164105242111 -0.7112987748935363 0.5990544381741232 0.7640938072073808
P 2.448793177048292 2.9014833219633345 4.442920302650456 0.1989643039154767 0.1716465899371302 0.21408676137921195
P 4.458000667004284 3.026766778463291 0.7550280427437949 0.09274200502042737 -0.07328158230297056 0.6275078084188097
P 8.776431412481687 4.279405893452716 9.398747036911526 0.018625328410671146 0.5251113110277537 -1.5215287143373473
Ni 5.0473662118674625 5.660316057954242 10.492275882931704 0.7641737685156967 -1.5017345624295555 -1.4014309430117864
Ni 6.525657017135578 5.783198271472475 4.314778622430781 -0.2607093463337575 -0.14216040755255518 1.509023382781485
Ni 1.12832360139683 5.135691002164215 3.8376832862495482 0.1205428292827795 0.6388492015735577 -0.9458862273292614
Ni 8.466559382119192 5.553060538103897 13.003154221058242 0.11935600806352992 -0.39793554980948886 -0.717546555575461
Ni 5.073984641819909 0.34721880444297804 9.02790297981425 2.7296646359042924 1.2945278159996285 1.2202247344106791
Ni 3.8782959369280423 6.143971068761518 4.380517767984316 -0.14181176596388478 -0.11534971511761424 0.5061602238465476
Ni 3.5125345108087505 0.7879976673114678 0.1979527009844681 0.9602381251755593 0.5653773576366521 -1.0752445980211418
Ni 7.610972309158194 6.249616452814041 10.32408556491994 0.15036634040211522 -2.207885217463249 0.022537261870567638
Ni 2.045849713285636 7.138411413212217 0.31392901414440855 -0.04342387551158973 -0.7676069625669618 -0.4050333371965347
Ni 6.476859664603873 6.847451498116634 8.140665104496858 -0.3816021027567879 0.24816416267889518 -0.3008365533719464
Ni 5.801980086732627 4.230264176617431 2.7793400956262992 -1.3085760665625785 -1.5090357240766592 0.46304128116988647
Ni 8.12966871464063 1.2298645352364055 6.286363846863426 0.9911384142988414 -0.8099293774842568 -0.5816411277936822
Ni 3.842807799372561 1.494559691826463 11.352201946117818 -1.470119506627436 -0.1621689894639981 -0.0918302918394354
Ni 5.01107765998474 7.07690050287805 2.402842879664299 0.7952085263343143 -1.6781011835501745 0.2825115298105135
Ni 5.8525271822122535 1.7043892384271255 12.837933812486277 -0.363416947207329 1.5337183144250037 0.1015338922804445
Ni 6.931280938180159 7.389936961976152 12.129224630002739 -0.5665531231123081 -0.061704933208964696 1.3315660996998486
Ni 0.729108579256184 8.925029263048385 6.2873857712021595 -0.8700170868047726 1.2282501758183169 1.33238088229166
Ni 8.824065372095891 1.2710300302292965 2.114166937544356 1.5139835550002376 0.21387644514061876 -0.6293307205601613
Ni 7.698161627967464 7.403320634099094 6.066179172582661 0.5739638137540825 -0.15424562085186339 -0.47759423928339684
Ni 7.458223472661849 8.618535725718314 2.359266834546343 -0.7219863365143695 -0.30138188435245516 0.24907587585988714
Ni 7.20402677375933 1.445306289271098 3.897047969329507 0.9250471790967231 -2.7250402497584036 -1.1289474868612364
Ni 8.826941279387956 7.144917106406887 1.105798453085323 -0.495567793042682 -0.5516412389974823 0.15226689985893774
Ni 7.113533419064353 4.857677323454595 6.540263647893399 0.35733474556899103 0.014902371033129174 -0.40658936882974495
Ni 7.44151715036652 0.07451578172317078 13.519044522823663 0.9450704162961854 -0.6580147187584151 0.21652596694832388
P 8.963663215052792 7.938127704703098 12.717924714117107 -0.28505229395449616 -0.7514234108285639 -0.2980677323775576
P 4.4974164190492525 3.7969049684196015 8.57723434643266 0.5110424916395134 -0.21363630410535464 0.4505048392657725
P 5.38128790062056 0.3717598800019325 2.9084627487540122 0.023879634831075004 -1.9310540258669644 -0.2967672683985792
P 2.1486750329061333 0.9177466911859641 1.7294282461547708 -1.9954743011245637 0.5815449685354501 1.2716190297222552
P 6.22018726557291 2.8086352600033337 4.85340348323286 -0.4216508911485577 2.482611704011705 2.188229648015851
P 1.665429536405818 0.7127270762634217 10.975160262270427 0.16139585874339948 0.0027407959699307636 0.4618439184276755
P 2.5942079845927033 6.617341686178076 2.7117888492644626 -1.1051979498501223 -1.1990995223962897 -1.1142232932771843
P 1.9290357572250938 6.543163753758148 9.275686126241164 0.11634833158545768 0.5059892454863221 -0.25634232761431336
Ni 3.3900618115974783 8.506384648471121 3.1762972047926574 0.2618210913406975 2.2796148818980675 0.5363133503911602
Ni 1.8555465534123265 4.579477501878174 5.851061307136202 0.582498590697971 -0.8615558434112969 1.1895609867782353
Ni 0.7289726949634199 2.814061324570563 12.153949056285493 -0.6580550850780472 -1.557036420325654 1.1147429132260802
Ni 0.7547693041589425 8.652907006072994 8.847997760480407 0.43427166523636174 -0.1702977892187196 -0.5424747420068656
Ni 8.278787765234368 3.698528463315632 4.336519178558724 -0.13649421040571333 0.3181408489783488 1.115382346582292
Ni 1.152587324084252 0.9559553067397321 4.311305196536287 2.036402663907809 1.3409436842600067 -0.6926302519497555
Ni 8.136630457858962 3.9678958058623772 2.0413441251947337 -1.1431065519704378 -0.50290186481025 -1.2399399534514195
Ni 3.562793084844837 5.359862856651843 7.431955922013322 0.637807904793237 0.5690818030714327 -0.09165777081731312
Ni 3.1405931415116877 3.70356362786258 10.414454203894161 -0.7465740531560627 0.2735041841055806 -0.9323144021820975
Ni 3.1116479257242373 6.181125184974863 11.317384853597153 -2.1118455155281564 -0.3538092489142358 1.1533523980681621
Ni 8.70160198002796 3.204589059117638 7.061139786346067 0.5697209793173286 1.7006451302889614 1.0005684493634897
Ni 3.948685862008584 0.8351727847590074 4.996202983498726 -0.9202708407540022 0.3493422142818177 0.3604352388711857
Ni 7.815506091198387 3.4655334369416693 11.133746539069628 -0.42836789815741705 -0.019745558058043414 0.8040860313296023
Ni 1.5515473304973812 7.578183243171316 4.6837286758583625 0.7565514760837487 -0.622647652113031 -0.7374098701582913
Ni 8.090578712612562 8.490004076192692 10.09176344500946 -1.1056224389820506 -0.1115074585533886 -0.45895811223944827
Ni 0.9291386346341437 4.667979127898387 10.976563779486101 -0.25297238270081596 1.8974520215418034 -1.956755801508443
Ni 3.207781409283264 2.6171780143558627 7.273314733068413 -0.5026905201303924 0.18073415406069518 -0.4412830635571884
Ni 6.115742503011249 8.143694579654035 4.355698408839496 -0.4573187768638124 0.786878152091748 -0.09663208410345293
Ni 8.62737751189133 0.9211186692180519 11.548535204161125 1.1233931327019104 0.2869957908341122 0.33837825907114627
Ni 0.96631415727717 3.116608633124466 2.662695529574546 0.7347840024996701 -2.540082544534664 0.8036165478923515
Ni 2.7783312012882417 0.6358491415605548 8.887229231087243 -1.645773417951746 2.492577299864849 -0.4342932625029166
Ni 4.39768107101764 4.234582691127198 12.397741299648208 -1.0174297438952027 -1.1644446513265818 0.55857884665758
Ni 3.5382687621438946 8.374493120199753 10.415298361795099 -1.8929129960208688 -0.1666869319390097 1.8131589186196775
Ni 6.533549474687911 1.705859767074848 1.5260532034604093 -1.532101347646871 0.8962225415555468 0.39115812187633925
P 6.34185955045694 5.170983689709557 12.076031513671547 1.7145797380921828 -0.013069945810080717 0.30367942213738025
P 0.8799708577975068 1.835480352371252 7.770638214584837 0.8950205508276458 -1.4737301067968296 -1.3233974478461272
P 5.406026287618323 6.19149334265564 6.321440608683278 -0.7182731493288403 0.0960417588176217 -0.8164651217202455
P 5.432356196127228 7.558396256430442 9.814107160604097 0.9426816043490346 1.6954543301166414 0.8246846814165604
P 6.9613430111684105 6.037590420385134 2.255998494902861 0.9726382986121248 0.36524345889310644 -1.322025507199265
P 6.697262126038794 1.416584444923808 10.772642407477681 -0.506330945096457 -1.042572304599101 -0.33327564773725826
P 9.175521718901578 5.6475373501484 5.672436750725946 -0.11920045632227215 -0.33883591543385516 0.34367164625960167
P 3.696732184651009 8.120324342727253 12.779795810898532 -0.8463889058628713 -1.0435122999148674 0.7439666974402026
