# total energy = -381168.27757132787 ev
CRYSTAL
PRIMVEC
9.25022284045274 0.00000000000000 0.00000000000000

0.00000000000000 9.25022284045274 0.00000000000000

0.00000000000000 0.00000000000000 13.53863615385372

PRIMCOORD
 96 1
Ni 4.014161988007737 6.377297937643665 13.040346361639413 -0.11453544674643498 0.46435537199561966 -0.9068684513051672
Ni 4.980144267387467 6.2261770457542625 2.252179525677222 1.708374380612419 -0.05339949866706287 -0.6179016527876132
Ni 2.13620948089437 8.13138070959813 4.865731960144811 1.4657139213605725 1.3989521424539908 -0.5765050921186975
Ni 8.655119081262825 9.011789176719251 5.48988982683688 1.1437747816820558 0.8198978015508782 0.02747249438865591
Ni 5.127907328355903 5.484558923366482 10.333174271014986 0.7366130852886088 -0.5667917214856755 0.490707122516271
Ni 4.810014167391757 0.343302598310721 7.833346852226892 0.9073603033399212 2.0399623562346094 -0.614641751089419
Ni 8.137902116758687 3.8102408236751235 8.681095557274567 0.7820766169380466 -1.2471441845093425 0.949972738693809
Ni 3.816854733064909 7.901114910381447 8.765332712320834 -1.7772130966526876 -1.872588425530904 0.5660826112337928
Ni 1.419344955047941 5.6543560153369725 12.720266447976323 0.6838028834661126 0.9214437780161809 2.0323729739231253
Ni 7.511208763963485 6.5155147685557955 4.454332920765776 0.17267040321595423 -0.24475513699734625 -1.2863252255841782
Ni 9.235108058520927 1.0443871688731856 13.131028146995977 0.12133112951202976 -1.1873313261167682 -1.2297455294169208
Ni 0.2854720546421054 7.870413420500752 3.403694451241378 -0.9823907500131984 0.7915210501803981 0.5585914450630702
Ni 0.6820920128574193 4.726234898380168 1.5020169723756736 -1.182434660146099 0.18319675666857482 -0.8616481460147869
Ni 5.245764418615002 1.2697503499407954 11.84927193272371 0.6152022515785792 0.8097082626123862 -1.6460636954986554
Ni 8.524126674453385 8.575520913012332 1.246989251417011 -0.18547861072421606 1.5934434981997783 -0.5315640086316329
Ni 7.979806556785509 7.039706401143709 6.454111788794404 -1.495498865932489 -0.21024579036656696 3.3557799348509496
Ni 6.342248842989266 2.71612445636909 13.31576342396446 1.3239510063567521 -0.3214773695507496 1.3420577432597918
Ni 3.120257445642283 3.239233812875038 6.173509976521141 0.2548539159942449 1.1111886202159185 1.1137437825376046
Ni 1.3531411095896277 7.7601230125924845 1.346096139811641 1.5146700395443011 -0.8263666971046735 -0.9132928667742723
Ni 4.331185628017141 8.26090233096285 1.1736932600438048 0.09047223514964418 -0.20383782995769414 4.0713346568073625
Ni 1.5112089188940367 5.722456156494455 3.5804144100472737 0.9005350528879716 1.3629068187946591 -1.9348484599123905
Ni 1.7671625871672691 2.2091382384175424 8.33510206911561 1.7681309318457616 0.1502472983257477 0.3286299214351308
Ni 3.8777026994509343 1.6897659719723963 1.1907247704892214 0.9611567803350867 -0.6334192888072382 -0.2081259158100867
Ni 6.399951733581546 0.6826035501850489 5.255901737916072 -0.38667257530115984 -1.8867274360354476 -0.3805008992728092
P 6.722442255338311 6.310363324574454 11.768784818050339 -1.3997910934155182 2.7029940685916416 0.783776887458605
Ni 1.4825147273875832 7.030123170195712 10.062834656052251 0.5535554253010596 -0.15841286485567557 1.2616290083890789
P 1.6420625723596367 5.20095633877707 6.868732680817441 0.7818097364299051 -0.7207378088192491 0.6322486655379046
Ni 2.3929309176701934 3.524399685138399 2.436642846091775 0.953939693761357 -0.24285226354767853 1.0275807162862753
P 8.25960729975366 0.6032412626190858 3.41092442547782 -0.2090545982719432 -1.1973290607594282 0.011818847011799
P 3.359680965552514 7.381890647503067 3.13143263995529 -0.8180180680296621 0.4205823406747273 0.04714863266134461
P 3.4160333235980698 8.412097224635636 10.88469846229512 -0.9308604433443904 -1.2090347792321308 -1.3266177545556377
Ni 4.409072505026922 2.832806768316996 8.037157013884434 0.7115597418644067 -1.169196049968638 -0.4728790931959146
Ni 3.18993937491956 4.66354613763251 8.636431780914231 -1.440385984118745 1.8465999718869421 -2.1381571568394917
Ni 5.851154508019048 4.972142824559264 13.505615924253823 0.6959513459031886 1.820782753713522 -0.4332000294387378
Ni 7.713862647755677 4.441716541721401 6.190892995437623 1.01816045141364 0.6068374245536516 -0.664360715581101
Ni 0.6812604178166617 6.622401094428482 5.539806804795059 -0.7974631266964459 -1.204312434055797 -0.08214777444434884
Ni 3.605875648642217 3.2991845076375537 10.296254781285601 0.5338564042102355 -1.1594399990231388 1.6869203245037012
Ni 3.6138308403558046 1.0634148774253374 9.968782089462628 0.35238305799067055 -0.9738636863787938 -1.512522397073679
Ni 3.4962975078990035 1.1018865545611658 5.82880226934845 -0.07873489210805795 -1.6296716272938774 -0.018214209015181535
Ni 8.56892550406839 1.268279564496074 8.66873448438286 1.5969365989547013 0.3404389982549169 0.04118135933431617
Ni 6.126681647996876 2.5520070012731852 3.062994865661126 -0.5373122239693198 -2.463166965023532 -0.6982206015533395
Ni 7.772647814429924 1.747579865239751 1.5696694027436935 -1.3330601677468719 -0.47008224717706787 -1.06600739569359
Ni 6.997858392641067 2.310705686109631 6.935748695848375 0.15262222631582748 -1.5446447315295202 0.8570181034419433
Ni 4.12324061671312 8.79081985153996 12.760164509486843 -0.5446411535305653 0.17436655997145453 -1.7098381096421391
Ni 3.381011979612437 6.3442098902488935 6.234866705167919 0.02355413317085621 0.2237759636425178 -0.15387461066568983
Ni 2.4434001339368634 0.47420527795781164 2.80515137684477 -2.1821423041711903 -0.4961254653183649 -0.9491785249272878
Ni 6.489669645709558 8.4504208982047 2.5769169265819305 -0.07470057413768424 0.8445551950882422 0.6269303386487849
Ni 8.007251968197387 2.334266003893943 4.681985532006774 0.2538552995264015 0.08886298168099535 0.26640562538758633
Ni 5.600556718818103 8.079144700753208 10.375970427367214 -0.3293446881139683 -1.9730062019290344 1.2369199356781728
Ni 1.488703126522921 7.373620948210103 7.6794120425243815 1.285842886631121 0.5710677231532101 -1.3718730268490116
Ni 2.8996118782652895 5.360383930851127 10.870997032101904 -1.038421001434889 0.9296635948228119 1.0910345138655468
Ni 3.9170161468727356 4.818505872034866 4.103438664502332 -0.5961570620216701 0.2211200140769095 -0.027407188368359252
Ni 7.9796400527729 6.540490370447293 2.130087683364077 -0.09640634124589202 -1.8137577285459405 0.3457285287886304
Ni 8.658994924667468 3.3034673608508 13.357110070384687 0.5000353418957324 1.009806680132306 0.05547617869043349
Ni 7.090998887250506 -0.12383550933408911 12.323109976831487 1.4552752425257518 0.656209033008244 -1.6787151629850896
Ni 3.3971166177209913 4.079061552033938 13.351789342159506 -0.6364683600462071 -0.5574987262195238 -0.716075113236257
P 7.026312078351528 4.4315135458375785 1.8624158326922706 0.7294268519528146 -0.3690939429874482 -1.500165675280539
Ni 2.90037964676788 1.5668582599974619 12.205662671447868 0.28406190501676887 -0.4775032222314872 0.5495478468035633
P 2.1577532500815173 0.28047785928609825 0.4017621571380855 0.2169725675674392 0.10831594819928442 0.17690655278448886
Ni 8.041810801036883 2.3164963256592888 10.858960642034786 1.290599170369184 -1.5431046407359101 1.0462687796140822
P 0.968711095141949 0.4326070254740846 7.08158678542658 0.03062595241597306 0.061532669297158546 -0.11879627890531798
P 3.763554948583869 2.676228244903154 3.8890545730217654 -0.5610573901050596 -1.4766526797602635 -0.43221298293512017
P 1.100804278479201 3.8467144526596324 9.855436332922967 2.198701751191768 -2.9846753891913758 -2.2610119220848994
Ni 1.189143907391719 1.6141824004703875 10.578819490863077 -0.9129974470210405 1.0756883704267797 1.0314898215326946
Ni 5.776310954350861 6.443057772401686 8.151261288703761 0.7299135617812462 -1.3600598362641674 0.890182248898738
Ni 2.845488823944123 5.762768627991916 1.4125534413780383 -0.570098160151089 0.3108538283986324 0.7412770664231815
Ni 6.711110732257911 7.478990237523454 0.2099513846559715 -2.6044938209311983 -0.32873662221632416 0.4663721453153323
Ni 5.306945393026247 2.6665432615030067 5.32467807036921 0.48670931421078756 1.391052685101256 0.5577427239095297
Ni 6.220266153306608 2.8787248749056595 9.649961131139326 -1.871542500764893 0.6335226471543218 0.7329670038955892
Ni 1.6126931145798205 2.4094148149185814 0.5271988800601073 0.16957402367881763 -0.02733596881079163 1.2549557101339612
Ni 8.762116409810584 7.944886965252028 8.668355225243028 -1.2625990856118319 -0.1664820150170552 1.3200403584484364
Ni 4.754679333867706 3.900134490038668 1.599156338354629 -0.16536564202442489 -0.19638934409944886 2.1080433681732464
Ni 1.4442650556019014 9.096021706654057 9.30652625464081 0.9962299698891358 0.9155140427953072 -1.2289433452305996
Ni 0.043590750501293136 5.5744525897300266 8.197833386053066 0.6618870572296278 1.1402063476045072 -0.048245979490581424
Ni 7.372473920567679 4.403254114808495 11.512281686535491 -0.8908527926032012 -2.065054266206231 0.33992143518855006
Ni 9.388051244326117 7.646780031119701 12.31953661571642 0.02206340755794265 -0.43552019293148214 1.0528603167886708
Ni 5.154825477061182 7.047411836838382 4.452884335856069 -0.40680457016434457 1.88287798038237 0.4504523887612823
Ni 6.6530655834174866 0.6096137411905868 9.725235745195715 0.09170713599800981 0.5256121619235722 0.44265937507942477
Ni 8.18515225544823 5.86512234463244 -0.1771315937259596 1.789098535236364 -1.547331534333064 -0.04796032992936256
Ni 8.805324201082874 4.2569710895077035 3.6994055776367047 -0.43276911254890627 0.9880176092816725 -0.788845560230764
Ni 0.434793778173029 2.1217328820202246 2.5261739037167463 0.8148355565366225 0.4730613844100498 0.9977119537513011
Ni 5.538950234152409 5.316713628432699 5.860077273050359 0.11838155996540257 -0.5228523397902479 2.041702221743851
Ni 7.536665377446966 6.031469103452735 9.835305072776126 -0.5121583504115115 1.202029037338259 -1.4547214269048105
Ni 1.4942717607224325 4.0761292313674184 5.064275969892414 -1.8341432341808281 0.17451594106512522 -0.614212119751168
Ni 1.3333918836494993 1.7280341442039238 4.688402411648303 0.23382897700314567 -0.621456202908091 0.7609434345038573
Ni 1.55685876901794 3.397865885777736 12.10023695577469 -1.3473501020069827 1.3196734620273207 -1.9713869211580564
Ni 6.301335107001823 4.572459192511928 3.811072418715881 0.18614966864931168 1.5139670999400054 0.9920383004052914
Ni 7.1390537953343305 9.14257807862439 7.571387939232194 -1.020855738857616 -0.8581241920219286 -1.5932614640959593
P 6.088200720638124 0.7235228363062441 0.48522969363717694 -1.0266589758029545 -1.4659684605735397 1.0445122019342914
Ni 0.1662265059222981 2.605972801804665 6.79356629436925 -0.3151064330273992 0.21300844071336866 -1.3805299311930612
P 9.046255507329517 9.111515830049708 10.964616688258742 -0.42829950681332696 1.8954969546979616 -1.5119462128552348
Ni 4.462298287724579 9.682300835499646 3.584990495327171 1.6228085816254572 0.16188976766068247 0.6659550566514143
P 5.062619254966944 7.767125431345026 6.786444547741004 -0.07639930199634584 0.5897025646455779 -2.14449569746301
P 6.222569458814379 4.073539168949041 7.801273554286749 -1.4256468781363576 1.7358535598692941 -0.392635220642498
P 4.979441250445336 3.494447463314448 12.004613701332778 -0.6697497478071561 0.5091738138618908 -2.0303070925330324
Ni 0.2067230568559224 5.231916834899604 10.820755371319132 -1.1914679739929608 1.7575040482595343 1.7738858320516677
