# total energy = -340861.0588458911 ev
CRYSTAL
PRIMVEC
9.32044111546219 0.00000000000000 0.00000000000000
0.00000000000000 9.32044111546219 0.00000000000000
0.00000000000000 0.00000000000000 13.64140769710695
PRIMCOORD
 96 1
Ni 5.9339426683193945 1.7769700444713692 8.158884798388396 -0.08588564422022629 2.16616675467854 1.2696840174830712
Ni 8.326509202209998 8.789660558075738 1.1977372557466182 0.13490475443140637 0.08955769375517479 0.11609713480660006
Ni 1.7431182026355732 1.8135900572942885 2.4539798519082905 0.01598249147118538 0.10290274760351312 -0.5542596504569358
Ni 6.292425471372364 4.327872230649004 12.870258691958162 1.2832949233982867 0.8562130910421447 -1.3589722596269433
Ni 4.8447466086352104 6.589570451980022 12.907527407477055 -0.18149828592022935 -0.5601626462049321 -0.3067894285212716
Ni 5.615472518625751 7.224189961549821 7.230778581316816 -0.367843872630431 -1.2594389427162955 -0.3612831886937778
Ni 6.083992448527125 9.310626609675909 11.112209142785984 -0.15481357754019145 -0.7647363258873862 0.5698204810096702
Ni 9.321279873777867 6.873937107929948 0.5069266712705279 1.095549628127081 -1.108022563783111 -0.8418776482560791
Ni 5.521792765792165 0.20518671323306664 2.8412460409627207 -0.9098046511153556 -0.40715681129744075 -1.41363468416683
Ni 3.729425352732487 0.5783184534593072 10.149957489986036 2.7173050858976753 -0.6014458212244351 1.1486411086354216
Ni 6.390662919871618 1.0405433574862613 4.702043200050546 1.269271355425685 0.37217823833972674 0.05606187599057442
Ni 2.5586567931179935 1.845941308123597 5.72928162796065 0.7222689007517947 2.350571415612287 0.5324183862121282
Ni 3.9904722652151343 4.621503404986812 5.0870585025952435 1.596872064265353 -0.9451341796545852 -0.36900266882522254
Ni 3.252852561777663 1.816954736507593 12.0663026135488 0.9673690797933856 -1.6658593900683438 -0.2945124109261315
Ni 9.056001481065746 9.35129169390762 8.851240711987938 0.3145927266157743 -0.9994366497518917 -0.0047904794101078785
Ni 9.156513117177315 2.884965433721302 10.556812449961802 1.0012140533672886 0.9394659256252144 0.1382394752315942
Ni 2.0800055438125686 3.943720932988165 8.43122156109563 -1.3329483247593559 -2.410282201209359 0.7127745881081143
Ni 5.298074219651028 0.44882863412866375 6.511220960559298 -1.786779400184884 -1.3173358150330796 -0.43615371275042303
Ni 3.228311840534918 0.1562478734953976 0.3620562601454377 0.10526661984999935 0.6188406196621149 1.4361135819956363
Ni 3.597643636951562 6.9901164054198155 5.5358601074449085 -0.8258357643018681 -1.0313859489649786 0.09988144427868605
Ni 7.642127857959218 7.4750589524232485 10.243183337341263 0.9565349652923592 0.4717064130440521 -0.2860244280597784
Ni 3.316911953004928 4.116456666672859 2.482067933008608 -0.6261363819925797 0.9014830186235377 0.6078193288509467
Ni 5.419733936468936 4.386059744024795 7.160660903417396 0.026974985926947092 0.818211672097707 0.3150825217679993
Ni 7.507205153549806 7.967616299751527 5.906020491069483 2.176735531333322 0.66607024207304 -0.09730854134518725
P 7.115411094241018 5.803214162375321 6.573098436540484 1.8112200497257516 -0.3607643400758303 2.8968081957647462
P 0.39634336657752545 3.7218105524076397 2.4398062572277572 -0.8422849109968268 -0.015049695244270855 -0.5514499489222825
P 4.210005933331968 2.35974926100959 1.6852727494457327 -1.0951865883607073 -1.1411370869488928 1.4817792023535514
P 3.896382412976048 0.10139894209801535 4.504938241238134 2.760309871593975 -0.1203080875641541 -3.4827911454668925
P 5.2980369378868915 5.364584886870256 11.00313202136409 2.2055956500981244 1.9514264188757293 -1.3798326480157204
P 8.855099374576048 4.9568901551573195 9.506806048693635 -0.14830817232150587 0.9223377505853598 0.1530426016826977
P 7.128086894047374 1.1664065932105423 0.8369877214341593 -0.10248905710486218 2.7726036013596635 -0.027709035879494213
P 5.584053311899851 2.043711746425842 10.55707155822255 -0.12517158630404251 0.49810367209065826 -0.06542454815239701
Ni 0.830839958528077 1.2756980847762205 7.151317161280725 -0.3453330931224246 -0.46299243020982195 0.9080277617205911
Ni 1.7628216149816285 3.6596991333564985 11.917774861361934 -2.278244741023418 1.9347605281842744 -1.8863800799983577
Ni 7.642957377211252 1.3379213491197708 10.035138044843043 -0.9795802771475968 0.5176648820520374 -0.26343420146408825
Ni 6.929580140903435 7.048471686734221 12.214816385074114 -0.46444021839994204 0.28501732695150267 -1.8472121515496445
Ni 2.147438934694172 5.2055129197415315 6.559033891020049 2.351971124173291 0.5957055763065483 -1.902402680678859
Ni 3.50794371243953 7.99121565644983 2.6477974911679802 -0.5780528962217916 0.928372386815214 2.4991091874460962
Ni 9.328922635425817 5.767572795860981 4.434903515263917 0.2175009292670835 -1.017248995342964 -0.6998537662813883
Ni 0.9017657186651521 7.315287952216966 5.760124831430644 0.4526056876588592 1.323309001897379 0.30611297127953735
Ni 1.6454493010393987 9.241934959254703 4.182209582036016 0.08654693195330901 0.7371681864611305 -0.8088279168899618
Ni 5.302818324137377 4.36300097290647 1.307809800270953 0.642184436594378 0.22531374044328292 -1.8583478564514897
Ni 3.9149953337211154 2.3542688416815474 3.971382137889122 0.7868424137578062 -1.278395172103824 -0.43529907805961165
Ni 8.624241370602801 3.367484666055872 8.101768203687419 -1.1435197282484566 -1.6121552156766688 0.5874279096787883
Ni 2.554127058775428 2.9285478159966827 0.1772664000713622 1.7930634334213829 1.4931576193938219 4.051290079451662
Ni 0.5185921352687884 7.709281635609799 2.8953614536507204 1.525632709203392 -1.2433610633178263 -1.8253122661527597
Ni 2.0249496986242295 8.613205968418445 9.541686867219596 0.4842377127418434 -0.3752504495071473 1.1161585626266841
Ni 3.1267656354685642 1.0071854990252718 8.016455410770131 0.1966773076535129 0.8072461742251388 -0.46557536044564973
Ni 8.897609906132509 5.715294442100799 11.782888506672556 0.6701554678860071 0.4350638221203539 -0.9234425536137645
Ni 9.405163843084631 5.3068167933409995 7.0400711732302 -3.3114664576455555 1.1038424642634925 0.2143806384705469
Ni 1.5393454003073774 6.496477886931583 8.71358525426733 -1.1249041700297981 -1.8815762308518111 0.12042712964052163
Ni 8.07411165900698 5.52499899750789 2.211053740884111 0.35459986313633124 -1.2684555443926089 -0.6148397260328379
Ni 6.705544699767139 8.844567276207531 8.506086139613709 1.375792930728708 0.8761491678444394 0.2894236835493144
Ni 1.2088612021207985 8.602170566234088 12.760527275575676 0.45296152833638115 -1.0025415139294604 0.890098688045996
Ni 8.20017994443401 3.540127195330225 4.1072909449599395 0.04053421266862051 0.3390860837714483 -1.1897173098504414
Ni 5.581797765169602 7.772082767297462 4.8611971870603705 -0.6630453392037872 0.9051666381227121 -2.3412876763175166
P 0.4531160370043428 7.639154637269345 10.859174081416237 -0.1111009671435893 -0.18800549091112784 0.19858043821349672
P 4.213081678873215 8.955676253774858 12.244909293040863 0.41359896737835866 -0.8687832143976715 -0.8221930253429582
P 1.132731839754394 0.05816700840551642 1.1050081878985085 -0.022413077587877528 0.30343928110211615 1.072787908950533
P 4.642381192903161 2.6254191122451425 6.139056682112395 0.8734736778948053 -0.3597842355507481 0.3118478168807855
P 8.769500444119013 3.764358365728237 12.517328075629198 -0.24293068219409775 -1.2500942682766019 1.1833456019961426
P 8.799036921756027 8.939523929462787 4.2160949774595355 -1.278534525895166 1.0575114424074368 1.2930615158667471
P 4.663613157578807 8.67279154794935 8.397514186095862 -2.227341526415648 1.29860944226817 1.5213438520200508
P 1.1629580300279307 8.258693673245995 7.7055124492556155 -0.44389144771431294 0.8480850626183717 -2.6072168762893164
Ni 8.252942961127966 7.128161457575646 8.154232966268284 0.8664239701368754 -1.171263731130944 -1.6082584517254237
Ni 3.284020116595643 6.956683983430554 0.7758549486915972 -1.5789954410952483 0.13238867287777198 -0.5381018097501507
Ni 2.81527649610945 9.042225869217368 6.058871995852061 -1.6460940345159585 -2.1031063358829454 4.426944449265447
Ni 6.054176357659088 2.689534426118612 2.927841326566299 -0.12079325473068873 1.2982101499472223 -0.17885390631884682
Ni 2.2375303177296355 6.5181013101306595 11.792355278630875 -0.3928396233438202 0.44830654606287307 -0.4733568041632816
Ni 1.6562144104337666 3.6074394204783853 4.241877181448021 0.3943095230211274 1.7139860703722418 0.10452665636018127
Ni 5.592805206030857 7.041285626696942 1.9650854379064062 -0.8309352903119624 -0.49339212554760187 -0.35550103479436196
Ni 4.342393477780108 3.4217482737563136 9.265312489456395 -2.7937288133740528 -1.4593416992856414 -0.18477798511276564
Ni 5.920250940440324 8.945544934370806 0.2946843841746591 -1.394392033887134 -1.467002558265009 -1.2297108195242434
Ni 3.114667703006322 5.356271053467852 9.781761855331448 2.0587681760872028 0.7135921989134032 1.0904958677532575
Ni 5.248014130856958 2.2837037826124917 13.60261141416727 1.0270412988430377 -1.1595538988931837 -1.5507868398715163
Ni 7.526917886336896 7.50417601021373 3.0604907754074975 -0.718706380211517 1.495580884123334 1.8366428606742304
Ni 6.34400479205499 3.9736488691486116 9.5772368934118 3.3223062285735363 0.6188527038469729 0.4213351596803518
Ni 4.335915771261419 7.308810245698278 10.544385505931057 0.427036066719871 1.2737219349978708 -0.20713449843109485
Ni 4.009896064330167 4.089679039581933 11.787104142152272 -0.28446376844087784 -1.6101029611333304 1.2313288147436408
Ni 0.8729953812811392 1.6900848931516308 12.914034007362948 -0.1018712210152052 0.5618485185477872 0.7810170653252808
Ni 7.8869199212784205 3.3941970500595593 0.9569567102484852 0.15146754388609399 -0.8198422657225944 -0.1751869989902209
Ni 0.5114843669361954 0.45403503249030347 10.998071021882582 0.29514618785538843 1.7817613781450026 -1.248878650701946
Ni 7.043382725929611 2.8626150161215667 6.0158740052295165 0.016092020465856158 -0.13657262905213252 0.7977796294956002
Ni 7.881775037827606 1.3348456035785228 2.809188384025986 1.6898300419513286 -0.41201876737543236 0.9101080412883875
Ni 0.4145331392996453 1.9128434338662574 4.935420519235305 -2.4018980909107217 -1.5700824548763348 -0.8269567652801886
Ni 1.5799359210108166 5.652828846290363 1.9449514211845762 -0.5553132885324307 -0.4071418988991053 0.8330464231176944
Ni 8.238980940458907 0.6720215073954788 12.68185716098338 -1.9164139073562865 -0.807530538234777 -0.35140089658305934
Ni 6.819328643911246 5.574360053224403 4.648964220405536 -0.5286524914117927 -0.5458058632626277 -2.7106032483974674
P 5.265256946770014 5.227276149556119 3.133144545312292 0.001702327403087391 0.2184982601833463 1.7649982997540505
P 7.9621731621876215 1.2319292936801582 7.489077827782615 -1.1727176899686513 0.3837021798189263 -0.20265897915824455
P 2.262061718531347 2.1446055206198102 10.201849045443304 -1.4326747315174166 0.9238271906466927 -1.129184799683023
P 2.905060304590789 5.204431748581578 13.29629325549387 -0.5523254095487004 -1.0445481973785495 0.9957630575550465
P 2.4593940961049903 5.711389177307518 4.149756738399437 -1.8780080538845785 1.4196320394008453 -0.8069137305863845
P 0.8165880721428579 3.3892012936652898 6.576426766033755 0.9416894156390944 -0.7905399172140515 -1.5244127207533615
P 3.904975859609474 6.042125027402017 7.644440259379774 -1.124554242889547 -1.4785606954162536 0.6466280741880284
P 7.1789578612114076 6.810492865810934 0.4616078908304974 0.1537080031808385 -0.5037102196441583 3.6875355463992556
