# total energy = -340891.99652142444 ev
CRYSTAL
PRIMVEC
9.08621446952865 0.00000000000000 0.00000000000000

0.00000000000000 9.08621446952865 0.00000000000000

0.00000000000000 0.00000000000000 13.29859332478774

PRIMCOORD
 96 1
Ni 6.543446459408169 1.899654865810734 11.51430815606287 -0.6503651726329573 0.5008822632770599 -0.16186431373938573
Ni 4.579879160794485 0.2962796479763241 6.2542622363359985 -0.33887036821621636 -0.0048519287756626115 -0.592201934028664
Ni 2.782280656263639 1.5575225449744716 4.796589919760472 0.5409359367648361 -0.20767648697749394 -0.09928700522779674
Ni 3.536890770606115 4.4974399366231514 4.720574649241638 -0.36017555745189583 -1.2624039388818904 1.0939329184592643
Ni 5.169429102504265 4.681899177216367 2.760548248419156 -0.2991753636194396 -0.13328470232948011 0.1291187438772486
Ni 7.332438809423996 6.31451928504503 2.5912975136584073 0.2342164422495515 -1.4492881717043815 -0.5641424567882865
Ni 5.174272054833518 4.557263572900464 11.728135859167558 -0.6060018160262337 -0.8249639032198761 -2.15806777972049
Ni 5.555175252947317 7.676879028743619 12.328926356837039 -0.08017933786406836 0.8406386336426555 0.44789208423327376
Ni 2.0937727524189538 6.662330489944676 0.257486963783985 -1.3505300423968611 -1.2573481216255378 -0.5265745258368415
Ni 3.016977576835176 1.7091896374320825 0.38258959952526067 0.00843758924439192 -0.89117032384362 0.4464774632739343
Ni 0.6705181077533348 0.1302427072847259 4.822575584613068 0.327388592828862 -0.02264447687239326 0.1806451938913147
Ni 8.669111824727088 2.588707942525504 1.3399395094163487 -0.5493046204445056 -1.0861594451614327 0.7943628905045674
Ni 6.804048177523239 0.8955354840165148 4.898310999725258 0.6076784323977082 -1.5835480934629373 -0.19646287764986164
Ni 0.686469865932018 7.286562512406355 2.3568295656923057 0.21106957181944294 0.3208942433537699 0.3341698774167535
Ni 7.784459808440366 3.8457130290801915 3.714071044762248 0.31736257605142765 1.1146786356470482 0.3023689308560728
Ni 7.6063790904271436 3.8333012600712593 12.737857800823349 0.7896469730861368 -0.3708456355712323 -0.07851711967029704
Ni 7.986446356806812 8.809902718426505 6.916026685038672 0.3653637865210546 1.063642237895523 0.6481221422350516
Ni 6.631491877926875 0.6999610772237184 0.38806131789801246 1.0227920366483805 -0.05570629242336858 0.5863886697809966
Ni 1.6274954828498647 6.517786989656174 9.407158678654934 1.017712308132628 0.4494673991401937 -1.1770019191663021
Ni 0.38399523690862947 4.77178001106436 1.3898228270291144 -0.847443829489947 1.8081488669995955 -0.14887432923762103
Ni 6.315500596211183 1.9650120067194086 7.016204925781116 0.6177098484917812 -0.13572570767080497 1.2950294382263956
Ni 3.3386113977562473 4.426176756288557 0.17663691852894842 0.5220254730135784 -0.8242267679435353 0.30745585846067697
Ni 6.272277473827954 5.921940301296914 4.746427655362512 -1.0242742776208618 -0.2574414742157631 0.17165841701167212
Ni 5.200622076887621 2.830910076275209 9.457946074610591 0.47835888536356325 -0.0952917680254746 -0.02444219220276436
P 0.050411226675297904 5.457225860622069 12.369141033598849 1.805779852546787 0.3444625175920132 1.7013868935509924
P 3.8683558756177163 6.2275278674084875 12.335721936662646 0.11925984880529782 0.2822783307537848 0.5487266364538486
P 2.2694910546618092 8.466225741125003 1.2617362784455741 1.3720064671030825 1.573010170046091 0.9503098103182538
P 6.298718358027069 7.923951373466082 6.058507013874624 -0.41028018741777084 -0.5803136672315103 -2.539330753970304
P 4.864513916265796 0.8984885037294745 12.530945615575687 -0.8591423488737978 1.1307295184623236 0.3834360706417332
P 4.012881203477216 6.00067234995167 8.339800152552321 -0.007962449380186287 0.011053686711000316 -1.5073552510504427
P 4.863850622607193 1.0337022789679244 3.9754550859458897 -1.148733668349228 -1.2532659811363642 -1.903514425685799
P 0.30433366851037796 5.609565332952784 3.653722225286753 -0.538126492340499 0.2639000853569132 -0.6059380526678338
Ni 1.1481340643987388 0.9722612965093593 2.5003081616412417 1.2217254873259218 0.7479891883360344 0.4354042361789082
Ni 2.013532392156962 6.619425385068996 4.718606575180631 -0.5901008285252611 -0.2757672691081444 -0.0628596156386982
Ni 6.072435272083843 5.674713490927926 9.245168737902265 0.21746184849903197 0.21046690523843753 0.8255596278223458
Ni 8.733660292545135 2.5948865683864657 10.487536841516624 -0.6735369827637304 -0.9880867719567111 -0.09928777655874513
Ni 2.147699435484849 5.247488771285917 7.01918338689468 1.0615272484350493 -0.5470423067728901 0.30309166795471026
Ni 0.6236168857399331 0.2125256485666355 9.06623664159026 -0.16665042227411944 -0.03585377647381567 0.2867983301113254
Ni 1.388927834900725 1.1013673183599584 11.486460725858935 0.08778671789768107 -0.7063231760558157 0.15248287252448578
Ni 4.133655166630017 7.0195459268532865 1.664838007207778 0.08804125711064838 -0.651817845919084 -1.0508206606508226
Ni 5.6407583073361405 7.880492009505817 8.08041144407319 0.010191081600388901 -0.32244153323623176 1.2928661120264897
Ni 5.22862578998098 2.7225478821313396 5.083733379055624 -0.3324058435377953 2.140383475066849 0.17012346842438444
Ni 0.5849277843929102 7.326878046149131 6.538213708476804 0.6475888954394009 -0.5729119754508004 1.230811765897906
Ni 5.373905273644097 4.278662063858092 7.440510244703821 -0.34685904284864777 1.158644499705037 -1.2563543902537009
Ni 8.437340665225006 7.2783940055695835 9.033747973019002 -1.1158091497070655 -0.3925927974403368 0.05915311332138845
Ni 4.68435245513175 0.2248974382317615 10.381773304720161 0.19770214937360145 -0.08234986315282591 0.9195203357412229
Ni 8.14574586944561 7.479190259836343 4.573918604081557 -0.2565729555678807 -0.016168125119430218 0.22487099647890949
Ni 7.325097148106854 6.2495165065019105 6.94396679463052 0.30991717551697595 -1.0653664196754813 0.8044187320786728
Ni 2.6367740172379865 5.096557662202921 2.3310174475366874 -0.004920834340385073 1.7804282611558757 1.4227798410012076
Ni 2.21348362847509 5.108751362063819 11.388782102725829 -0.7884930619873518 0.13321194011001575 0.7502322187339402
Ni 1.1634715944771266 3.5064428658118745 3.9446155653066386 0.08457489582860273 -0.34680736367510595 -0.4159772378025481
Ni 3.8504469468354285 2.581057349915313 2.658043028142898 -0.12262593706405334 0.21643597833767886 0.03635462736963417
Ni 1.1044657175049406 3.235755449600235 8.497229722246729 -0.8415822285028474 0.09188942721214496 -1.8453103065412415
Ni 3.781945975709265 2.6281602858906457 7.34575738264017 -0.9421229036320872 -0.24337291193783894 -0.8554944677085654
Ni 4.162930949753576 6.808709405562464 6.0052854210540385 0.3348998136042426 -0.026872913131444045 0.6178355754363681
Ni 0.4638585192688124 7.454602963395515 11.461525427402703 0.5666027454033209 -0.46869333724934115 -0.0615997750896681
P 0.1893894205816837 5.312536980901544 8.04103451628841 -0.15768729954356067 1.5463090066058207 -0.3146053250212646
P 8.37852559875735 1.6037259457141642 7.932531485819768 0.8153415496387636 0.6088344003790224 0.9115833402823332
P 1.7932007767121614 3.0186312678744334 10.467628945544027 -0.40410311207278143 0.7886337013302741 1.9397178721895498
P 3.905436716997989 6.288023883558905 3.7406545825290363 1.1875614398497032 0.8741794457125784 -0.17373509703504272
P 6.866470471147956 3.8342553125939083 10.513735123788553 0.26252557360688983 0.8716299398178473 -0.9356745769035821
P 6.704181593938191 7.5987284978169525 10.462216287565534 -1.2676086230112815 1.5139429315702893 -3.43162439278509
P 2.4980638666593924 8.318029582606933 6.135013848597985 -1.0810563196069123 0.9930325459977608 -1.6549512277962724
P 6.815714876943055 4.164766365082861 1.5432490106141994 1.6418771682211337 -0.60835771785292 0.40396864337744626
Ni 5.405052816954946 2.9651316368901046 0.33620447449553953 -0.8545583290475411 -0.5714713863495319 0.4069503517135895
Ni 1.6184183545629516 1.2122827387787254 7.047868566075646 -0.305604407074235 -0.6253347120268907 -0.2607625681691961
Ni 7.016838234931865 0.6479506767961715 9.397637234478902 -0.05261736908539971 -0.3446617780870129 -0.6130908616625312
Ni 2.776401875481224 1.549272262207187 9.309507314165332 0.6651248474406353 -1.1978641073272918 -0.1093292199551472
Ni 6.541747337296404 2.17012421287434 2.6695725257237424 -1.4169881740200951 -0.7946410838666185 -0.6049890584910032
Ni 3.909589117025136 7.0155570786871655 10.22973004298219 0.4866373233222715 -0.4937266260688852 0.6448588981027474
Ni 8.175993877520819 7.153840177184192 0.39170852439888026 -0.07135788291769646 -0.6903046891403725 -0.6713903687343727
Ni 7.594194476780746 3.739885888782217 8.207359489979702 0.9081172361106038 0.1955107981492375 0.3910766179061265
Ni 3.2000375403951744 8.526749015918924 12.306345296558124 -0.03670404028925292 0.0022394308534800142 1.0245457861146936
Ni 0.060619588667637114 4.9477799859567595 10.206324863047998 -0.9606276473044939 -0.5782747824246105 -0.0009047712024565063
Ni 8.623680752220015 2.400750509349243 5.918206775758282 0.38043430770093195 0.4845644999536428 -0.6759275944830939
Ni 3.715234988839879 2.748588972892394 11.465927698328638 -0.21561219688480285 -0.9268996589244294 0.30251342685373706
Ni 1.1918569285795455 3.098017523973292 12.835323806537124 -0.17238835319916115 1.1702980247835653 -0.35871902751102736
Ni 3.1799206614890427 8.302637535241535 8.112288610408502 -0.1208783582453273 0.009026114758010262 1.3129415426201259
Ni 5.534976598110672 7.827074154452001 3.5409495826238966 0.4227955462759622 0.9930731694277092 0.690911726596752
Ni 3.064634771895095 8.497418715508358 3.4679136818400766 -0.30891187418091315 0.26627861289141885 0.16886619897851562
Ni 3.2008552997003012 4.2583725468764335 9.424327080955358 1.2453639526804683 0.4911023010721607 -1.1962479118801075
Ni 7.220360353549048 5.974467707329591 11.508084099129402 0.7902236715252133 -1.4127574237681992 0.23358420798219126
Ni 0.3663761583689366 9.08794088216979 0.4419970871784091 0.19126205017521253 0.2907274899624025 -0.8814235288695014
Ni 4.695174136602933 0.280746764286156 1.805350862743453 -0.2930052302529857 1.0503743171420232 -0.32909606243827194
Ni 6.000563315377653 5.6093654362337535 0.169998530214215 -0.2836500142903309 1.3118225985243344 2.9304204845025534
Ni 7.771884487570409 8.928377869310449 11.680885726517301 0.7046743275984831 -0.1323958719666236 0.4292718980289252
Ni 0.06832106407903607 5.023559014898556 5.751295741231648 -0.47665064442320493 -0.9426551219864733 -0.0870909773822371
Ni 7.914792469248656 8.976989116893018 2.4018726568401676 -0.22284445296718394 -0.3252923724214655 0.5454549076811122
P 8.479355321079547 1.6584613018706853 3.631087556342279 0.29100388355224077 0.15844500364519165 0.3431648818265122
P 1.9151741201791497 3.2719458419593686 1.7970124436955046 0.013162505523887008 -2.937796208141334 -1.4771491597807076
P 4.912298318328735 0.9220417889600413 8.410469094458522 -0.33536209795264177 0.6101757448982652 -0.9664920765050711
P 8.576995782111746 1.6343283161549285 12.604140525113282 -0.6145934143499867 0.799308664545617 0.01941619974308269
P 6.275357700543933 7.7545843351597155 1.3273741833823427 -0.23723723135374625 0.22128327912765114 -0.055020064989621364
P 1.928549027925232 3.1243675460273943 6.011788424772701 0.1518349545278417 1.0545778137004096 0.50798442153948
P 6.946765348696956 4.219238221018841 5.807016951661573 -0.14526809994360143 -0.9767122115711823 1.0291966546231437
P 2.1849165700826427 8.442592497206823 10.419394775863266 -0.05614312285047105 0.10916544068377328 -1.3607092969227081
