# total energy = -340858.9746870886 ev
CRYSTAL
PRIMVEC
9.38945076545067 0.00000000000000 0.00000000000000
0.00000000000000 9.38945076545067 0.00000000000000
0.00000000000000 0.00000000000000 13.74241029545968
PRIMCOORD
 96 1
Ni 3.258308335222279 2.7627706953889244 9.688646283924667 -1.810538707388011 -1.9376586756676757 -0.8879806132617287
Ni 8.079115128923194 1.239088225296507 0.618422073312948 1.3913938704907587 -0.14228690582809045 -0.22487253914080627
Ni 3.337264224515872 2.02020600222876 3.827700575890051 -0.07383874035802121 2.345825673397186 2.0284556411465906
Ni 7.575690350665934 3.5629302779446053 0.40775472812034064 -1.483942271443141 0.48515585368073866 1.6066872505835619
Ni 6.393483416526591 5.854885756678916 13.294585878850869 1.0972077325557943 -1.844381881189701 0.956656578471888
Ni 8.735390771945633 1.14338155630262 11.765275372125963 0.7723573327677538 0.4323952741492553 0.3512669421083563
Ni 6.795971601858874 4.337090472052914 4.2416082109260875 -0.7797631383135216 0.9878777412696986 -0.2159541536052539
Ni 4.881997842639712 5.431731390785901 9.677226834220914 -0.7506703347126232 -0.3897622699700772 1.2646762798558349
Ni 1.1551371483344404 2.9586252434653972 5.934632237705 1.0905007528492638 0.39487130906186835 0.0395088567278997
Ni 1.0386891831757838 6.66325171897566 4.773096178851643 -0.31047947577834917 1.7132764458997267 -2.2366761735530125
Ni 7.146385894692374 9.536113721531594 10.30425152208622 0.6968782285928321 -3.50777969709143 -0.9328263088215096
Ni 2.933959156989684 0.05000445760755859 2.993275132662703 0.27556312351713835 -2.51945972607799 0.3538580998743003
Ni 5.307020709183153 1.4495339794572042 10.46774439005337 -1.426699230660272 0.2515577617414765 -0.8247790409025795
Ni 2.5217153325830712 4.46090915585772 1.9740146004711392 -0.2638124107391134 -0.04956649807421786 0.053056513505347326
Ni 6.74551269484689 6.25852884442327 9.188848650397354 2.9015644795028095 0.826955222618292 -3.042501813281541
Ni 4.638792295668295 4.116475942995681 3.3237114916574617 -0.6254362706017615 0.8376553826446155 -0.7499727944249664
Ni 9.335113754578574 3.6348628582607216 10.289436847079985 1.1758724335475492 -0.9777133991421871 -2.4189745867770336
Ni 4.371333798043369 3.3847091179158633 11.62445708818249 0.7587186589383966 0.37734898390738886 0.6118803862941978
Ni 1.2955469911809612 7.297077185841485 10.565714855563929 -0.6491698667732756 0.1512320308365202 -0.2691099116926269
Ni 7.887514001925327 2.8039528253023147 5.248034303222847 1.771325270413343 -1.8787464747124998 1.0426106140362044
Ni 9.002727206713999 1.4496090950612415 7.141078038322096 0.194064295510698 1.5342795862451126 2.227404518443099
Ni 8.557761147298685 3.847205281423358 12.221606422432105 -1.1815172905381521 -0.06605986774355074 -0.3537444571145714
Ni 3.0725662253393127 7.99282607878547 5.745152187576133 0.34300521632019637 -0.5142676834450305 -0.2875125825695306
Ni 4.617712979285358 5.626036679529107 5.35617260468489 -0.19629961259912 0.86547728995289 -0.2007514777228865
P 9.293922235214678 5.71836314634132 8.472842017989588 1.2652426938822663 -3.4773730597751142 -0.7930038053735117
P 3.0483790008393368 4.70056549053838 10.29762726475519 -1.778209399127686 1.131746389762612 0.9691824788530405
P 4.694481126611367 8.74418868706849 11.054270500002024 0.5525722354521838 -0.1438748191405006 0.4662253353248229
P 3.299941158759892 9.437148913212594 0.4971591979355073 -0.0891558303310658 -1.7089374522047407 -0.9247005943905816
P 6.806469007523072 2.234698609556961 7.012779647681521 0.44111542763107253 -0.8629210991899398 0.7265983813650841
P 3.276383027443728 7.811018148663951 7.940584115122652 0.14541799525790441 -2.7445148135432476 -3.9255181405594586
P 4.305194508688621 7.530489535936553 3.778599383421039 -0.4707072823555764 0.18265939610786605 0.5073933249227003
P 0.8666659994251603 8.796149906161217 3.7736379977743826 -0.3897771823684126 -1.2793343960886419 -0.763480084882782
Ni 1.2049481832616031 8.687570300525456 7.564853046893469 0.6733847734565822 0.5323844476503993 0.044678316743981115
Ni 5.158282423739009 7.708522906955203 13.31190190347154 -2.1354965792881933 1.5742892938688307 0.7546429462071261
Ni 1.0348395084688777 0.6586661971209239 9.743038431753048 -0.3250913121542531 0.4831789324600259 -0.2185113728094688
Ni 4.099152406814604 0.7019956943647275 6.914589469029155 -0.9655806204343952 -0.6230500297577722 0.2096534081982067
Ni 2.6964342275735795 0.9726907355786062 11.53829197879143 0.652871998215211 -0.48724230389612216 -0.666140176079027
Ni 6.65874478273343 2.228341951565314 12.310052229350747 0.5949483864255496 0.7696877563553906 0.1444990829880608
Ni 2.407736792907137 7.135700700018083 2.3610562007782248 -0.5830812026743184 -0.6924875557243041 0.1858287949747832
Ni 3.2126474374181706 9.04334596959711 9.366263256627747 -0.3504513881855964 2.9929628260111487 3.8476520242095993
Ni 1.4437125201443222 4.169535727797452 8.2273745523916 -0.729123461779783 -0.11211141068597466 0.42934646002060245
Ni 9.044162851791016 6.152503169324774 12.435369469456095 -0.22173733594593426 0.04702907636434481 -0.7842263162911978
Ni 5.1875868987640175 3.098762792247283 0.2812412720207004 0.623129733955772 0.47995554042672184 0.758367703356881
Ni 2.0013425961649203 4.745822641970788 12.48118623213858 0.6753087299521725 1.0503892295403587 -1.574029869559857
Ni 8.339174739550456 8.518813706605401 2.4595205513853267 1.3029677192368656 0.6061527397818012 -0.12000289761890943
Ni 8.377417971455891 3.899391847328197 7.763500017550024 0.815114521229622 -1.6788570878795923 -0.24280675502172372
Ni 3.680035504638587 4.651017360225347 7.934153280472018 0.439928606411823 -1.018897843800297 -1.4046247673587358
Ni 8.749024254078384 0.33953661442386396 5.328880288903026 -0.17636610689998658 -1.5689840796058334 -2.399270423479887
Ni 3.544686575614073 1.7922395334263874 1.5386004290542037 0.9376890362304495 0.39806590473976605 1.254760820514336
Ni 5.320363118350259 2.2794205623106043 5.269719239163334 0.046748311899132394 0.4376920037718204 0.43441847522687116
Ni 8.9025511592799 7.4523223604853515 6.3781138249955305 0.13235293454383013 -0.6952648613591251 -0.8149260593678997
Ni 5.069411274712506 2.6072532266804234 8.367767494227213 0.7521008965115629 -0.6412950920108891 -1.4751755809941045
Ni 0.8474072974950748 8.857021713782856 12.615174629784972 0.2326490977624316 1.441845856493723 -0.8179846436885655
Ni 8.465406512134958 6.108081678987281 3.4333211200135825 -0.607883863540295 0.5958917241754254 1.163825272575028
Ni 6.539733497587003 7.780248919360217 3.638674036220558 -0.8776856590936238 -0.6232287214274814 0.2560181115056752
Ni 8.433153749651487 8.148418663098008 -0.11691462084873766 2.059351045173866 -0.9608518475001581 0.851902893702565
P 1.0074035340942933 6.493743969015233 0.3186394533807172 0.8060462403797667 0.7627336936350606 0.8179586755466364
P 6.6828381127283585 4.8449470709483675 2.2598567032391177 0.1871770814725615 0.135459855603928 -2.144921472146519
P 5.398333115340864 6.025229167734258 7.480543292922124 -0.5794839722413633 1.060636875410296 0.504319313983067
P 7.951005466237763 9.030848610975424 7.4497881477941466 -0.782595208445678 0.2991234273355816 0.6470613050707049
P 8.639928228664868 8.06634547623687 11.30443738557759 -0.05546306606431093 0.548167678626585 -0.8226815349436025
P 6.744479855291379 5.101757931701021 11.212349410808194 0.1905953631254911 -2.304750757733747 0.19461862535227129
P 3.9086686244267903 4.8536229232146635 0.22671391610505234 -0.19509839320216724 0.5516106428698629 -0.1506926133932824
P 2.6378722247760837 4.268744661829573 4.384927844483999 -0.7877723817712432 0.4188278198774657 -0.5204077349044973
Ni 6.399614727706127 7.091382493636139 11.171534408409537 -0.5319347617074903 3.712142546314659 1.0945492118870248
Ni 2.7994740574115973 7.969821925049079 12.423399797952769 2.2858546921601923 -0.8230245201053181 0.07258841289068789
Ni 1.815816443643561 0.6933912019222671 5.219367371887103 1.2454467422022615 -0.9962505387144261 2.653091527334244
Ni 4.653477396257566 1.1160488658835868 12.725801135630746 -0.2606988048107962 -1.3020117830814997 1.1915332800132576
Ni 1.2915283063649714 9.017102455436618 1.3044115714024003 -1.0305166589861479 0.3381075219082629 -0.1871547128750583
Ni 6.755446733480809 9.217848907226013 12.726680927143033 -0.5381277778920798 1.1634504057341126 -0.7684482275213346
Ni 0.37722962452972686 4.339635013139674 0.3107203908250962 1.1572080243688265 -0.5350722788952075 1.5668577772914498
Ni 8.049500802031531 2.91963085551959 2.6593487149153674 -0.11606731000992913 -0.7512025530670094 -0.04583582738719203
Ni 5.978188020705967 0.7026172759881352 1.594586905578274 -0.28672839610533846 -0.6056038092568666 -0.928170298106737
Ni 4.417849135843399 5.833421472825289 12.01423289647653 -1.3157304182191727 -0.37075873228438083 0.21730449698556126
Ni 6.248219227769167 4.24383444964074 6.544424467059126 -0.19181432313425675 0.9972509549544825 0.7126550318111146
Ni 0.10675241856755607 4.104551340854777 4.082801617705808 1.8016681443712583 0.07715597765671228 -0.9862782579930627
Ni 6.494682914065697 7.858247084702335 6.372121477683464 -0.07107866111438081 -1.2803039590907626 -0.6271293420334683
Ni 6.769174110118605 3.911954932103417 9.217679897116929 -0.6210463690641821 -0.2221101459043207 1.755869855090221
Ni 6.8623362380257324 0.9997229635814905 3.9405533204504772 1.6855931210518456 -0.17744854133088794 -0.8581535025979673
Ni 4.633778329098812 6.5224381297574405 1.8140944184210084 0.9381801169342552 -0.9720340893692226 -0.4899468473114788
Ni 5.298326078015848 9.236111388457555 5.008489703003192 -2.2071246851481408 -0.3566606023201018 -0.27120587498970716
Ni 9.305846837355583 5.130574155299789 6.171249207257307 -0.3660068194216922 0.2045248287223897 0.022168051456606986
Ni 8.294349502841262 6.004271914207881 1.1683546778098346 -0.4258423035220859 0.685941012855038 -0.5604871194238864
Ni 8.656754123969199 7.480687890459896 8.816951294809217 -0.10173032456196673 4.450957781460908 2.101552361132265
Ni 5.357329384987062 8.555460731925045 8.21194205154216 0.44700299676010113 -0.41682493051482405 1.3993174962132093
Ni 2.904617124162656 2.7809862293679433 13.464882342653686 -1.6435183033689824 0.46981793777208763 -1.2098040532979875
Ni 0.9420623480324412 1.672552207843627 3.4572191494380147 -1.2884535847810905 0.9842637986661952 -1.5795669973280022
Ni 2.2537028573783706 5.550864738788887 6.180140077940159 1.1627826902431266 -0.7921671684048294 0.5484620699385522
P 5.351263799961059 2.151893045556462 2.9994599637101156 -0.22192091271165004 -0.230224547481339 -0.26012493458519714
P 0.5348709869423794 2.501359003888992 1.4734752003539584 -0.6735176994900207 -0.04672542908099695 0.18817955459514688
P 1.864284787148559 1.5039082873296268 7.5846422527770665 -0.5371384173956169 -0.6231916975419589 1.0434691053817577
P 6.773512036251754 7.96820693956228 1.0154606215723327 -2.143922341458043 -0.4250308633643841 1.8348351180415303
P 7.476565921688355 2.1459589128375236 10.184335093911146 0.5670339194034686 1.4468546225622243 0.4171203502680558
P 7.305546470196678 6.0173983660133805 5.424774746907006 0.7560917628385108 1.1167422030442962 -0.3126379168822487
P 3.5768172752409813 2.711964378708269 6.589292895240641 -0.3314113408350099 1.6244409750225575 0.15533525437161635
P 1.2116804192734365 2.2691485034585184 12.027618497115956 -1.4847681097785461 1.4022583240090882 -0.38619717832663814
