# total energy = -381167.5177297606 ev
CRYSTAL
PRIMVEC
9.18918065538692 0.00000000000000 0.00000000000000

0.00000000000000 9.18918065538692 0.00000000000000

0.00000000000000 0.00000000000000 13.44929474577158

PRIMCOORD
 96 1
Ni 2.3713048477796663 4.771142101770265 6.594780966372688 -1.1418587956062656 -0.3489285237831668 -0.17726007946916567
Ni 9.029040891431292 4.6873367733826 6.54645782159284 -0.8792203505705956 -0.6532679481020491 -0.48913386449188023
Ni 5.488284145413924 8.674706081932566 2.899250849079724 0.5072673408677973 0.35382570397446805 0.2191127538388936
Ni 1.5808239526160563 0.9712045128610018 1.8680933642889372 0.4846375192834234 0.8745383717138938 0.3414016192785023
Ni 6.089348457896071 6.211978074928241 10.8661152571999 -0.11985377363555488 -0.08009654834227495 2.0997554171328416
Ni 1.200713491129678 4.6183444043546835 4.293351567890461 -0.8895016778919455 -0.04290579822459062 -0.0417454593679023
Ni 8.430374955123396 4.414114862313472 12.069316259557048 0.8406152366038877 1.1494471494764849 -1.8712730491535903
Ni 0.612967058300189 5.864829204771529 8.505252994418012 -0.08739770998937851 -0.913212134135008 1.3189692368714447
Ni 7.322628405583412 7.248830095026247 3.415515563817677 -0.26083455905771213 1.3906819320253985 -0.3419448933764821
Ni 3.1496008892763854 3.0337069417297595 0.9766674808134653 -2.2067223075033997 -2.0002753220576324 -0.10299659286890005
Ni 1.4532781238857064 2.853534674877023 5.721155444916925 -0.4797274835763158 -1.9134849066349497 -0.4860701379648919
Ni 2.129022908276467 6.5824398966331445 4.577857792913542 -0.08828731168318343 1.8384817136551819 1.25954358661496
Ni 3.945861779128136 2.714024532817645 5.321710947144621 -0.7936105857195752 -1.1265067386302277 3.182792000394577
Ni 1.765765404275064 7.043001635535534 10.19689203438334 1.2936464418359397 0.3193050444897791 -0.5159232167705824
Ni 6.40561249157132 9.060228970877315 9.762978000721237 -0.6553052902470521 0.1457319269538974 -0.5796240973636534
Ni 3.924101799125725 0.5832584369539915 6.619756240717517 -0.2317111593291945 -0.2941745679707385 -0.8968236654746554
Ni 8.436366300968654 8.875370221845005 6.224575522810549 1.1479865057705585 0.7183798501100338 1.1501740003401804
Ni 8.283991305867309 8.268176725806436 8.58736108112221 2.6728304005240675 -0.8896374321388615 1.5242669392041168
Ni 3.9171180217600865 4.860975532726166 13.100984662797217 -0.1956727776483985 0.0793306167105279 0.37999439195003587
Ni 6.232571028976132 2.2550065762802927 5.825239457371027 -1.0848376410262153 -0.21004344454777377 -0.5159245023221631
Ni 3.714469018806887 0.9222353686748321 9.401003306351733 0.8064676441879015 -0.790411104945671 0.3725443634298939
Ni 4.300104696819419 7.829338210183481 10.518518873940941 -0.602615416052504 -0.1674286952010407 0.10938295601121806
Ni 2.8653427721333995 2.9640529516882568 3.3366356363089364 -1.0283885568995514 -1.1048619066669425 -0.4832735490563613
Ni 0.9243948261497336 6.91991255946615 6.6798479692765405 0.792640765607138 1.6266233273858566 -1.4246626598462173
P 3.1343468492409117 4.067269235121319 8.628193205759338 -0.3584596032020536 0.024027730373165072 0.4427254524306698
Ni 6.771286750108463 2.1775785393291445 10.294318485388224 -1.089898857599207 -0.1369158713241642 -0.8389357920189358
P 0.33036850719961636 5.7451860714812435 2.099085476329737 2.040077798766551 -1.2489894652481974 2.215019257404869
Ni 3.5030167807006847 0.25015798631910624 4.0610950245792505 -0.6024266970804658 -0.9833430866241388 1.5926886223116248
P 6.764367297008035 4.423267286334756 6.221509093196189 0.5366025994968049 0.6528475727351789 -1.0015930339732622
P 6.56718585659767 0.7961827818154245 7.518532549870323 0.09458754286959839 -0.5724862007672914 0.2797432230367569
P 2.43248641317496 3.3911017484163235 12.35862475043708 0.41942997223783895 0.14717123050358524 -2.345223778147129
Ni 5.023081870235683 1.8277372392143638 3.658638313358977 3.5478338847998385 0.8687490187256264 -0.2560944732695654
Ni 6.7248905765306874 3.4629243851134714 8.167124224079865 0.6946629661090682 0.6652292342289833 0.4224936987648273
Ni 1.4226781520073153 4.601298474074079 0.24124264316102367 -0.8601777321168477 1.7581421960641657 0.054997696392118184
Ni 7.551558465465199 7.490046089563113 12.255871331354749 -0.07758123811958897 -0.77642867462365 -0.6957307452519502
Ni 0.8678482835218457 3.5388362072418156 2.1882407457467115 0.8793792447459631 0.9003167662295785 1.1919495416150698
Ni 2.0940121296408303 2.4572788228229774 10.085195704600691 -0.20297625328834723 -0.2430499813807814 0.20149941163250457
Ni 5.176403350953687 2.578061414525551 0.0024810788009506147 -0.4446738344062922 1.3515445997043045 -1.5511339387982899
Ni 8.076812036807189 5.051246709216846 3.5860125422647804 0.09671693050777536 -0.4154038817975813 -0.5129726187826907
Ni 5.775436854491352 4.075438416802968 4.0601944848663125 1.9075042635714825 -0.08260260259358032 2.0933608264604078
Ni 1.8077691494570833 1.393015476564839 7.6952294685655795 0.17382328587347484 0.026817377303160264 0.08648548258775428
Ni 7.575257362604649 5.639933195236472 9.212283263570685 1.7841381059072952 -0.43583181063463006 0.291680083683659
Ni 8.28604049317328 6.6235614804637155 5.339800768357774 -0.9965372167169096 -0.9325329459508068 1.1658060504504826
Ni 0.818051194150618 2.315719493457628 -0.10387909372350454 -0.9852739850982642 0.46234939730918434 -0.4504444183414823
Ni 1.7099870771573966 0.17812859305521217 10.737634888787856 0.40308264122806714 -0.4325541683246228 -0.5040542332471385
Ni 4.680417320282171 4.018842252599061 2.115641623276673 -1.0091579908047135 1.645163038061257 -0.3467096617549771
Ni 6.601516635858231 3.0748560931025626 2.247135124054758 1.3931956995861878 -0.7988191265037081 -0.4765765966521599
Ni 4.900819820433284 8.256322682646339 8.137375170338393 0.018684978004012982 -0.6431581133615569 -0.44740254619136494
Ni 7.517393091458034 2.500688512658869 12.582609193242307 -0.7249065954849581 -1.9745550344733926 1.4186313660504728
Ni 8.284974548206945 2.1567558557626483 6.711507453694745 1.7066478848396156 -0.01608584981826907 -0.03540948984754547
Ni 0.7074741065826212 6.215231044911709 12.174180433456337 0.5124303731259755 0.880487133098161 0.575980329963479
Ni 5.302754586187284 3.8101100119931606 11.326067753418942 2.4210209277831014 0.5247896660222768 0.31564070826431445
Ni 2.1428985712003015 8.103460660965547 2.6674528458876527 -0.33382663514472183 -0.0020820793400093177 1.6362909323826078
Ni 3.119515511519673 6.371410360841178 7.989701360105813 0.3133915072188216 1.427964984746573 1.1079449164676403
Ni 6.09564304670589 0.9925969256336427 1.0732025812861559 1.8299343383058033 -0.6687573019868999 1.522913510500016
Ni 6.684448992075192 7.855472240220161 0.9773667774681035 -3.295692739751066 0.2691006557212462 -0.5441194766991403
P 4.400717036788338 6.569216665542153 1.2080152141490683 -0.6289347706733233 -1.6572981307618941 3.5596082517269467
Ni 0.8556478082476896 9.225386116393928 13.031035700053824 -0.30134074670187455 -1.1012489925047033 0.6598507435258895
P 4.244914477269384 7.838720363723372 5.61031922245194 -0.9248921415760973 0.07421514986083348 -0.007048422206349151
Ni 1.4234867999128102 4.583692003768074 10.36543906867651 -0.7211229600728096 0.772631926585379 0.7567011142877355
P 0.42877728162606193 1.4327494941030259 3.9096159746004715 1.8721263982928211 -1.8331361330725529 -0.5146844592674749
P 1.4911283593713194 8.50324515842539 8.09196959044485 -0.2102912988925217 -0.35574426115341956 0.4212659970053132
P 8.855815645221217 7.043258932596372 10.569006989704137 -1.461725626136786 -0.01906832948536071 -1.626070025985548
Ni 8.491060304758498 0.10888995398335036 11.010426746198155 -0.027599763995139564 0.4914943943042568 -0.12011885437148344
Ni 7.449962883156644 0.9057508973377013 3.788518193998369 -0.891206319287878 -1.8341157233770027 -0.3784512158326321
Ni 8.290598326822433 2.85270764861004 4.436451922866623 -0.436969266673183 2.70033040571655 0.7526860795910715
Ni 8.750360607000072 1.260305328256214 8.754173198090866 -0.48345172650543833 -0.4412627518422142 1.0690379549897975
Ni 8.448229533309496 8.777762743979459 1.8240468642274683 2.045396382765987 0.7694560999605586 0.5241877707722198
Ni 4.6365389822283225 4.469461297936159 7.02611375916373 0.9472820792355234 1.5098643906255418 -1.2243516120948592
Ni 2.6317997435179925 5.3953355821857185 2.3338699632636937 -0.621682202875968 -0.3894743064160131 -0.5792518016258992
Ni 0.1295830701013529 8.228451897448993 4.143055165473468 0.4718102856117681 0.7835321184376506 -1.4612826250620963
Ni 3.708505240503861 4.7200043109284495 4.548457009122278 -1.1362615040241464 2.1033822152521515 -0.3311038368969201
Ni 2.8795492455640277 1.217051854492975 12.613985650893587 0.7250382359668158 0.8675015194717703 -0.7786485650931041
Ni 5.991152872462892 0.12129626690617785 12.145116892598386 -1.0847024009999318 0.8010850397197494 -0.23295351637672781
Ni 4.043276284198053 8.995298219738363 0.5808646553701113 0.4984654263054512 -1.4072670900775892 0.3570796921353915
Ni 4.03609034485604 6.926004986299595 3.3355733670149 1.3021958740678476 0.06646481649145328 0.070411202733711
Ni 4.647161675168689 2.4125367017791683 7.810839470427209 -0.5620894309139998 -1.1348916202598132 0.9326825841547938
Ni 5.404543141291469 5.825223835763762 8.858230561920807 -1.7323391189581328 0.07729635988931849 -1.371750128117902
Ni 0.27363542420262 3.3543450254392773 8.528977621263545 0.46046837823638764 1.3314537424917006 0.253308425883996
Ni 8.332556126100732 6.478556208319268 0.718520420755298 0.3271209409897721 0.22204946786971436 -1.3532014185814374
Ni 3.712401453139428 5.014021338021842 10.585146866763358 -0.822466590719319 1.7025220355967003 -1.011853535359006
Ni 4.89177766658093 7.057823784076027 12.860350343401462 0.7508806509512165 1.0045546877047475 -3.8702435363568695
Ni 6.9660881927060645 7.130960473619604 7.423674474883461 -1.531355470619782 -1.6880230706495767 -1.533157042604895
Ni 6.254027766013982 5.753814712200105 2.1026628243934784 -0.5266346896508156 -0.653379533979249 -0.20962898271817448
Ni 8.604803984010967 2.0506943316123816 1.8144579541208314 -1.7313075923698247 -2.286756635149171 -0.157637934362864
Ni 6.349962812984073 8.572669418948285 5.570092664825861 -1.513324324149684 0.5344788682855828 -0.6893101864375871
Ni 1.607261225617297 7.191756093423639 0.8364562042632995 -0.7022657181569906 -0.9309761429866482 -1.3062101374335635
Ni 6.3544011872835515 4.9730192135409474 13.212157209277443 -1.0706299820672658 0.8353784136849807 -0.7153626605502648
P 3.9310028738646654 1.1000276377148042 2.1524516435020358 -1.5214227848871025 1.0486655619810328 -1.2252152456467351
Ni 8.072796364821947 4.242295560757269 0.9028820351093428 1.2693155784000592 -1.1947317323458972 1.2402564562505736
P -0.38901110195527017 2.339243796162938 10.750869146895742 1.7940520225868972 1.005769533948455 -0.35570569460600027
Ni 5.521337628551033 6.192074309436171 5.012525339396676 1.4876814267705991 0.33443007305667566 1.0718255450372638
P 4.586200650111257 1.9065804100001278 11.256723438768521 0.025572449152465634 -2.2256433127776183 -0.34572827167831427
P 7.913750024500269 0.3025381543975459 13.226211142307715 -0.5006359515942087 0.46995626312216476 0.7324910927004353
P 2.737898024391236 8.023027761911026 12.647030863768027 -0.322625881332896 -0.2568040977420803 -2.8854490619981856
Ni 1.705263838254846 9.192948308366685 5.446816129469295 -0.10223014701652071 0.7010940664463926 1.2422945697265249
