# total energy = -381161.0758668833 ev
CRYSTAL
PRIMVEC
9.29901159442170 0.00000000000000 0.00000000000000
0.00000000000000 9.29901159442170 0.00000000000000
0.00000000000000 0.00000000000000 13.61004342693825
PRIMCOORD
 96 1
Ni 0.3240128959927198 1.6456553595396488 7.965196604289108 -0.07503841709307722 -1.5649307354720663 -0.36020435380730226
Ni 0.9938039542338651 3.6810229909371 7.098087031880785 -0.2767226910428783 2.8209092304435868 -0.02393697043157168
Ni 0.26772876924491573 2.2998036206794747 12.414822879289687 0.7409268821726144 -0.8916210382277935 1.9398981065211558
Ni 4.526312432922022 6.455764323632262 4.909550732991726 -0.5261862892594873 -0.39832481482810755 0.9603882776001783
Ni 8.968840772464608 8.998727795341578 6.443225536560915 -0.2813311363491671 1.4416586801835818 1.7196923767283998
Ni 3.8039280255870453 4.867893021391149 12.058688407962828 -0.08254526699308365 -1.0036828266227553 1.2327853446845092
Ni 1.3581299247680423 5.630002805742436 5.488998175159777 0.546414186270588 -1.1720810848259169 -0.5791260746813123
Ni 1.44466652554374 4.104974223041638 13.100660311730119 -1.3136853627646858 2.437448220101189 0.21705072910354234
Ni 3.1145644079957293 7.9062055353012655 1.7409832457627292 0.6832686082291974 0.78307523340589 -0.9428687806591761
Ni 1.0187532020182188 5.231958619604058 11.045489505497944 -0.3282897644868927 0.3749732845863607 -0.1831867293662458
Ni 8.078506918900331 2.2923272154544954 2.5352927171445345 -2.100418504638137 -2.7113732937942725 -1.6780893564756327
Ni 5.799932941415667 8.139322453939345 0.8967752788122166 -0.16323779704814467 0.2376522074039778 0.17448020273118336
Ni 9.208132234721326 7.879963724922045 3.0659612647253303 0.5314611645051814 0.6458240902294943 -0.8233374233600466
Ni 0.9300685295920608 8.405701936619403 0.9024290777883207 -0.8623675406793149 -2.4001327714801826 -1.2003925301761005
Ni 7.461024660001916 3.77050737835001 0.28362263965602924 0.5790093465977899 0.12464888103135309 -0.32818512058822835
Ni 8.935931570858633 3.545341114522077 3.9097703040836143 -0.6930531984197871 1.1425313961932582 3.69038638558449
Ni 4.190525128601107 0.13040840700819956 13.185178097114841 -0.5260592767633199 0.7680201388449804 1.451888842552022
Ni 4.985488320489524 2.482650083289892 6.20977292360863 -0.951736258352135 -1.6189940929753732 0.47357817614546827
Ni 8.045142065732136 7.95848457780728 12.968887739738703 -0.9052573980643056 -0.44206030804284513 0.3968052928597876
Ni 7.679653718763728 6.495359514487937 1.4275163586825088 0.35539870488854275 2.563902015551765 -0.3057015947737316
Ni 6.54066429838856 5.864254203780324 12.053952421419195 1.3928514288728915 -0.8263582124642413 2.6600823568297796
Ni 7.845761960721206 2.9958625265319667 8.941226427991847 1.3461738223106945 -2.004964757113502 -0.6652171500441253
Ni 9.322351992654692 5.588138656087139 3.321490660817695 -0.11712351918858539 0.9055939554681178 1.0502868996345396
Ni 2.8285733101173096 3.3871370323173764 5.269387140786326 -0.2700085122474963 0.3335844372269287 0.8385938352984847
P 2.5755100118678107 7.053095624666831 7.514948697637656 -0.24750441760770925 -0.9784333080273472 -1.2590784740530832
Ni 9.300406325576393 9.245988510431392 11.401963390743598 0.3429933892456544 0.07479493362370346 0.13211793571488858
P 8.673197300676325 5.720537981451891 12.780375389437266 0.362335284107376 -0.44202328415732267 -0.3054203160878869
Ni 3.470409680065751 8.516713535594288 5.791018909016829 2.0706405020447565 -1.3947337334972687 -0.3361938498253178
P 2.9685513298332533 3.166164622664153 10.98062332106092 -0.30799887544834054 0.827495154282162 -1.160476410707453
P 4.974450393870057 0.36244385061186907 7.324162739030862 -0.006209471244821564 0.5296253968480233 -0.47785623469553185
P 4.76885854919459 3.33511836213263 0.5183696750054749 0.4822484502259565 -0.7841363276805527 -1.7992767613209466
Ni 8.243648063664526 4.846933049529079 6.011570073450288 1.1251687365450944 -0.09551082601481614 1.29129876753937
Ni 5.804452260991961 1.6858456871296517 1.9817857973839494 0.14979247017651623 0.6979634912372109 -0.9737757546506779
Ni 6.320891461215463 7.915067493235849 9.208419574175869 0.011847900477521529 -0.28963374267759145 -0.3217673899873426
Ni 7.975985317401076 3.5824162732683384 11.470911841217646 -1.051737001817505 2.2788291527719786 -0.09626210235854389
Ni 6.324285600403421 2.8327671642920182 4.352328858147336 0.5020513438844966 0.3104437374444073 -0.8110652908609127
Ni 4.8877929059452 9.25006147745694 3.197652005415774 0.41379925631462283 -1.1576757080338642 0.257815312615414
Ni 9.13995188259502 2.0034627230306534 10.335045028895397 0.07501784826778693 -0.9181262836071736 -0.9136217108686008
Ni 5.727614529183494 4.606525705895498 6.255679353551611 0.6288111006112654 -0.47142564857883973 -0.7130669225375525
Ni 4.041713047985 3.6346581197284578 9.06774598840168 0.25970713032148823 1.7500763883368957 1.4529589356877495
Ni 3.9834454420898227 7.523448924025907 9.213808351324968 -1.539057210139414 0.48700756217749674 -0.6583289075647243
Ni 7.273054442069405 0.5334415128022996 8.177458629894772 0.9616074947192601 0.3783671407592581 -0.6389613016713899
Ni 6.788427160097961 5.419194215630136 4.493247007923287 -0.9072096366946697 1.0113406002783292 -2.09971839324732
Ni 2.611552980340474 3.4223151927229716 1.2772331744512382 -0.7592033118842989 -0.8430685832403867 1.4297210482057312
Ni 8.148714455527939 7.3231947119364325 4.998928181772687 -0.3903582516828632 -0.9396219915871044 0.2497770156919698
Ni 2.842689209534622 2.4343975127520565 7.572110651068591 1.8316600627476582 -1.6724678965237971 -2.136658203696462
Ni 1.1539794268710228 0.8952502409305044 1.970503306762721 -1.8134389117539413 2.2022922967565037 -1.2590069973851994
Ni 1.256166263957219 7.731040056168252 10.09143882531481 1.1540977608746188 -1.0777997603428275 -0.29190042722458115
Ni 4.1120879668191375 9.28016237759781 10.97530242669558 -1.2852551324484511 -1.651227756198098 -0.6114479267424695
Ni 2.10975042417682 5.2782119026750145 8.765793137328387 -0.2209480072754195 1.8335025152730358 0.4829583318087876
Ni 1.5718305074487113 2.545306822600729 3.5100978610361655 0.49211377305581055 -1.0578672830849587 -0.3202730648300033
Ni 3.941460405285366 2.1926976065236095 3.6550861881342227 0.3557473464772132 -1.3970163588838587 1.165493147195754
Ni 1.7876884607913148 3.085542193185827 9.253631367961752 -2.6241326782080483 2.2324109705187554 2.4980162114922337
Ni 3.0753876726563774 5.631081491073402 1.0482561757213198 0.2714539864447712 0.748882132463949 -0.05900938865467257
Ni 6.637057851326544 8.53111770436729 6.349670041924751 -1.750160720520586 -1.013693673891538 1.0031099848384206
Ni 7.629011302277112 2.5751380514088567 6.728397391528489 -0.7924407337811901 -0.31155933910608924 -1.4874358864186965
P 6.4619016712050055 4.0423639787881696 10.021877569984635 -2.12800412756589 1.302004841102964 0.5594262822595398
Ni 4.957433202872902 6.455745725609313 2.6801852644244106 0.015440502924786312 0.8266418051429312 0.946423073669338
P 2.228601089824165 0.23825555237853133 11.895708353465158 -0.9983734985946999 -0.07454373684484582 0.5454168553543253
Ni 6.606622186772616 0.8794512204364242 10.304408505693633 -0.29013973577973257 0.19800785353947833 1.1634452635277899
P 6.7450472715724255 7.869539533059854 3.1479348405708065 0.0734834139011315 -0.10641770273530705 0.15422890868131503
P 7.100148622724539 6.4930533596424205 7.090220068173904 0.4305178546208843 -0.5785524615660294 0.09671307385303343
P 8.955775661343841 0.6433084034647528 -0.03264603958126385 -0.2810020351445225 -0.2695747671441874 0.15749703790962552
Ni 5.351609000238155 5.622359018310926 8.162038079167678 0.5107059342357012 0.7606675551346512 0.25525989318341197
Ni 7.209393409519391 0.40044426099977876 4.573260352150075 0.25191565930152743 0.7177309036721251 -1.889806332071087
Ni 2.03427964705501 7.164274605848245 12.826199988079278 -0.45685957783920667 0.18550586441772568 -0.12319157975953623
Ni 0.4921129862078971 0.639785008017309 4.2729822530432235 -2.9372357076521736 0.2224904120618749 0.4340166118027622
Ni 3.465137140560075 4.823006693006849 6.893268864959943 -0.06833966491666295 1.0120527958540055 -0.2729963912312266
Ni 7.843753374242853 0.017306390253992127 1.6813849513256431 -0.3039362753431927 0.17053690181271922 0.31669100390569976
Ni 8.412220543662576 5.002263737188359 8.965248564332256 0.7198962867545602 2.849078493788951 -0.06866336680466885
Ni 5.792428639156266 2.4407673356116475 8.54839991719145 -0.24171197929564822 -0.6787498944232374 -1.3293127848892978
Ni 4.919195667692409 2.5043167800239745 11.688223230053614 1.1003421644197178 0.19421033417025907 -0.2654419759227364
Ni 5.622284626219136 5.661926312132181 0.7303136744187326 -1.3359238624479122 -1.3664989070212916 -2.28763672376128
Ni 2.793181272447816 2.3536634951360447 12.843267393738392 0.47597367296083826 -2.488090981958721 0.354395460435009
Ni 1.8182357134829297 0.9966494517448649 9.720945750371174 0.0741848108435303 -3.073631701917126 1.7144748370832021
Ni 0.5328938010264896 5.8033642766495195 1.1502607521826282 1.396037282800041 -0.36538358401539656 -1.2294269697352376
Ni 2.4865370700859635 9.181360380688098 7.784359658058192 -0.3163091950862488 -0.4440246308580676 0.40370793351689177
Ni 6.928991017536758 4.730044475302718 2.3351975181512628 -0.15317527060582006 -2.6414966234077926 1.878434599899036
Ni 5.278267696743858 5.938767182720327 10.362768171802404 -0.9451514060457659 -0.5125815539918592 -0.251346931282251
Ni 0.3490197976482115 6.46601183427645 7.360433533284634 -0.3334193724039742 0.9311466071262415 0.7169477456491975
Ni 4.096567916669272 0.9763590087089127 9.212352126128161 0.6909641771012422 1.5244661996991165 -2.9895926239873347
Ni 4.600248873150646 3.85133438608076 2.4885558854769374 1.2588172499718966 2.5255491268051795 0.6342518120108626
Ni 2.2778300565667546 6.916083989611047 3.706055929824718 1.16405692896986 -0.2718396519189641 -1.295073918311086
Ni 3.379335161690812 1.1957319883886333 1.3476555182438918 0.5302254923258675 -0.11667511879725713 1.6164281320204095
Ni 1.2436404955019358 7.9596283562185635 5.306855647717931 0.20501539520556303 0.10080832696832961 0.627018527487217
Ni 2.5375421480200595 0.3043529259346949 3.5241440178674237 1.8598943750030033 -2.1065112477994363 0.7949179916770891
Ni 7.0567129401301605 1.6015036530617837 12.603525859326338 0.5431087760464388 -0.9440671718426515 0.8806316290958254
Ni 4.43660486923374 7.16431180189414 12.589575482313261 1.120595001131483 -0.11704870008659198 0.4900517483204592
P 3.111198165842194 6.55670509318096 10.98541417177225 -1.0469974302499905 -0.028560071025879846 -1.0032477959678658
Ni 2.3373716270338503 4.567200186372563 3.332773151438924 0.5036942788045583 2.2661978371612133 -0.40999942295255837
P 0.22397970996386865 3.4430612873211426 1.63701564797929 1.4940477353082593 1.4814413593981584 -0.8445953042975584
Ni 7.958903033323603 6.981260761031299 10.639365408289935 1.4500083376998576 0.39042227215157926 -0.5004780858601058
P 9.066684971192513 8.748193828212969 8.974721467320673 -0.6559226121160768 0.806148827395902 -0.5130114424404262
P 0.241231236050165 2.3515805165659014 5.762547195686179 -0.13386217209950493 -1.425457644943687 -1.5190051765845451
P 5.839360750064814 8.832693945475892 11.852414945746329 3.2911585993261383 -0.7411325704255171 1.7320760951047334
Ni 2.2672942765668767 1.0704092107554852 5.790692513714098 -1.0316029500717911 1.4734223457484237 -0.6279626365680411
