# total energy = -340898.0460326097 ev
CRYSTAL
PRIMVEC
9.01109365634668 0.00000000000000 0.00000000000000

0.00000000000000 9.01109365634668 0.00000000000000

0.00000000000000 0.00000000000000 13.18864642137505

PRIMCOORD
 96 1
Ni 6.413447599599792 1.832306754061976 11.35869519720192 0.4127487035629214 0.8796666940793947 0.9906301072038552
Ni 4.58106875678931 0.4010702578608504 5.912945330924383 -0.6639876485123983 -0.8409358531681 -0.07556420768956018
Ni 2.6662834633427135 1.7603531719592564 4.628621198632048 0.2871749967244538 -0.8908733614284915 0.7731970550602297
Ni 3.2923291886509713 4.300697591661693 4.558497769632028 0.3481193976183101 -0.150053951368019 0.3548939973379824
Ni 4.9280679477237515 4.639190310272409 2.4627156508735695 0.8561809522526287 -0.2640828907916807 0.3416499878438826
Ni 7.2915696562469945 6.150539933797796 2.646117537057469 -0.09113969353031401 -0.6522970995483476 -0.27209650512477657
Ni 5.175764887590947 4.46856525365187 11.615082435701535 0.8252783491365011 0.6930105181073097 -0.1538758962172705
Ni 5.627157597455884 7.940954113884124 12.459828302899737 -0.49661268936742864 0.10235047464446889 -0.44685233011484976
Ni 1.9127307641141704 6.4617740943796145 0.26176145470074863 0.47485087221030475 -0.010010075937834375 0.7642935819230127
Ni 2.7034181799169534 1.5145305395532218 0.2646513124064897 0.1908136497838843 0.6912279722855902 0.6527200460183791
Ni 0.6312559396065408 9.059573246641467 4.795787797543001 -0.6036927082770829 0.3994800114784733 -0.6732842433229759
Ni 8.576857975550599 2.382064561263581 1.4304408166394889 0.459525554707144 0.5837239784646399 -0.4260827016676662
Ni 7.001709809597253 0.7171839256071811 4.839706065351672 -0.6650127473428031 0.0772549651284218 -0.7324412132991064
Ni 0.8507517610581229 7.4690251217884915 2.736815995990505 0.06488435937821084 -0.4397296030271395 -0.6062828376017623
Ni 7.680055921946736 3.827570124122146 3.9088646058125525 -0.47342442417642333 0.35310913752341766 -0.9241529494172278
Ni 7.687192708048847 3.9142568442008137 12.528897433952853 0.06291103770192391 -0.36163054473086753 -0.043893358948840534
Ni 7.884787967704256 8.731127897353801 6.838946031001314 -0.2875102685766855 -0.6428035582356155 0.39592571846831165
Ni 6.905210008628184 0.6608402608841161 0.43674067173105896 0.03421161288470237 0.6535733951576098 -0.15535865141038405
Ni 1.850220808065759 6.381187884643281 9.27045806708399 -0.11036743141167442 -0.08634921412020612 -0.783375024034496
Ni 0.13770392739648318 4.871595424362733 1.3849789485034298 -0.5854250203161465 -0.08589669996381981 -0.2893393513656243
Ni 6.366986401187566 1.8205202436812173 6.919014102857759 0.17845332844631845 0.9597527008987083 0.5267182505035574
Ni 3.4786425591651637 4.3589362893611145 0.3908841176969288 -0.11280278032604445 0.34988266016632 -0.20242809409436105
Ni 5.996945844011839 5.654974843285703 4.738746674178139 -0.32181007029982 -0.1961584590355654 0.23997854154430928
Ni 5.421596531090546 2.7449052546822537 9.322829641764363 -0.8456826238244662 0.23038447009797094 -0.2876339386387433
P 0.25646923945103955 5.672870875102358 12.361942595740635 -0.29308107779624365 -1.7612429464766766 -0.5597558976848166
P 4.062264055977542 6.157253198502432 12.57096932869041 0.15455261056932093 0.3158561667092302 0.5086032860704015
P 2.361753556371968 8.383272652530849 1.328070288213948 1.0539661482583398 0.14631582448182545 1.1542211738263604
P 6.118289229934849 7.756515050831092 5.864595407301296 1.1195259364370205 -0.47671003690623065 -0.13761572560466623
P 4.685597442123254 1.0954876555804272 12.515181648440198 -0.074620098608736 -0.5038477736632871 0.32151465054658823
P 3.9572037161233635 6.075396424573677 8.397052416807803 0.09753222732021913 0.07185873381351496 -0.5507899467407805
P 4.781953065595311 1.1027776302731136 3.824456791296036 0.06408603184663157 -0.2195380143017703 -0.618494806286922
P 0.16367930570196834 5.525800817056212 3.627603144640885 0.700719199605477 0.7677339750631295 0.062405558820415104
Ni 1.3807788777935892 1.0151807897445553 2.5473865893221337 0.5093550766347614 0.4963128987388227 -0.38881250446229815
Ni 1.9728437692747516 6.525104059942283 4.799757184257622 -0.011393586548922313 -0.6570418133221846 -0.20420601193039029
Ni 6.028899181787199 5.654587366262482 9.341043765183803 -0.891212232825149 0.1457121294595555 -0.20509252830040164
Ni 8.547743132247671 2.2265330863615223 10.09586883082348 0.22094954993731625 0.24409693458805704 0.024716528910073563
Ni 2.409404219134545 4.960354695960952 7.131879561665486 -0.6314868476712158 1.0897265936874005 -0.7570047615710834
Ni 0.36107181575220276 -0.05067478576241119 9.107788904970464 0.8989337698391229 0.18435503864273411 0.14535063235507872
Ni 1.3918985672506656 0.9723961175061444 11.257208657054935 0.17548884650135585 0.5262855338415131 -0.2036329130357396
Ni 4.263409686496878 6.88605242371267 1.692011236156696 -0.4046175898153548 0.6248076358788273 -0.7571346022807284
Ni 5.44552098450103 8.024775306209671 8.031912092311781 -0.09119651491017841 -0.5886396705987023 -0.17419892404533868
Ni 5.1014503989746505 2.851785835436212 5.087138079068107 0.5374189247505132 0.41578003419007753 -0.23954685332352937
Ni 0.7149194377947311 7.299147985933705 6.778384273381281 0.3134462717161569 -0.17089634203466697 0.3660207033787632
Ni 5.035876671114727 4.398747300723646 7.417360917952833 0.7885252007768678 -0.26457937081212496 -1.297699785969707
Ni 8.012141753033966 7.105112108235789 9.019161195338267 0.1803873122442377 0.3688113787500229 0.7429724518477334
Ni 4.6069666396901505 0.3990535751213904 10.444590041737863 -0.4203247161379664 -0.3573036352207395 -0.5991773369052326
Ni 8.067541956260957 7.27144788432021 4.66357162612655 -0.11651133952588322 -0.32148611130149796 0.7903648250887678
Ni 7.117295106733332 6.086858535586159 7.049819137022202 -0.536738610854037 0.02336618552976621 -0.6262654513712763
Ni 2.2790317174611396 5.341911430710539 2.4940517287398447 0.5095332540838385 0.3424868819228811 0.05690725471000521
Ni 2.360636180770122 5.1187607097096945 11.211642260233544 -0.24195314877217688 -0.11432538761815793 0.9392165286185695
Ni 1.190329415333855 3.4273333924158984 3.5683461933688143 -0.7269002288762191 0.06307584541456233 -0.08410052729534549
Ni 3.705704094772468 2.5722076465421635 2.5545882552978996 -0.6919044295273244 0.3698110236591308 -0.20304798706654706
Ni 1.0973529519480243 3.138735098865016 8.114380719493482 -0.9613660681324152 0.17466532215879596 -0.2001434118252424
Ni 3.3839990434701277 2.576235605364946 7.003448049545609 0.27298147883289114 0.38847183329342777 -0.36196453103151854
Ni 4.146878224536657 6.6298400004281834 6.205297646053724 0.03691744185163964 0.5822566498904939 -0.29135355358217563
Ni 0.7900737603311245 7.426663970947555 11.254966696976394 0.17239323829516762 0.28585987745745606 0.06676666400258824
P 0.19867659088300055 5.587932307174966 8.00025882395208 0.1627271759603133 -0.879687262904685 -0.024468160344693346
P 8.37664048766828 1.520549950053487 7.853152721531679 0.40386168548593676 1.0077261434541935 0.8202449004776518
P 1.7002491778922384 3.1084848577731146 10.282158772494409 0.5334450277044296 -0.038634167432430234 0.026104410396535688
P 4.014964825863931 6.184205379350176 3.8256832011299973 -0.30868844531619744 0.6086641933497453 -0.3685270147403847
P 6.939037653864704 3.9154192752704757 10.337814890778596 0.23620981853049644 0.06052196864445706 0.6171388064796598
P 6.185106488706503 7.761462141197327 10.171637709940889 0.42990258963438865 -0.1893532631882739 0.6063340025546718
P 2.45060293890582 8.434807096619194 5.723845730280427 0.2738793080568122 0.22388626396813702 0.6386805372061776
P 6.8766718753133045 3.923331015419028 1.5076866139919174 -0.10413996244472387 0.6227762072710952 0.5200940603188204
Ni 5.172737160153688 2.7888163136160737 0.5507814674303922 0.8864657192790991 -0.12246627155773747 -0.17240712225223856
Ni 1.3416346873547396 0.9087147192945078 6.964027218534366 0.15376585300196743 0.36487219159661677 -0.11488640232795053
Ni 6.741090961560328 0.7302707367891197 9.152881318270426 0.4467425440098628 -0.5619246232013612 -0.2051758320428273
Ni 2.6820348548913113 1.4604729892671586 9.134575281696641 -0.0057243040782869155 -0.2698110515247095 0.21768784846690897
Ni 6.44451785020595 1.932636269795436 2.667772997108722 -0.022569400660083713 0.5571444282038985 -0.18235317772135692
Ni 4.005160756067092 6.890954458611089 10.536752803374931 0.8646357678882013 -0.1181614735347965 -0.8945775497529561
Ni 8.248998347344545 7.126702688413387 0.3943957408585355 0.5916118658531487 1.2232277829030611 0.39544517928746736
Ni 7.588611344466662 3.8308681843663033 8.129112055250719 0.1644690983520845 -0.1927113810272294 -0.32403381742401616
Ni 3.0983023220466186 8.317473647331843 12.394478951269539 0.39221664504784065 0.16496454993126428 -0.40868996011251557
Ni 0.05025667102107541 4.672567400830764 10.060325473372513 -0.023144556437263365 0.6255848803644839 0.674910208962173
Ni 8.61388455900208 2.4075749671412012 5.7390789839491365 0.6291363451611681 0.26781356147870655 0.5657802495020257
Ni 3.6334801798628504 2.8322768178717297 11.462041627060364 -0.6295585203002512 -1.17185174242393 -0.506281065695128
Ni 1.207937092156487 3.293248320194425 12.47827941807989 -0.8589454023716433 0.30153666476276453 -0.010847741347781319
Ni 2.9220903874168527 8.142352055023231 7.942558989647742 0.49583210244766224 0.2344064467731705 -0.7543033034795202
Ni 5.650811718059471 7.868117444612204 3.681439022025292 -0.5700904468416054 0.6211065328781562 -0.35409566980640306
Ni 3.0956800938197064 8.525701997391911 3.5823656527345515 0.5618387483557744 -0.4686097763965994 -0.09880749448821693
Ni 3.4362273417628466 4.075222008521525 9.144373944837344 -0.5518135029092883 -0.12611672382613118 0.9354177236977695
Ni 7.288605006464678 6.1538019496677 11.44551618257468 0.26088186735587976 0.08216911460058751 -0.7750737032576523
Ni 0.7297444889250246 0.10321937343920112 0.1978340536348347 -1.3462391283309911 -0.512601094375885 0.029586969628497432
Ni 4.544555805670935 0.44854520429894407 1.6092785839335917 0.22834969905612928 -0.8737593274560242 -0.20438393226915122
Ni 6.240479658652803 5.8481907114693605 0.4373471183278671 -1.2421595868105575 -1.2599824739245913 -0.02330190795073406
Ni 7.8532581513263695 8.79732339066959 11.189419101287804 0.19109544269036122 0.28687623453711236 0.5943914854808151
Ni -0.034360200866108914 4.9223639254982015 5.84632901953919 0.6513676457555427 -0.07051224708794954 -0.0620782573879834
Ni 7.9665546306973765 8.85431855745728 2.692119169697968 -0.16287398595082273 0.33864565379992 -0.549621380353976
P 8.669185640199876 1.8278462627481569 3.5840408150279637 -1.305313593761223 -1.6669611077729551 0.5154401064865768
P 1.8553300981161336 3.3949565332430653 1.4035228779472855 0.0801788236434361 -1.004802027828863 0.6231790991364686
P 4.553819209853978 1.119412108990912 8.042924549755456 0.8564020671244994 -0.6609560607749262 0.8249489908215406
P 8.503859106594541 1.7036914156334082 12.466040550802257 -0.2440100313012056 -0.4347997698256899 -0.9672322971052052
P 6.39063151069759 7.8513027440231395 1.454576129639354 -0.4054323724071663 -0.4766115636551534 0.45641760520578173
P 1.7403485442487947 3.3545778229860477 5.801500631280628 -0.5730006785098648 -0.29793300657190624 0.45651762111875577
P 6.848683418705785 4.049918857795859 5.968337424167167 -0.5759998703475048 -0.7023623916358549 0.5642015921609961
P 2.465218932665446 8.399573720786805 10.03720571061723 -1.2164033037820599 0.9640541564875398 1.2322559545436003
