# total energy = -381165.0940609163 ev
CRYSTAL
PRIMVEC
9.31039487899293 0.00000000000000 0.00000000000000
0.00000000000000 9.31039487899293 0.00000000000000
0.00000000000000 0.00000000000000 13.62670401454829
PRIMCOORD
 96 1
Ni 1.5233295236563729 3.33941509526558 9.202603511247318 0.6007310545455976 -0.09307213466633649 0.34051715979102004
Ni 2.956702014641321 8.01011420467465 7.848968032776124 -1.218427019080308 -0.7564915693800907 -1.1113305451104214
Ni 5.512805680622591 3.2516553157208845 4.617326341297684 -0.6881508760221633 1.12353197227262 0.32797454723931907
Ni 3.1390367825814147 3.602740985872692 4.584064025532632 -0.7821236681258982 0.6192635661321463 0.6568505232469849
Ni 4.181121319511097 3.276001997612395 6.863634075120443 -1.6765952884286093 -0.01257680822374608 0.277543901392593
Ni 0.2627197839183403 0.23225710381094683 7.481727896945555 0.2893789463543081 -0.4688283201653087 0.19721492532453777
Ni 6.344568403430198 2.785921446405764 10.169077402552087 -0.21526201263423572 1.3837672071834362 -1.9803816684574989
Ni 2.363955742127734 3.6082620498733293 12.304449922579922 -0.4783928239252923 -0.6713181207355405 0.7435458078527001
Ni 5.071008835836371 8.952382001046441 -0.0766124440843878 0.1671952390339959 -0.7398161656069387 -0.4872335621453738
Ni 1.0534711495313331 6.973047970436946 4.108015170034871 -0.9613100180834993 -0.014073190263614473 -0.23917018671040102
Ni 8.435152339172259 6.510945155017692 2.421411118273318 0.26582275630092284 1.2851815988980382 -0.11785268404512607
Ni 5.157399987374164 0.25544650365308286 2.094138644402167 -1.4511972158016362 -0.6326926950538587 1.5816861005535339
Ni 9.330318849238445 2.841281052725811 1.068961784074773 0.3377390828252506 -0.7672650058465108 0.9537250066473897
Ni 9.072774713680904 0.38035848182870974 1.9061301219899176 0.5376739781841128 -0.24388481857725097 0.10142821994051564
Ni 5.03224035270205 1.4582126237905122 8.708989665288172 0.4222998375864663 1.2464026783576276 -0.8178961977398173
Ni 0.680804915725096 7.456983661204419 13.594544750991847 -0.7370123776095566 1.503777046780881 1.4962300876715584
Ni 0.6919066302518408 3.9347217262954826 4.338674610131636 0.42444079518886907 -0.7260391664275044 -1.023994541596914
Ni 3.4882231322338466 4.411320826114386 0.8445738257837898 -0.13153403818696058 -0.06993143488381504 -0.18087247941077236
Ni 4.138032813280155 2.585422098591736 2.725558434025106 -0.49048575053408433 -0.5009277718030147 -0.209344104487904
Ni 6.194596567136334 7.345305477920033 2.108650756472644 1.6221048706902126 -0.7778342967219248 0.18822172068699197
Ni 4.055989616022797 6.617986761788896 9.458935433427316 1.6065244997534527 1.048338260548601 0.7150366446694136
Ni 6.15165702721907 7.143726124331851 12.258228468564472 -0.09926926461598388 1.3274783027837203 0.0029580541870594217
Ni 8.123673087669204 7.94861904831005 4.315781280837933 -0.7281083902517074 1.0314396850210494 -0.22307199559695776
Ni 7.286715164672126 1.582646047683453 8.026373877812444 0.4723085654044253 -0.9637520518660887 1.2634681184803465
P 4.7368494630760605 4.439940979129493 8.944540786710292 -2.0274822214897275 -0.405763787604656 -0.1627279472912617
Ni 0.5551015540080626 5.251947044585748 1.2476012563962282 1.2236908385824086 -0.2415759679384162 -0.44675437108440474
P 9.15646585078331 1.6348308094432684 9.426067878393507 0.43834095020972896 -0.869016156344084 0.9277218977154087
Ni 8.6668135777285 8.691430261063548 11.667293067801515 1.5242571690121038 -0.5130307257141359 1.538131613001351
P 1.87357725829375 7.199867803798699 2.095964412784165 -1.2680163999726615 0.6330349088846259 -0.6398195359066271
P 8.386254146707932 1.7666380658631986 12.828097239455182 1.4245400182254242 -1.490938757365632 1.091248943869198
P 0.9721169214747287 7.109082146007449 10.338252858757778 -0.6821764036062833 -0.2979191226148353 0.4213223041645454
Ni 4.583898300508666 6.4350654389887 6.90710337649072 0.44439769792677014 -0.10422866550378825 0.4212500561657132
Ni 1.5577314317210504 1.8094193290721818 5.958671167851102 1.4105773853977448 1.1329951745680487 -0.07404005773554989
Ni 4.9970563714905705 0.8710786571446895 11.308065457567823 -0.22451515580138753 -0.9582473199977756 -1.1898340379339638
Ni 3.8929087441253967 1.4083647710764975 5.013222940682318 -0.004923919664178616 -0.5656262404226646 -0.05248547149322574
Ni 7.2788478812310835 4.7247552604844465 3.147319309621831 0.38008463767099704 0.2196179756100863 0.5517476826683595
Ni 6.813961257824999 1.2034988481928257 1.1703417398868077 2.351443533804596 2.5085309949806285 -0.9064617027850519
Ni 8.358779172229212 3.822792162356767 9.023398897973353 -1.0148753529044652 0.8007608236111112 2.169574751918825
Ni 5.921978902713647 1.7092301727300991 6.285303086573444 0.21657147547427863 -0.21431070446455994 0.0001758634562319552
Ni 8.530881816498649 7.927409969400352 9.243715420703664 -0.3425249342496682 0.6670092089475416 -0.3246516535136731
Ni 2.533879754059651 5.541155832194159 3.2158615036627913 1.5000024102297973 -0.6473677805675303 0.17399477845433262
Ni 4.604353237455377 1.8772269329788254 0.525920915237748 -1.0383634087240763 1.4819609793470543 -1.3954500428380032
Ni 8.079681473161596 6.105393676427897 13.566623808611558 -0.7728394146104948 0.5066883284358757 -0.6372726011150573
Ni 8.341303561556034 2.3451766762098845 3.2484152983984194 0.5083986262587631 0.11370318065312678 -0.12503531783649435
Ni -0.01312858743220621 2.51428137341658 7.535676047443516 1.3617919884639258 1.2095883377427554 -3.037054159903408
Ni 8.57202445025719 1.139415402128096 5.467305782189011 -0.38126091736728535 -0.5529458167415187 0.06647047291840812
Ni 7.423037962475377 6.069921072983668 8.156250158391343 0.8315346144588582 -2.5035715940928243 0.6105992055889291
Ni 7.305503540984581 4.069554860961968 0.7075322655170501 -0.5688959123128718 -1.0544076066711325 0.919884403948861
Ni 6.2104707899374905 5.407104770674477 10.144848962672057 -1.6204220836711511 -0.5799334010739561 -0.06537723985422934
Ni 1.9807771417732352 1.576175323433128 1.825556105001194 0.2959000353022775 0.8793879864967112 1.9513947943068455
Ni 2.384075504868673 8.834074816803447 0.7925864443895958 1.5383866664349506 -0.37742328878875 0.01659467113388755
Ni 1.4842910390785127 5.869403104380432 12.410752284019505 1.7520170570030342 0.6791250183744691 1.5704984593678308
Ni 1.3637866017087907 9.124251885450755 9.43728224869497 -0.8609953429221365 -0.5598044915345649 1.1229241634852918
Ni 6.31234512770304 7.792986492096477 8.017952625892418 -2.4113934319956662 3.09361431568664 0.4804407075932564
Ni 6.286350505966483 3.8660948076636177 7.614425227089702 0.88611167837379 -0.10388516612144044 -0.0011107165656755065
Ni 3.624480757274863 7.234223159890353 12.780894469848386 0.7549537925793256 -0.9372462922660761 1.208137978449474
P 6.6515972863121675 8.864771187815421 5.925735646936678 -0.061104066400172186 0.7585139991267582 -0.9205158668852728
Ni 5.566405622362334 5.4841017340560425 -0.0012820413370787855 -0.7964143737169574 -0.2303451322196033 0.6378510993263466
P 1.8328163507140047 3.7927661397563375 2.2554105066278574 0.029580798980910344 -1.6046946456335656 0.18597971873035066
Ni 1.387453624794152 6.923414256798842 6.692550919060231 -1.2184205913224049 -0.48290125331860706 -1.0100113399439445
P 4.696395798518274 6.111166121082863 4.8087545716482705 0.3907873688004818 -0.7800081644447922 -1.4175569020393717
P 1.1037565907917726 1.0646994854247027 4.020722772299335 -0.3066513602815106 1.498733570819703 -2.8612511245957433
P 7.6786455359551224 4.206510765598343 11.388149747800334 -1.9684918589984484 0.2759462178881699 -2.7740462473434615
Ni 7.994482052133217 6.330165222976597 11.01289708637289 1.6271072090008107 1.3135092421981378 0.7134626153140745
Ni 2.7604854483454937 5.581153287416313 7.9813506715826295 0.40578101399583666 -1.471765012650659 0.6297089298351866
Ni 0.556826770128329 4.954954767087736 10.807447401747497 -0.35806571019774464 -1.76361298937075 -2.8786950311038035
Ni 3.1971801968882922 9.155115843565616 3.3376293615803823 -2.4440837231398356 0.4343855651064067 -0.625477151142026
Ni 8.558878173075236 5.636047374006121 4.902492555568697 1.9457141989823008 0.6772956784752142 -0.07566293805095357
Ni 1.6050189259187493 4.290006384414048 6.532246406833977 -0.9158066343350615 -0.33546519918940937 -0.07764911524304692
Ni 1.2722002499815284 1.181703214423026 13.304581821420447 -1.8044511064330344 -0.25239414159984275 0.5107768966829526
Ni 2.690601626441983 1.1012520946430855 8.225174078611099 -0.9889236660357097 3.112522979665685 -2.6735263981498276
Ni 8.29593400864692 7.7435017447720496 6.691883363767068 0.7094838331719845 -0.4522776148954792 -0.18764065137254135
Ni 4.0557196145792584 7.189859129598556 1.771335159941312 -1.34038626909464 -0.3939151157961861 -0.48989902479267894
Ni 3.796145812997874 9.141727496123936 9.450813976213563 1.847426838663612 -1.9055602524712343 3.7001321521173436
Ni 6.616832272857903 0.9947691115481686 4.10542594929528 -0.9354976850060857 -0.2958766382635098 -0.7111730479489494
Ni 9.099030026466396 3.917153011676255 12.685029991800226 2.167963698677963 -0.6455749503331656 2.1077708312381502
Ni 2.2045524760992237 8.409250821381749 11.561304466660111 -0.514178980385966 0.45603039706969206 0.19133738349783821
Ni 5.153983072554208 8.301706453301886 3.98965398550317 1.3123748714833785 -1.1751736077083117 1.9567892258495396
Ni 6.616394684311477 5.585855036691728 5.788460395765358 -1.9868577631001458 0.11872917311280841 0.3477820688835494
Ni 7.6138079479274055 3.3199843017253956 5.450218414970851 1.6493511080006755 0.3561353259442512 0.6473927202681947
Ni 7.456229519241432 8.379708939300768 0.5775908121759188 0.6510249177041434 -0.49244236003982295 -0.885961783059487
Ni 1.1315574290816584 8.858253911592072 5.31099449820875 0.14810145562733848 -0.9869981668782226 1.2625983142808836
Ni 3.1689324596573765 7.539455136613598 5.208834331328833 0.01230195729580462 0.2162493162481695 0.17532249612682063
Ni 4.903533457685512 4.946817482203154 2.834436050612373 -0.21445597179317258 0.9518046496962252 0.07402771644037573
Ni 3.5685997688569486 5.353607243275387 11.377521001319513 1.1508080343797535 -0.5258751857769718 -0.15366378020646437
Ni 3.7131995074638517 2.8942944396054524 10.425382324587732 0.839094429083987 0.30468858012818495 -0.5910421093926078
Ni 7.289536214237376 0.5636605997682407 10.405078216033617 -0.5055501010663745 0.40854572122516736 -0.9898127535088824
Ni 1.6701265153900053 1.5702818436482997 11.216793797178203 0.10550958909874088 0.3551763044650915 -2.8353390327156713
P 6.249518584909956 3.012927487659612 2.6209878059820118 0.28516876492770243 -1.4455603292308328 -1.517383324710406
Ni 0.4858480458192962 5.788514396054066 8.553713697187963 0.4024599200424036 0.3094062973188284 0.18439951872742436
P 8.605253248601665 4.778522789327075 6.984544445694934 0.39477386425205563 -1.0829437664376123 -1.3585917363590732
Ni 6.434534746496228 2.2820522007894475 12.295810807426143 0.3677942503394182 0.7732001403840232 2.3523393061459874
P 6.035696062416482 7.838905358287273 10.257773807794024 0.017789462772937106 0.3264259718052765 -0.7360291877606808
P 3.3557269066131625 0.8465122499405058 12.590624452586637 -0.8349217857635363 -0.30611528527238246 0.5295762887776428
P 4.802804298456353 3.72685785634907 12.465177126721233 -1.6757293408838883 0.4636364915517241 0.9480410688887351
Ni 4.6267726676636975 9.162042777151576 6.7377100570512765 -0.3030723846810006 -0.5608887257376792 -0.023651577980668942
