# total energy = -340870.93403573864 ev
CRYSTAL
PRIMVEC
9.19064921297111 0.00000000000000 0.00000000000000
0.00000000000000 9.19064921297111 0.00000000000000
0.00000000000000 0.00000000000000 13.45144412824041
PRIMCOORD
 96 1
Ni 0.5949364572467735 5.182809284373842 4.354407360544267 1.3668508910440718 -1.0829296253702254 0.07439358442022671
Ni 7.320931107473516 7.87210353130728 1.6422596452827187 0.6043095159254754 0.616481632511635 0.2740438586591345
Ni 5.243063180601254 8.81903450081655 0.3860228909662769 2.0708562175999883 -0.5599590148345582 -1.862398629482096
Ni 6.8943746962919015 6.169342761333373 6.872988055577871 -0.058856150906259924 -2.665333063705758 -1.4453147888789304
Ni 1.202715927701019 2.87906277184247 9.413804607312603 0.9326090506043809 0.04255947062876541 -0.029670787591555354
Ni 5.616865265311644 8.048288276682433 9.4344798917777 0.3208150533764023 -0.20637705143978008 1.2046173668907254
Ni 6.010509961668616 1.5516205436987707 9.942540818292438 -0.31410061747070417 0.09812923747426971 1.0970316119892463
Ni 1.983314527789343 7.1858285640716 5.077785897709734 -0.3124723378386618 0.1806580494071211 0.5601916996706545
Ni 4.1665072946198345 6.081213626048952 10.327844081425491 -0.17736060960277197 1.608824608641539 -1.142091480442362
Ni 2.045305456717637 5.120285297791309 13.0641236843204 1.254355614656117 -0.49788615676321346 -0.9118522776730038
Ni 0.7547590898315562 2.2857420307269933 1.695137126453371 2.4877302561851926 -1.8728779317468647 -0.18629056510255013
Ni 7.2483709319525556 5.025777851954444 3.9818423372176786 -0.8285557343361923 0.026199284103187136 0.8662740748225726
Ni 8.638870204333026 8.101842189635015 11.02621578115271 -0.5018374281014777 -0.2528242871587259 0.39955071681540866
Ni 7.506609793483647 3.5328304128187913 9.135763572991458 0.10399238112326607 0.45778054699157933 1.9044274244183719
Ni 9.028838641005592 3.3685383675226923 13.396387710856688 -0.8543133029162706 1.9008505057003906 -0.86634066639445
Ni 2.8686221943387578 3.3559471781036017 3.527022841582351 1.7640644750858716 1.573499965198316 -0.9328383930063676
Ni 0.12888415014574378 0.8676386434412389 13.273346975479308 -0.36455646012841086 -0.9173215283176912 -0.9578719389362278
Ni 6.087049688297947 0.7175461511761576 2.7366959393041683 -0.8105988927474556 0.28619077843431356 -0.8029573170417977
Ni 2.9266887160539485 4.220382880294802 10.699197777186068 -1.6884465313402404 0.07537934537226373 -0.09155184136706812
Ni 7.812263214294362 3.8965871179415426 6.212495616573849 -1.1279843516170185 0.30706530789047765 1.9188675111031017
Ni 5.63304080792303 6.606597088196608 0.38156266890417145 -0.5271239705824083 -1.554330848469033 0.9862486903067078
Ni 2.36759395260029 1.8114677688417897 7.1593833900318256 -1.280236853298253 -0.16018461204411766 1.155661505817313
Ni 8.749608336676543 6.002982819964795 1.1343724220380713 0.49146534083853427 -0.7771012752106423 -0.036542832121040286
Ni 1.1187593471583996 6.942956468021325 2.6648121955651374 0.8805285278590577 1.1001629585293762 0.39027417660948915
P 9.375748886124555 8.92158376471305 2.5629035199186427 -0.074450148689775 -0.4825202158301045 -1.0623255759666286
P 0.40739850290125484 5.96226824396 6.3845399744794396 0.034161733483373424 0.9824051481909015 -1.5944475139842607
P 8.670798519692092 3.3363159513888747 4.492365438656045 0.2594245660840629 -1.8610485432121044 -1.5501209241527432
P 4.2904156272827345 8.830725006612958 2.181138656731829 -1.5693278360984972 -0.2875496064550532 1.8130031097681034
P 7.698280782779358 1.9726074214585108 0.8633677487528804 -0.27391478928043794 -0.3499631356952682 1.3787574126736706
P 4.682130287305393 4.996248296039453 6.9695027392024205 0.3019968922286348 -1.2607715454847899 0.9094781210138724
P 8.400133900427708 7.567525416454251 13.135940336320191 -1.0545942687606418 0.3163045671005585 -0.08286356956445083
P 1.5231295311446251 5.161211258727956 1.645367003780963 0.7894441130467114 -1.735714206077953 0.3151064330273992
Ni 6.442084467319445 6.902278654613374 11.52244007054858 0.2866373790534289 -0.05356713459317871 0.3029284029039686
Ni 5.533892084234604 6.776853864830656 3.0701841603153635 0.5281691240174711 1.4437703272099458 0.682655657235547
Ni 4.467308052647135 1.562915851579108 0.7527132513171843 -0.6640131024336952 0.5462738040379818 1.4768694237567597
Ni 2.076930480652739 -0.08298880518069959 1.3333554918460666 0.063651001191742 -0.01332782745715769 -0.7998660797109838
Ni 0.5843010379797873 7.406615530067806 8.827268403444696 -0.5771398974892189 -0.4445146831206087 0.9167718264618082
Ni 8.496212947279655 1.8934943130500963 10.731911893052676 -1.0630938215912207 0.2554128738215085 0.35116435509222105
Ni 6.412251619980491 8.28285202584595 7.256126001756809 -2.892292824392896 2.893557550037933 -0.9023376533143491
Ni 7.195671749376597 5.1557060598505595 13.090165388859809 0.27630900054422736 -0.8235109728234333 -0.7181206829113761
Ni 2.8390650664761345 4.834915639789301 5.706532915273988 -1.418235930384267 -0.5941351464956348 0.25333439402592495
Ni 2.1979529494633807 6.2136508811796745 7.653912004648264 0.933712568081205 0.025118906554814805 0.13479959631210978
Ni 2.1993499281434548 8.994722951134307 12.325195487754817 0.5440865665786758 2.8252952753264244 -0.36757724923260565
Ni 8.467041826683895 7.831811725166191 6.712916356399469 0.17616504663277402 -0.6923047502895368 -1.4960218283154945
Ni 6.613719841335144 1.9490977407767354 12.37557035514531 -0.3914270592670097 0.1052257393097349 0.24443246355060486
Ni 1.2858729217622802 7.334772225185305 -0.10058430309518726 -0.4538971527767731 -1.3948532897942687 0.1501313415731737
Ni 8.232358599080635 1.4292838120509537 3.20007192935495 1.0370040664827045 1.7231458824946388 -0.9579094770423825
Ni -0.13128474771966084 4.857800356324728 8.045914331991227 1.07843250883082 0.614557933126361 0.42092686849833955
Ni 0.06547142778450554 5.370583438404084 11.745021051270776 0.02580487687824588 0.6161530455276226 0.6570243298206878
Ni 4.041845328721631 2.396921314232638 5.723091707957473 1.0007242582150637 0.4197891553494706 -0.3203350284161902
Ni 7.346563828123036 0.14279235959677236 4.835538765805808 -1.202404932620439 -1.221062399820626 0.268094583054235
Ni 3.243729351237112 3.907275842973953 8.303226776081848 0.6564972536726241 0.06019106766759956 -0.30399489649527
Ni 5.286452235526455 4.077266090780881 10.623143316835078 2.0621633178116805 -0.8591559757205526 0.3536426414293845
Ni 1.4779115370264326 2.792321424588913 5.152521499898943 -0.8673786207406611 -0.6348632203426162 0.5547895548184768
Ni 4.450663786925987 6.786605143643543 5.844679401694592 0.8143681299819008 -0.2744045844326629 -0.7125146495785084
Ni 8.638520959663008 3.8463969826001914 2.4110767521474434 -0.8233538784202789 1.2328190261359218 -0.6230705985830625
P -0.11542720157097604 2.7192098101152915 7.856315834092599 -0.017941157859452973 -1.0359100620875772 -1.5773599623743544
P 7.847435828824916 8.339714572514499 8.904075577966067 -0.6223301208726121 -0.26896053059895614 0.16576647700726935
P 0.9888403299114954 5.391620834448096 9.860379171540728 1.344889042061 0.012573980010268668 -0.333401117571529
P 6.859450229290045 5.221621395991956 1.9099299510341539 -1.354804501402499 0.37367230638675 -0.6911588096105516
P 4.948723448969297 2.7742801801876915 2.766369788411771 -1.2658661863988778 0.6338386357328439 -0.7619196823741976
P 0.8042075397815787 0.4690135342768187 10.572996377545019 0.6893312694835096 0.1370138303546092 1.4579898132434372
P 3.4849287491309826 6.173892132692824 3.905828315723218 -0.44630365670023137 -0.7475096775964545 -0.79658355230497
P 3.5223255007706014 7.7711074871274395 8.823044381067314 -0.18561179386797066 -0.3323191973612599 0.3447548520214514
Ni 4.930332959898056 -0.007150325086169451 4.871265576483785 -0.21351777624961937 0.28562693551104357 -0.6073043368877412
Ni 3.1033789471357065 3.4006229239183443 1.0609042103750619 -1.4655424287797147 0.8796422685993626 0.7483779391340208
Ni 8.429893222572973 6.982402734435 4.234810361426253 -0.27637867743989825 2.3353561413244295 0.2744251532579532
Ni 0.595565097652807 9.206457127657663 4.610724457325335 0.38099146575598253 -0.2736684775975868 0.5197127657200017
Ni 2.0204539412510534 7.470095344168285 10.739565865715608 0.27681602208763295 -1.151208869362598 -0.9586471265393556
Ni 8.609110882187762 1.4376748747806103 6.12562651929626 1.0830095866785412 1.488561258272391 0.5433653721419353
Ni 4.166158049949815 7.570751334327318 12.182287325977986 -0.6490371978501532 -0.10228773972733353 0.013977545226014637
Ni 1.3418347848081487 2.794058457289795 11.763005313646888 0.37783569373582027 -0.20266257870267032 0.2626466725657864
Ni 4.378223089844769 5.165016187501317 2.0080180738036293 -0.32460485943613776 -1.4424420953168255 1.229918050439043
Ni 4.559490264233612 0.8126638561206332 8.140033932431386 0.6391178818539123 1.0638633527673937 0.7961505785326095
Ni 4.929634470558019 4.696734228901695 4.777347251261347 1.0034835661277557 -0.7148895775685882 -0.8332253718977198
Ni 7.842445306303336 6.056251822791837 9.788212355805998 0.334598737424056 0.10945494689973406 0.21952952966133807
Ni 2.223190472196827 1.2020174383609816 3.1403602814309877 0.868240197410008 -0.4373803860686726 1.6195972737770106
Ni 4.143071139131747 0.6291578395839867 11.159183336742908 -0.8204989254699869 -0.4712559557701948 -0.05974446704848419
Ni 3.649671136238421 8.575666109708878 6.738904755173455 -1.9627428723298135 0.07421874940525928 0.6130414964818345
Ni 1.138454908417604 8.67458506716703 7.036423532367503 3.2837309394034992 2.2106105868142123 -0.9102998455842193
Ni 4.11203431674615 2.785694966507772 12.23373841839109 -0.7496632336043476 0.07226548233363038 -0.2113559927116102
Ni 5.877319073302591 5.422914995011601 8.786026284175188 -1.0677032953387742 -0.15523575267927456 -0.24676162590441375
Ni 6.300254368695065 2.695957467611424 4.459799292241736 0.7329073543022475 -0.8274861554210974 0.06893693218102966
Ni 2.2815051414407153 0.38642452233679814 9.166876677765506 0.43659465694258354 -1.0067174996840211 -0.6764477286526221
Ni 3.3582907936524107 6.9976132588792295 1.134704204474589 -0.5486772712731518 0.8052813371892842 0.12610746785475055
Ni 7.550633003204407 1.2118146704199235 8.251182886794636 -0.610765041742832 -0.4222437875375502 -0.36414276962976
Ni 5.5141138071324995 3.666471642996156 0.5562631244317446 0.9323730233341748 0.4437088993898617 0.25589367011266895
Ni 5.708918807809168 3.0065003138024 7.948404301057124 -1.5110684382359718 0.595751084832503 -1.14663821927278
P 6.076875639621353 -0.162063312862428 11.65126448147445 0.13063389497019437 0.5459835264910726 -0.4138733040856679
P 3.46461741437464 2.079430337238135 9.688093099560888 0.904420761095623 2.0636244757382394 -0.33818954009910784
P 2.5907612967421496 0.6655335100962619 5.287359352603581 0.13601341411455287 -0.03318317162018801 0.2204013907433301
P 7.634607965045449 3.9226517991039804 11.394167098575366 -0.5193607816972217 -0.9450269646527596 -0.9669798147747669
P 6.119722446243104 1.5689357268123223 6.355242022924568 -0.08088279168899619 -0.9874098004943446 0.25110396203350943
P 4.405197645279097 5.291093513378017 12.430842919500353 -0.23045106166984827 -0.582600406383158 -0.10727233742611848
P 2.3329176331271317 1.7709461964704258 13.328954998530552 -0.020339739998616584 -0.6848837752351172 0.6878086621913961
P 6.405487302161185 7.387250832180198 5.034122042373124 0.4147415656232341 -0.10917572509641843 0.323533737859146
