# total energy = -340865.1234022717 ev
CRYSTAL
PRIMVEC
9.22957261049129 0.00000000000000 0.00000000000000
0.00000000000000 9.22957261049129 0.00000000000000
0.00000000000000 0.00000000000000 13.50841245495068
PRIMCOORD
 96 1
Ni 4.552412706018551 0.6747841842158471 9.859857035671629 -1.0270688096468634 0.053085566971069864 1.3917296565636226
Ni 6.83023423418232 4.1271417026262665 0.16689281836362238 0.22343374981175068 -0.808128576830092 -0.32959794177535495
Ni 5.821294307389541 1.952829827934825 12.097864034798489 -1.0154921605528575 -0.4947802641443801 1.0319852731118744
Ni 6.863331480490992 1.5727468105791458 9.97597613083579 -1.3979712665979602 2.309178197377481 1.6611321597960036
Ni 3.3724764930125013 3.8136685086419466 11.386862085875485 1.3645978333438369 -0.8880387201931739 -0.35240774058101887
Ni 8.363247735960899 8.21219655551256 4.469879101538337 1.0667717846634401 -0.6573994537719194 0.06489412957022372
Ni 0.8627822655839431 0.11961894898464207 0.16227803220792342 -0.7441140216513442 0.09533033457289389 -0.9372054117258117
Ni 2.049408072601293 2.82164638789596 6.181517131045554 1.1392912919894056 -1.8146167341121264 0.5082528447095181
Ni 8.676360976625073 1.123718888057324 3.412859563703792 0.4627299205770547 0.7374620635524654 -0.4542558216677725
Ni 8.271044308570032 2.9830254597607535 11.860007803804221 -0.6637955871062504 -0.4119377776258519 -0.3532202091799852
Ni 7.953343970467092 7.147020844626432 10.506005548834132 0.6277587480873511 -1.2889266677627673 -1.4195343374807166
Ni 8.54799608491815 5.496644101336119 4.066774761966338 0.8873650911649168 -1.6213649072003948 -1.5203814881067814
Ni 3.2418042082277294 7.992957294827612 0.16125631855305167 -0.1924442434087718 2.1773700795935276 -0.5028524996295534
Ni 1.3597836590659493 6.298057094707114 4.185081265768298 -1.7538525675498764 -1.0161310796884373 -1.2676183932032943
Ni 7.6895627938073385 8.612713845965674 1.2140081021508056 0.8140295156955594 0.8257051522612747 1.3311624365035266
Ni 8.569196412517432 0.5131725271288066 7.618960257454068 0.19024492176460783 0.7404491712052473 -2.304483363004973
Ni 5.684945835633259 6.605540296261337 11.556405637406941 -1.7379770339702005 0.18360016275458058 0.3901088546762185
Ni 2.388890201359133 9.136196728323542 10.85410348334466 -1.0233623073295537 -0.8354234079903032 -0.5123103026083435
Ni 7.547870399682757 7.479673089873837 8.074518102386206 0.9421488717740161 0.7292792706313569 -0.4823543796762015
Ni 4.783521196695955 5.2733899766957135 9.509665834160874 -0.5434432765677221 -2.434086502717808 0.06962804471078332
Ni 1.1963925404372713 3.6735266826656803 4.207289462663985 -1.1080780996113948 -0.7378580134393035 -2.172817427225839
Ni 7.200137033278528 2.6144424895050764 8.101669658211875 -0.8128295818501873 0.5809477012710833 -1.7528858327612329
Ni 0.8415367130803363 4.912929030074066 6.002895372188608 -0.25454255540141324 0.5947041316252274 2.575041319998036
Ni 4.69640326364867 6.733932876685194 4.038069869120659 0.5817041198211336 -0.40911702034760505 0.2982322829798799
P 6.57486119789825 5.315532203869556 4.471594879031025 -1.6890520261347233 1.470149588534423 0.8790018068018861
P 3.975195253663722 0.2950408151212273 12.046086134131547 2.159156127688662 0.8477482481042433 2.1339636875834342
P 7.21685178873447 5.3871536850060044 12.059580691808042 2.088565461954293 -0.2085257223516667 0.625283032853349
P 2.603717726479232 6.0614939267936725 7.040287301545733 0.4898419463024983 -0.05141177881307274 0.18951344291522199
P 9.145804713099707 6.092911390941672 8.393884378291352 0.059403281658981566 -1.0277923180764492 0.6454587364702755
P 8.81947472488561 3.43366855743707 2.47732150254633 1.0481428567083433 -0.6271949051640812 1.00489587309425
P 5.553470578057396 2.363573484508968 6.361786368560086 -1.0414677586810126 0.730979026931283 0.11396826138905533
P 2.0593206332637344 0.8088021889635011 1.6952518468255622 0.14789293916095822 0.13737712723129888 1.9991867169791437
Ni 0.053832403463459716 1.6701834054705742 9.73567498613623 0.6149903926780893 0.4446411813961439 -1.7892034362453444
Ni 7.0573463200488895 6.98221760143411 2.9642322046202847 -0.8422836254452463 0.3025499365186273 0.09989918489049891
Ni 8.43398317815545 7.540514430550573 12.724707974514473 -1.8091060887065422 -1.3037339079789287 1.9106397238766708
Ni 5.438876208239079 7.346970299180557 8.434652322148027 -2.067874252153529 -0.19469010202015502 1.3194364063158501
Ni 2.4951318082356346 3.8948333675483804 9.294152551818039 -0.09443944732750832 -0.3389025070057325 -1.67834852367429
Ni 6.322976939947888 9.263075658888331 3.8186792434498047 0.4067870866628478 -0.28469979571108384 -0.020524859426229166
Ni 5.696556637600997 0.3868242969719243 7.718746701455979 1.969282987441176 0.7062244456944224 -0.20569776598456832
Ni 7.34540127188762 3.9814621332631615 6.064385551798835 -0.16461719389417453 0.1817872779155579 0.5924505597043603
Ni 5.727595689284229 8.717607935284711 13.224721900398919 -0.760007295842833 -0.7185472289258334 0.03740775122449686
Ni 7.113249839539027 4.354982924705437 10.108263590775055 1.4606645318621232 0.6446920335075801 -0.591829895401226
Ni 0.7746176990365453 0.28437973614433154 5.456831418213672 -0.6615558991424542 0.5831344245097569 1.913103354925815
Ni 4.9594368449512 3.9814898219800954 4.616526853036907 -0.6660918393395948 0.1514827133947456 1.0971401125426523
Ni 1.2720565742461118 6.813224132412414 0.2427109860300632 -0.1493235009598977 -0.8051761790699876 0.5372230066896232
Ni 6.939964619392531 2.7784058416170607 3.930326610829092 0.01548935388485074 -0.30910522113864186 -1.35321915919325
Ni 5.220956776394661 5.886778122938909 6.426964685265947 0.9421486146637001 0.05810898832759025 -0.054770925093292774
Ni 6.883128913098942 4.554498589360927 2.4608411782270982 -0.625711121529703 0.5529679282287058 -0.21692603060021995
Ni 7.367709148164269 1.467621981952323 5.669777956496708 1.0920601269165837 -1.4972523582884858 0.7427500514242821
Ni 4.455151473001039 8.232953863640892 6.450834205177684 0.37302747371389955 0.24304278229192985 -1.4113687709507885
Ni 0.23030551788631318 5.273002334658635 11.886375768940654 -0.46643488023246765 0.0997732008355959 -0.11723330529357229
Ni 2.694084468980129 7.399532713493969 5.296999222668269 1.2887387201216773 1.9138428041950009 1.417627607376307
Ni 4.462516671705534 2.3141398952091206 8.36555697495321 -0.016738910021235686 1.6044745592029594 -0.33045154802490184
Ni 8.744512138572436 5.202912962525878 1.1323033132641551 -1.9132583924464404 1.7934598975288532 -0.9902896931453009
Ni 3.155646150700829 8.599857051735896 8.501815919858071 0.8622536408092699 -0.7506304826136233 -0.9084067423265645
Ni 3.9130525432910797 9.059646655572807 3.5325984971284825 -0.8837992281905296 -3.127640552033413 -0.9790938244294816
P 2.5641874682695143 4.519407755432991 13.166676197175308 -1.5691887394174717 1.063369958070743 1.1582385225158698
P 2.4860314499365965 1.4499288918313733 8.967708116907279 -0.6082124505243074 -0.2086666188049051 0.6357494796023115
P 7.492816000845267 0.6669584298530128 12.960024227208645 0.26554713404203295 0.04757132202106001 0.009079593703765008
P 3.614337435432685 0.9290579784376296 5.398704494753719 1.1197046281067295 -0.6244754493503891 2.1341266955238605
P 0.705873998546791 3.6338764400159143 10.439192674871922 -0.6047144646733779 1.3087593862179783 0.3429388818586352
P 5.407800238266602 3.1780001748390356 10.31328100348537 -2.2270427642283064 -0.40275765378848055 0.4017379542747146
P 4.958652331304731 7.870960808015553 1.6859170573898143 0.16812597837838142 -0.5001818947759257 0.8694763838099542
P 5.6499472974284375 2.793182386887609 1.8600412456594169 -0.5390047811803942 0.3413260288455605 -0.3238764659105454
Ni 3.7339342334437795 4.079129467462375 6.973001873481179 0.3026730923600529 1.1131238895654185 0.13382977619967276
Ni 0.8907284875856251 8.676231762612714 9.007017788338755 -0.9464009621821506 0.18663972091185274 1.0983793842663923
Ni 2.1360737566053203 1.424390665245735 4.109813180611617 -0.5702696527319469 1.5819627512536885 -2.648975705393657
Ni 4.082756689380754 0.802179047872842 0.9868018746466597 1.1023435111204627 0.8283608447165669 0.2988480621870079
Ni 4.03823323255057 5.9963700645644495 -0.055142079774447086 1.3907819479383725 -0.27553844092679 0.5025645360754892
Ni 9.142842020387748 3.814010002817468 8.417347797021387 0.7023855315643065 1.0865595088133289 -0.8373118832622676
Ni 3.2791470577996455 3.3682124306046357 2.9835893866289798 -1.335021405238301 -1.0687659322753336 -1.8703320253965596
Ni 8.752938738092743 0.09072484990657961 11.37035499579655 1.3631145639300912 1.482684744886956 -0.2211300413792385
Ni 6.694365700186231 6.491850424529536 0.7879175127372697 -1.6765055569282803 -0.20958655951601324 -1.7151636356201105
Ni 1.460681343574152 1.9999744833014457 11.488417838889491 0.9163473373298798 -0.16635551674151994 1.7689220602884892
Ni 4.519435444149925 5.078442950334365 2.1199155443597557 0.5134881249665286 0.5958325888027158 -0.0872501286679207
Ni 1.3638631300275874 8.53155821663155 3.4780240360511865 -0.9513611344009036 0.8429559689219224 -1.4028905582764484
Ni 1.5029989326219113 4.805349135212411 1.7986719734464696 3.0557825895508466 -0.40350841591157605 1.3925277269848857
Ni 6.151380731534378 8.733399733509513 10.871786420936068 0.6007909612492556 -0.4251259941813517 0.29334230187743027
Ni 2.5169874354690247 2.4891141270886035 0.2840576240706637 1.0153242675164256 -1.407896753241788 0.2601856126198035
Ni 2.7835005655329526 7.059053790926498 2.5245732209517633 1.326114075446342 -0.9739521323275421 -1.8502913046956004
Ni 4.621634498354036 3.7422962259579062 0.05020333563061804 -0.4656769190205206 -1.61896375395807 0.32131359027937567
Ni 1.9898311833312194 6.567394473898329 9.188381653129417 0.1728454953412378 -1.1860766277740604 -0.4514324932863645
Ni 4.707607964434707 1.7906385537066287 3.5614658304468416 1.6474232948503433 1.1564598333488922 0.3204640977948868
Ni 0.7120947302846733 7.442939392074473 6.961559972686739 1.6664980520936075 0.8434102828505218 -0.5735205555690768
Ni 2.5791762937032243 6.163369945966884 11.564632878165323 -0.2300258012069716 0.3133979349767248 0.08271367425014788
Ni 8.144931432507091 2.176130100436787 0.7931017635045821 -1.2747197801347658 -1.3433198978016672 1.0075353675996261
Ni 0.5356419209209049 3.412228260957692 0.08388942865275831 0.6708481230776576 1.0773917262711317 -0.718236382553634
Ni 8.143187043340236 6.304222449011128 6.175640662354887 -1.7924728510252355 -0.13058761511329123 -0.46404478273373634
P 0.9275535581508718 7.59687942865628 11.549030286172904 0.4204599561642501 -0.5443984413921399 -0.2214941095868766
P 0.17942196277634512 6.9824667998865175 2.2682107745159112 -0.25814955602638123 0.6711677112006054 0.2542905872916072
P 6.809052365727662 8.363515393557929 5.860772879994315 -1.0991172908736813 0.3186481276320706 1.3836116554421785
P 6.4194721184635535 5.055812039026818 8.143546073703149 0.565145187021188 0.587749040463633 -1.7263412495034849
P 4.0009180716955886 7.056451051534684 10.195676870136305 -0.13746377340783422 2.206010626148356 -0.6120122838863719
P 7.8198012886934745 9.19644737637235 9.44086675623725 0.6224033973127087 -3.304823755518057 -0.8067142129810686
P 3.03925201428179 5.049775898735163 4.132223505140923 0.9029194939597482 0.863587529129345 -0.2752157674800486
P -0.00015321090036920606 2.6996775898008365 6.234280750035354 -1.4175062513070944 -0.5524228543585131 0.5645304362553245
