# total energy = -340874.75325741165 ev
CRYSTAL
PRIMVEC
9.21320384692995 0.00000000000000 0.00000000000000
0.00000000000000 9.21320384692995 0.00000000000000
0.00000000000000 0.00000000000000 13.48445511489781
PRIMCOORD
 96 1
Ni 0.6441088976027654 6.743954624610443 4.870099529731471 0.3559862019608966 -0.7420350276351284 -1.0405226211589242
Ni 5.029985468511192 5.596440877868892 0.6166673700785407 0.18257943479955008 -0.28329777315723464 1.2337538792453655
Ni 2.234091363536748 8.899890380294918 9.665522357366301 0.5267483324105444 0.1077130245079629 -0.5077800188381577
Ni 5.066451329159464 0.0515211569811036 11.30606872840636 0.1628037948345196 -0.479244116181994 0.5319003089251291
Ni 7.189274830379589 8.907417567801142 8.696421380929888 0.7372252649513109 0.23335949356589486 -0.7332490539123823
Ni 3.9809055911900915 2.8188073428299902 0.30756991044408544 0.12108764604265598 0.6815151158732006 2.5765503004433947
Ni 0.42461721550569637 1.9700040897565307 2.948146904404215 -0.03438464812745691 -0.18652993480686586 0.08726606950752068
Ni 2.0739198154391665 8.90476416510617 12.968580298630743 0.07405831256799503 -0.30691618390712305 -0.11956966673623279
Ni 1.7667608138846498 2.2943917824207674 13.30357423151183 -1.0248278361314866 -1.3057046585520546 0.10304415827738382
Ni 7.98403342995058 2.682332154911125 6.952625398842076 -2.602405828053918 0.26544788946000736 -0.6521438617999349
Ni 0.33103409788699145 1.8378498944207982 5.589104403681367 -0.15255640607489857 -0.550343089011349 -0.6679443191673012
Ni 8.034079553002986 8.56225410056342 1.4983792658123254 -0.39540404163688675 -1.9323856001941948 3.4209088061397988
Ni 0.4817418430391698 6.100716374766965 9.639672871459059 -2.1278182368073293 1.121755082877855 -0.13907662642090887
Ni 0.14832705328974433 1.9822207979979685 9.803562868611124 0.20594742010152917 0.2610466750685182 1.5689097747244722
Ni 6.826753687178921 7.462409470293361 10.726007259673883 -0.06092846005425635 0.3983811219873397 -0.25419339959211057
Ni 5.889135149454286 7.03592105309548 8.07240187421736 0.06666150588329164 0.19203929466086925 0.7481480825114019
Ni 2.661602446356649 6.5166280340001626 10.214096780785098 1.1955771110653282 -0.14687169698529545 -0.24074987249269506
Ni 4.4461815963943465 0.8923743364938268 3.675241892612638 0.09377147472620624 0.43853943937378026 0.8941697727915761
Ni 4.9017284583837 4.417187644029487 12.204551419020905 -0.2977599713291517 -0.5240353043547555 -1.3158443180892176
Ni 5.421869092228801 2.9900992279165726 10.14711955310578 -1.476110434103548 -0.6339391658664502 0.44891615462241397
Ni 2.978122062973987 7.755674960514478 7.74998857112789 0.3726520926523518 -0.12903775412766808 -0.5278693333888651
Ni 6.899464291584218 1.8164384087849754 3.2956274923981375 0.6369982644077481 0.8144689172258232 0.9338331528194691
Ni 0.33256072575698103 3.658747493845936 11.894314286076144 0.5923927098832314 -0.18641680626776927 0.6517751656066065
Ni 2.9351516804415096 0.6297353783512821 1.725188074368934 0.1390671133392121 1.3031937192047427 -0.7183055452286726
P 6.44047169137292 6.655940888690042 12.667822631077847 -0.617267361637724 -2.4384501790031425 -0.30458882132552706
P 7.071576151809178 2.232488266075202 8.883491798847757 0.09222289929216375 -0.5793245638453636 0.27549498928336424
P 1.1908342310185054 6.797861080055882 11.926824918332223 0.2139057557166574 0.25133279021486393 -0.7675164597356846
P 2.583161229186514 3.9636861132841736 12.06965261027256 0.7757151934963931 -0.8435727765703149 -0.8967956404501976
P 6.042516566349801 3.157632125851944 1.0443820647024658 0.2350397094817952 0.19357784279258275 0.5090532291236265
P 6.542010410474643 8.605399533968136 3.6034913040435064 0.05158095740108536 0.9292637882812318 1.002090799545287
P 2.0536691934823943 3.1028688424529203 1.906675290782798 0.2911056992374277 0.48926499075310576 0.08794741184526143
P 4.3161095851178635 9.24333097842167 13.482769202819757 -0.5573295476315111 0.08265145355364475 -0.2322660033914
Ni 3.015905411765945 1.027161665476168 7.484843621551204 0.12424727471756021 -0.2706335474260049 -0.9860949383376632
Ni 0.5142469473729677 7.0395510553934635 0.4919169053180866 0.17834019990722189 -0.23241975536044487 0.053327764888863
Ni 7.558484759540504 4.063769146185182 13.251645850922676 -0.9922396177828202 -0.4984692829601931 0.5696926971825543
Ni 4.997564204331992 0.8207766871078086 9.15292457347389 -0.3825953199079927 0.10648223742465533 -1.3123746143730624
Ni 5.481819409368343 0.9939664921776008 1.6774120847333391 -0.5994313618975676 -0.3581608410147122 -1.1540118860290318
Ni 2.3017439190547546 2.690863581631767 4.811847206052636 0.023698629168520478 -1.8412333082583903 -0.8657829941187669
Ni 8.763046664223973 8.985149368278526 12.87491702613896 -0.4941223188454071 0.7371463320842595 -1.9266217011272238
Ni 6.970350681636724 7.8055091798794365 5.826524980377107 0.41282300844428255 -0.2860413973406429 0.3396360427376473
Ni 6.22342703620566 3.9723004588390336 5.034650113596139 -0.7308638415096574 -0.7715397219624648 0.8999532122425727
Ni 3.7777268077448247 2.004028451397277 11.695054799528243 -1.176531664398103 -0.08422265469550658 -0.9244470836188788
Ni 7.66847198652865 4.225387167279676 2.5467147162662247 -0.23121416508811796 -1.019495882395612 -0.9294257677803929
Ni 7.444563494528907 0.6727886797179775 10.800738319672957 -1.1074751759200734 0.82928644185463 0.028856776330692238
Ni 7.759443160869491 1.555796873226702 1.0460745302408911 0.2943542880817124 2.1960370598754113 -1.1309411202524975
Ni 8.84487834039324 3.999949283448803 8.612062522957736 0.384227456194777 0.8872617328178333 0.2403760340930441
Ni 6.074836485287179 4.245775987293478 8.255736337993522 0.40172895541365006 0.2184686924969915 -1.7285557406563006
Ni 5.646514640532702 7.662676881337198 1.9102887093139382 0.03505159228749447 -0.34354077710869224 1.5245106797838066
Ni 0.523080567178315 4.445914413484089 1.0204913059235277 -0.26134775124870474 -0.3472915024003761 -0.0810851375077894
Ni 5.397794990694202 5.552816357866472 10.06176290516187 -1.7059079213497972 0.5965404135030178 1.1446993503788545
Ni 0.5590000848411301 4.1817626472772575 6.233593806601155 0.8236264153553751 0.08039942429467445 -0.12354176401010336
Ni 4.068790342257266 7.2059967952802 12.085820861624672 0.7837691741491212 -0.45181815876055736 0.5198410637677499
Ni 1.9587824075257079 6.020506222466848 2.137245850451759 0.1091222461506637 -0.6411271989744571 1.8726599021987878
Ni 4.308094097810133 5.8487076111711565 6.7081926527326425 0.009538021397422282 -0.6916244363930605 -0.2871356588460861
Ni 6.655959315097645 0.9555197927119 5.508777243692964 -0.5980252255786603 -0.034636873347579054 0.22459151756527773
Ni 7.532116570259211 3.7862858740768726 10.736673385715447 -0.6390512902820349 -0.17756809762788775 -0.8709869069172098
P 3.720568091357284 4.619868914469446 8.80967745262698 0.8565275369587702 -0.47052164870733165 0.6537983666842224
P 6.663265385712623 5.634666460443344 6.55223153877257 -0.32696821746199173 -0.12153861753714552 -1.4839736389017089
P 0.4729026953115414 0.620179443367859 1.0638200820839026 1.9696308576988986 1.1292940715673776 0.026872398910811786
P 2.3154071002931045 0.2684893425568078 4.251985686656019 -1.18262055090466 2.233238865736689 1.12600383085188
P 0.2077936772296834 7.959821130358954 8.174896923873728 0.8662797312495275 0.7111738192798978 0.9831947339717325
P 4.245895758942904 5.93908914046867 2.762789221073136 -0.3664696179907237 -0.6118274215690753 -1.4636364700062534
P 4.566579743678741 7.856006749918139 9.74199287024319 -1.195644473968154 -0.8402216007098949 0.3287548770487693
P 8.047171515605612 2.1291898250472996 12.174534801034024 0.35928544153745867 -0.10645292684861667 0.9831325132752294
Ni 7.400469101132588 6.164379613038712 1.0688578619228302 1.224105300412008 0.1996890978966432 0.02717758885605642
Ni 3.2363681655437433 4.797048036785499 4.391199038744835 0.7442351206102408 1.1099310936597335 0.4573755982436768
Ni 0.0512677938765489 8.366464306567348 10.69464274997077 0.807644438104822 -0.3083639720972431 -0.9743177431970769
Ni 5.339254293736364 2.256940108965681 7.015112110988307 -0.38952495714829044 -0.20904894184498835 -0.21787811010084412
Ni 0.8659305989413575 4.336470765520259 3.8399813471552458 0.4596415114597181 1.1362967281374559 -1.9330700278557287
Ni 3.2276524747470616 7.922526081368501 3.2759941550960985 1.7488168048981818 -1.8660809634296895 1.2873022447854667
Ni 9.0799808750124 0.8612244944393014 7.842424644873247 0.7437813209022739 -0.8825339883248607 -0.8626889285744755
Ni 8.414142636242643 5.733220101513223 11.773749379802934 -0.016466115975823252 1.7564745785537554 0.10932330641787623
Ni 0.9590945157870718 8.783555255887201 5.898262670460915 1.1289886245118168 -0.04301275611610012 1.5877770439426204
Ni 6.431249274367129 8.554754552668602 13.421940867357884 -0.3486978958295994 0.8416598758183182 -1.2983649303575318
Ni 3.491721322119675 7.398847577263437 1.1110598632582218 -0.45014334216129565 1.1164632383512965 -1.7963048231768162
Ni 2.582304401232929 5.611955913071442 13.362851984773826 -0.17495405704380837 0.22548754701698584 -0.8478112401316947
Ni 4.911595799655631 3.709245063884639 2.8028113783889768 -0.10624672437508154 0.09247203918849237 -0.05906261049011118
Ni 5.935818453118964 1.6191284361615756 12.835272610179 0.5977403473483899 1.6449133839442962 -0.5582924257654127
Ni 1.195339487677678 8.549862341449746 2.529117497004425 -1.9931924470689222 -1.1547742181163532 0.8997902043021472
Ni 7.619780204435137 5.685928726397612 4.413705052992334 1.620289928968661 1.1387372192581484 0.30588671420134417
Ni 8.774821138682915 6.1767068797257725 7.2371475586551055 -0.9537602307606994 -0.14479116030718292 -0.1944111373271555
Ni 4.2194815036426006 8.50315139817366 5.394442305830659 0.1798044431575742 -0.2562955335367779 1.7686914323349214
Ni 1.64763408872493 4.120605400439653 10.015956698499139 0.9446724095268183 0.4789129580948204 0.3355726713015511
Ni 1.9655633255239722 5.371758476749781 7.895944145759002 -0.7200243276919922 1.296254311772432 -0.17298124958815372
Ni 8.52737291096909 0.016873061442962953 4.349235659387915 -0.16682191485497722 -0.6612224270624354 -1.272550283287273
Ni 5.405727559167715 6.474726383108716 4.441995116586722 -0.3825834928334508 0.5586351538168122 0.03490426807635279
Ni 2.6927615016149766 2.1719114510771234 9.49053505623474 0.602073427506105 -0.5035420694974102 0.030791531459559873
Ni 3.1612437017423236 3.6640082332168724 6.821920440464396 0.5539071522135235 -1.0848011313613253 0.12105190770871412
P 7.389615947053844 5.762490449992142 9.33690672547733 2.0441475979605506 -0.1775398154931136 0.42731760251603185
P 5.4662306685353785 9.006717478378983 7.180633766533704 -0.2276225910821177 1.2141366192350702 -0.6926618765186394
P 9.05103298866655 6.37117918557816 2.6816531417909184 -0.190231294917853 -0.22892356928172836 -0.1575345760157803
P 2.712302706878996 6.907000692294246 5.645374967222397 -0.49437917205121956 -0.39662325875596854 0.0799170853416172
P 1.3388627765050651 2.534423381073991 7.617827005229115 -0.04353674694037018 0.35559128051532307 -0.08155282117282729
P 8.309029194065749 3.5711575653004255 4.560375572238481 -0.7153932566778841 -2.070485464524131 0.6513779301681879
P 1.6113524921526967 0.9999366482412899 11.24932552751029 0.08850122746620243 0.6382221095125201 -0.2933798399835851
P 4.420071376819509 2.7520761076921825 4.827043464403635 0.46715221801446644 0.16377310072632442 1.0819718894426464
