# total energy = -340898.2131725486 ev
CRYSTAL
PRIMVEC
9.01259406406016 0.00000000000000 0.00000000000000
0.00000000000000 9.01259406406016 0.00000000000000
0.00000000000000 0.00000000000000 13.19084241972437
PRIMCOORD
 96 1
Ni 6.281867991055563 1.8799189115196306 11.26476796443325 0.88663566919806 0.32915134115623956 0.9523859761209921
Ni 4.694533924031173 0.3408229501874499 6.002320764723421 -0.3713380018266185 -0.37939069692776595 0.043994917523711326
Ni 2.827259681585804 1.5945351294551346 4.824854227580714 0.05985553870505176 -0.9680946451055006 0.5676854369445385
Ni 3.4885226998663708 4.286164287235835 4.890161284634108 -0.042093843846256536 0.6858137432485544 -0.37320539405266046
Ni 4.993166218953235 4.378218920111463 2.5892307710230127 0.838534442815459 0.710228424647493 0.051558588803582175
Ni 7.340252929093207 6.201917271627356 2.5831625916304963 0.027036949513134078 -1.2687530210283697 0.09777416812769611
Ni 4.961622140720936 4.39710931667572 11.774501342220258 1.3019675601071254 0.0673428482210324 -1.5457641898459442
Ni 5.533480228697387 7.766891093481938 12.390052484845334 -0.7944803899190382 0.5747487715492231 -0.16732636529522152
Ni 1.9600318576358886 6.476233588529206 0.4333390278646476 -0.35590624065258064 -0.5029915963105789 -1.1384073467225555
Ni 2.802871602815347 1.7533730822454292 0.302413078013047 -0.17825741038542847 -1.1736918809564625 0.9258527057171538
Ni 0.7506291944314248 0.009401036572603058 4.685624073819615 -0.030585586096340874 0.47335089062601055 -0.18013688679632847
Ni 8.449180493052777 2.3777565667755485 1.5384344369486804 0.9449634584046758 0.3956048447937832 -0.19375396335913084
Ni 6.872661538565174 0.7056933031004483 4.775454398550178 0.06444264385510191 -0.36167965280124814 -0.06917270234091959
Ni 0.9560559482520682 7.3997360480455425 2.393834132820862 -1.2293349242420633 -0.38400017067531933 1.1887701154458237
Ni 7.719484850195683 3.835642749328365 3.8318998191312583 0.3062212147226274 -0.23986309901236755 -0.30614356740715665
Ni 7.494151980491703 3.834831615888106 12.72386003203392 0.5554762964728562 -0.31182030607695976 -0.8560894209800869
Ni 7.886785628546014 8.593093590542303 6.883429785614303 -0.2162248907681373 1.1011327786418132 0.1597261843504604
Ni 6.781913731787741 0.7965032967749677 0.5141252147363206 -0.37334474784400223 -0.6732078815590858 -0.9070283739217992
Ni 1.5918313513209377 6.654989373574753 9.091880271923323 0.9840210865277698 -0.2880805392578587 0.6553065757986326
Ni 0.11491778077839812 4.936729356698762 1.4617039172783033 0.16977456972539792 -0.7085572075926572 -0.09766669601555437
Ni 6.466779377653298 2.010592508745373 7.021050290126175 -0.7730960107059911 -0.7080779539633935 -0.10084200841974246
Ni 3.3603455911178703 4.2851819145137435 0.38716660866696506 -0.7015779480613464 -0.17919072083297527 0.5508195144271352
Ni 5.948077567795159 5.515455041136073 4.770455112780048 0.04922479846408296 0.6981187858681526 -0.5483682246731653
Ni 5.192389604474652 3.1500457278400256 9.230265044387796 -0.35555117130600705 -1.5545604479813355 -0.5228564535553061
P 0.33121822899540404 5.386061232227185 12.370714162370179 -0.87342688381727 0.8476135222985918 0.16453466148269727
P 3.8773710585328063 6.065520677350897 12.516222488958881 0.2777027955679604 1.5509009968518772 -0.26881834859413706
P 2.398963199941434 8.467430995458606 1.270158360398627 0.8195818129723563 0.7624426447572031 0.3957447128057571
P 6.28457176918976 7.692365955509686 5.6275825228799805 -0.2931700379656241 -0.014233627100878714 0.19600367862525597
P 4.688612649917282 1.0184050720266518 12.549912465770355 0.6688143804770803 -0.030344673730128384 0.45056834551385627
P 3.8998304422342027 6.210280958655806 8.072478407024532 0.6633320172062706 -0.48483060913083603 0.06587577675720267
P 4.788012546724145 0.9475750975044702 3.804159956733775 -0.34355183285228574 0.1020519695674436 -0.001565030494274724
P 0.26137783727033875 5.591314042987862 3.680403525234687 0.23718632351115282 -0.0448850334381485 -0.703960075140278
Ni 1.5465160297917955 1.0916774594633911 2.4892044989483937 -0.27711735537813564 0.4844873668588042 0.4206918696693981
Ni 1.8153346644874444 6.494384952403449 4.911372424096884 0.6223707443025603 0.47164316390628447 -1.4848848378620685
Ni 5.964913092977427 5.602102117743308 9.060406491922514 -0.43543251831368235 -0.15069492738612758 0.7015756340685014
Ni 8.596914930305301 2.227967258141033 10.1342597446659 0.07185950514446333 0.4739859531068482 0.24565553732442857
Ni 2.312225997396393 5.247699892506542 6.901448664359971 -0.06566160386386756 -0.29379995824013916 0.8075675621202996
Ni 0.5515220713697777 8.923035636258367 9.125477419018855 0.07248916830866226 0.27980390107136327 0.37709804423884735
Ni 1.407965425601759 1.140228302159789 11.392046517581822 -0.183155104797362 0.32240296668881246 -0.3046075903786044
Ni 4.1641067296644 6.831654236863186 1.4606088871339533 -0.306412247687511 0.8803218111648905 0.4342004456787941
Ni 5.618018358359948 7.863920678124488 7.898346082588462 -0.22348285788213124 -0.14770936239524238 -0.03875372372943003
Ni 5.332977054859116 2.825727540643092 4.894897402665844 0.21957092442223475 -0.08170065960460124 0.025518455986078634
Ni 0.7656279530011937 7.3501667822519305 6.899852534001416 0.3296218530347549 0.1101350036858942 0.04369589822605378
Ni 5.073053850224976 4.5478990232198875 6.9941540065065615 0.029945638519496817 0.1081763372976266 -0.11391169711950704
Ni 8.04455108267641 7.042783258768851 9.156119336613711 0.21966991189394428 0.05657172574745741 -0.2942056783189901
Ni 4.662881694673507 0.4011992171834476 10.344772305156969 -0.5000541109488097 -1.1813203440359978 0.03459907813110816
Ni 8.217890298859782 7.364478781175613 4.566564104939628 -0.631853486982015 -0.8455088172507632 0.5164312667552524
Ni 7.226604121519127 6.142037598548673 6.825100278665892 0.2820579872128626 -0.7855774310024535 0.7075125683782267
Ni 2.4037128368638396 5.2011588582232315 2.5613710411282464 -0.22043790040822037 0.009685088498247837 0.6039783578383018
Ni 2.2495163698705833 5.330534641944559 11.20369412267863 -0.35140912411317543 -0.7105050753476473 0.721757508333015
Ni 1.318064802639708 3.301385202604814 3.8721716931807455 -1.1027350901319266 0.3182917727339163 -0.12749869177532236
Ni 3.593609543348828 2.6386351063504385 2.823592457176455 -0.269306086863833 -0.44910744469761366 -0.635384382953409
Ni 1.1066834281081845 3.371584295562349 8.144250197596792 -0.6270162134943718 0.08461037705222847 0.43049214358927157
Ni 3.6984350216116466 2.605766176832384 7.118741399152226 0.20247360262031583 0.12236008499717636 -0.37689955507479606
Ni 4.051692647438268 6.774658593794313 5.938279977096208 0.6140488547004264 0.687956243512854 -0.6232369489575976
Ni 0.8162751250109723 7.393301056086154 11.482443734461185 -0.2199517048004212 0.2635313891635849 -0.4206545886735594
P 0.15245613513421158 5.484361592592808 7.9530885772121716 -0.22561044574809536 -0.02952397760104593 0.37790202819738145
P 8.392446215203542 1.4683317787445982 7.986474829613237 1.0949122516533982 0.8225599217640737 -0.13601675654866252
P 1.8381725771276285 3.283936821045462 10.359137478383959 -1.1308645013782912 -0.7223889712694269 -0.4109538164460278
P 4.1490466854569235 6.094937783450962 3.6066264325462307 -0.9158063772247453 0.5299035902100744 0.7338005555404782
P 6.728622264762718 3.8468544159915026 10.468133083789088 1.3366980216097752 1.358135365547945 -0.12491344754664939
P 6.136296576310395 7.519252054170831 10.123193180762632 0.08465074337186067 0.5049605471114916 0.4749979393111304
P 2.4399434638620803 8.52443565112126 5.854056386956592 0.7314333408598823 -0.11196897157083942 -0.15704812329766502
P 6.93779555381798 4.098143555783774 1.6442386828960784 -0.029841508841464737 -0.5392834887630776 0.4423199894621351
Ni 5.204863034267081 2.881921062865487 0.5868685629181354 0.616921291152215 -0.6306185861336494 -0.2337032500585588
Ni 1.4357422396337434 1.153512865392477 7.076767947396952 0.130509196466872 -0.5020505725535483 -0.574330710175198
Ni 6.96427455434555 0.4803333956151261 9.211982997903734 -1.0557996019226528 0.24521639290448088 -0.39016721871797966
Ni 2.756096241093738 1.5497425383652705 9.095191498878336 0.13869893136651598 -0.04206324771863724 0.9320575489762852
Ni 6.340594052130323 1.9371759198081429 2.6585484323088 0.14605125796652912 0.6681962872771072 0.18162221309260332
Ni 3.940801693561068 6.863739070722325 10.217071962619466 0.43953779873130755 0.3097228001179827 0.502873839785792
Ni 8.236492292423058 7.092956368345767 0.33430864740279126 0.3429540513672868 0.001550118095939266 -0.08559742355584612
Ni 7.4817596640433 3.77121171639045 8.218699629781284 1.0394723255175389 0.5796549506015888 0.29587278160876784
Ni 3.002599693588481 8.456030064326075 12.322013710617021 0.837628643171738 -0.4400975278895195 0.3644034794903144
Ni -0.058306074204580796 4.803514208026874 10.139694338715636 -0.1298219405918603 -0.43444598603069695 0.2712770945472747
Ni 8.614768878584783 2.253391785196266 5.849175166164989 0.4174072853808553 0.7584427795691906 -0.37927499728550806
Ni 3.5838849546594993 2.6085060053417033 11.448173346610238 -0.0867546770887409 -0.07139387836195446 -0.9960186252092783
Ni 1.0530765203008383 3.2573857197676475 12.74657447213931 -0.6821964582109412 0.47205402619145803 -1.0400878476143507
Ni 3.1649345327656704 8.262881167012821 7.92292072205018 -0.258444975779613 0.6476673140858201 0.4553354278851965
Ni 5.696599163533494 7.8391450578214625 3.3389848425983355 -0.7214217222601511 0.2659577392168903 1.2585074320409617
Ni 3.119727362361896 8.31090927926994 3.4787287142049306 0.4312501048012186 -0.2804387064418848 0.5634919676884812
Ni 3.2926700244189187 4.459882032357994 9.155275757835842 -0.10101684343470989 -0.14970530977934862 -0.1035339534296088
Ni 7.178044266228948 6.1396492611968 11.484659030012471 0.48798226738594025 -1.3064860168027694 -0.39708477177341933
Ni 0.4916559171817652 9.200866864734673 0.37431284741699233 0.04058820583500752 -0.6560581092526766 0.22824402671620045
Ni 4.549863768664071 0.45026197520658684 1.605945073181446 -0.44035155288185446 -0.6464594098206479 -0.2268918835636802
Ni 5.90733163131281 5.625147320040448 0.4360968815615286 0.7098461016074098 -0.12237345473361505 0.04890521034113513
Ni 7.706831168527641 8.628269744068207 11.265954923034164 0.6550114131557171 0.624455394745731 1.1136879895990046
Ni 0.15970496431199377 4.8861416678079355 5.8155257460255285 -0.5983070184851373 -1.030602790942051 -0.27726159426548375
Ni 7.9404736496973864 8.792344013845064 2.5216930970089053 0.33209936804097 0.5919887895765933 -0.06994120507582792
P 8.621357084638444 1.6208879536697751 3.678054843295448 -0.47176709107865844 0.10503264946232234 -0.4127592450858827
P 1.7759856800410971 3.203832887522985 1.61684129906226 -0.0020008324801126832 0.176468951026438 0.474137391083048
P 4.878030333405345 1.0410717453850036 8.23654636798574 -0.28706881016389274 0.27157431407271937 -0.23119436759377604
P 8.390021827476545 1.6223389812684608 12.443106019394548 -0.23762341104857138 0.3792541713499017 -1.0016007472827462
P 6.367244291939724 7.680757734720201 1.291194655542058 -0.11687309374067614 0.6454193985919078 -0.5092555749424197
P 1.8906258729310508 3.2212091683320914 6.04168236680106 -0.4452965555919557 -0.31447008499498097 -0.05338947136473386
P 6.981119092121597 3.9643245633285824 5.997388172147267 -0.07015614930011144 -0.010627140696542987 -0.29329267958641747
P 2.486682775208566 8.583414064821877 10.20977807047278 -1.179543197530917 0.03255325134567297 -0.7513519341606801
