# total energy = -381175.581325809 ev
CRYSTAL
PRIMVEC
9.20425844741939 0.00000000000000 0.00000000000000

0.00000000000000 9.20425844741939 0.00000000000000

0.00000000000000 0.00000000000000 13.47136261850044

PRIMCOORD
 96 1
Ni 8.112136491666813 5.80935064769561 3.480137536459479 0.5619511055639226 0.6876191718884094 0.02243287508221943
Ni 0.4704176910221998 0.8185181487840698 8.196017661479246 0.34995233706199086 0.2652658553561883 -0.28515693785316054
Ni 3.4704472930154435 1.6800717290336904 8.630482598021253 -0.7292149930523247 -1.3879743032862484 0.4068009706199187
Ni 7.568486958021345 8.458557172235926 12.274068438104246 -0.6039673020947082 -0.7479130836824603 -0.13765172104892423
Ni 8.93516288630849 8.151816050450284 0.6306601513786575 0.8411428269725836 -0.42821131797489476 -0.7629039006643378
Ni 8.935439014066205 1.1167434905218188 1.610783911216432 -0.6750310508107537 0.5699207540329605 -0.5380475594734475
Ni 2.3785276879120927 6.518952963727059 7.108460874947773 -0.38555363120536823 -0.4147294814383761 0.3798648083507071
Ni 7.296142150588248 8.628605849694658 2.1169711919728744 0.05126933969793751 0.08129493952575031 -0.2613168980107693
Ni 2.181915520161295 8.221989317943944 4.408382413177989 0.3559612622602321 -2.030698157323864 -0.8114324443923445
Ni 3.102442626051705 8.917186969281325 6.77800866260725 -0.3758559443016301 0.2561543799732234 1.6481141502697807
Ni 4.662334350669771 1.7760721461321793 12.12282590179754 0.5016785339261102 0.25738953793190505 0.5846261785639351
Ni 5.717216019205113 5.272383405786813 4.841270660223452 0.63963338803775 0.2142153165372762 -0.19697247029642853
Ni 8.975946956122815 2.637204171338357 6.249837010207495 -1.2744778393272889 -1.249390814451674 -0.31298167337491256
Ni 7.138951822380387 1.4772098696999707 12.637122134372177 0.01692814321390633 -0.31941328793286927 -0.13260773086711355
Ni 8.415205114274864 1.9785014053121477 10.327429414754691 -1.8228964576224156 -0.6347122965870489 0.271741435778203
Ni 0.2406250914786556 8.347112009222645 3.023337546021863 -0.13206651365166286 -0.6330531637170711 0.9189521219425786
Ni 7.727554954981659 6.0712118045941725 1.1334280500687441 1.3789564160583543 -1.8217546307084884 -0.1594042822346674
Ni 5.722085071999466 2.605744015476168 8.891624902323901 -0.6465560832995123 0.056670456108850784 1.2976892444467458
Ni 1.1564506620810595 0.6777344115137017 5.56157108601459 -0.3734421926538149 1.559793671355817 -0.972942717226421
Ni 8.721992257353456 3.6088885464745397 1.8143232039824098 -0.7311824011913407 1.0827941282336253 1.0507813227724547
Ni 8.681686808985836 4.223751428834392 10.835623223883854 -0.24472685486257206 1.075067191903013 0.5405124760741724
Ni 3.76645624928461 3.0970765432934675 10.367534210285038 -0.8581136504989673 0.8915709017161484 -0.6151737123334889
Ni 2.6640621979053165 2.8888946224944627 12.684810318555204 -0.42763384820487 0.6642738122942495 -0.6414375311260243
Ni 2.609260042257723 5.212841056965133 13.072677775557153 -0.2884507781130839 -0.1631375240248545 -0.0655451328906613
P 2.7261817391323255 4.425830926187922 8.289293618034959 0.024032872579487642 0.13416016295589797 -0.14867146919819557
Ni 7.013599024636924 5.349192943724195 12.339849433398541 1.753355830419116 0.0970984822169102 -0.0056430572183902815
P 6.326593163445053 2.988631968580678 11.29316507756386 0.6269416515026944 -0.11156787947767882 -1.0916389802187652
Ni 6.000670366756894 0.39455619171963546 3.6286326015769332 -1.4920201633552692 0.8037556445733771 -0.19985750515370743
P 7.238891662155591 2.1710636992831436 2.625137388326265 -0.9457874969678678 0.20121967560855666 -0.3068267095171103
P 6.441176978637678 7.567023480905461 0.535109822525242 -1.3637858789655029 0.7474055479184225 -1.646206905944739
P 4.824412140189166 7.448813187828194 4.666938320816718 0.6218655225313676 0.021732506581085154 -0.43680214496769937
Ni 5.617064481482328 4.591525989333369 7.70268320741852 -0.18215366011604112 0.9896685146215344 -0.7408875442942466
Ni 1.2511716872354748 3.8262747258640037 4.450682424382162 0.17192349774760068 0.7855766596715051 0.145613141987846
Ni 2.7362143809959263 0.4951366478927369 12.861972047052644 -0.6788247135252309 -0.16034093511632388 -0.49398065106122024
Ni 6.046866540622408 0.4504195983827092 10.591724177624572 0.6216387512325423 0.3973614224735737 0.022743978564735024
Ni 7.105890125523457 0.8362713227533474 8.357013950614261 0.10107289348362591 -0.43725260224155665 -0.6875011582533063
Ni 7.677594239352647 4.825930842856591 6.174814939288381 0.19987858819962998 -0.4643108919109294 0.3061134855001696
Ni 1.8492920232192822 3.860735470026683 2.0689047127617783 1.056424379990845 0.1874889562860255 -0.8395675120656637
Ni 3.431770998418334 6.129999404211436 2.2575036529837225 -0.5051263832653946 -0.7667921799751504 0.3015423211897194
Ni 4.0777810918483 6.136304321345899 9.624682430521418 -1.0124608299257014 -0.6550569216816718 0.926672887625604
Ni 5.64656413026475 8.944707702466797 6.524733238121867 1.6235842834492167 -1.134264785309092 -1.6871776919301458
Ni 1.4287586524797937 7.703853989111226 9.636092949896009 1.1232432373876073 -0.7416411346308195 -1.3530954891311922
Ni 1.8493656572880055 9.046175449168018 1.5076207400828476 0.9949475036322865 -0.11299689861472154 0.058250141891144844
Ni 6.212533990992083 5.0123723048649325 9.96505039064144 0.19506085509601248 -0.6392875746625571 0.9698810475819619
Ni 1.4714572080809338 1.7247215874560078 3.219022844932602 -1.0034028334884912 -0.5791792965167509 0.17390247585084243
Ni 6.580096853543479 3.5796650254498315 0.11571409814753439 0.5470849870853675 -1.013899362144441 0.6258358200330254
Ni 5.897297338527447 6.672268299068336 2.611921913842084 -0.34218323463953326 0.11661829741739271 1.2957472902290263
Ni 5.128622090862431 5.744948450338167 0.5117356078347709 0.031970125148693324 -0.16051782701382034 -0.03343436839904564
Ni 6.401773547611922 7.618153137375462 9.250649894606788 -0.8824727960696223 -0.06265521293737596 -0.27965786241180224
Ni 3.8670035701267857 8.93173890211284 10.595590886658423 -0.6304090412260046 -0.2773505544348643 0.059223561548007675
Ni 7.885454011100986 3.7164311038454643 4.141716633295206 -0.26938604817214895 -1.7320149028494949 0.36145313861273876
Ni 4.822387203299265 4.323203442904303 12.05346168863398 -0.9670191526531347 0.6111041702498057 0.22694304851658978
Ni 5.578535455022665 2.4805660986459235 4.63107760892243 0.8584054707077732 0.5895197592108106 -0.4370160607507183
Ni 1.6140679906815076 0.6117638084924449 10.304972864645688 0.297270690397559 1.633658122745451 0.4948316862076059
Ni 2.1571928815873216 2.478034927533547 6.780743247834474 -0.19567766274440493 0.3930193434547941 0.7035245302647561
Ni 3.9876714002477054 0.38704183500638456 4.857153528847148 0.6916599176166862 0.13748639911565355 -1.7040803812227556
P 6.879134010888905 1.7728874726598807 6.235678099217791 0.9714198528239916 -0.02558890421269787 0.08108128085304746
Ni 4.582441386104585 7.294614243662232 7.734811592454377 -0.23572002337827147 -2.0909517027982827 -1.1707970759071709
P 2.9446816338112356 2.2401048429701778 4.765399956662296 0.20928265512234925 1.148087807235113 -0.4848658332441456
Ni 4.682813826033542 1.741105167747025 6.647093731397571 -0.09983362175988612 1.3011671756930172 1.3549330565605633
P 7.700577273053024 5.496967315394016 8.406224519168152 -0.757865824019798 1.5213664777278701 -0.4524390801740079
P 0.04424763232191429 5.28896947976682 12.929464114018904 0.1380283876620526 0.33824070505201753 0.14085454425693808
P 1.6007218157253422 1.97413858674027 0.7920779955571168 0.04118932975411616 -0.46132609825099263 1.3062633592690018
Ni 3.414080413407471 5.799069490850067 4.923001715229151 -1.2527520176144231 1.05412684220592 -0.6575328940259901
Ni 4.785478126351524 8.8734115154251 13.144722268822255 2.5272231720734926 -0.21248470699941469 -0.8909970314905494
Ni 4.274706204391173 8.37265382681117 2.407709789773144 -0.553846217068601 0.3067745161229362 -0.05719984624975955
Ni 7.944499329958782 3.3965002794996946 8.404998511923903 -1.2308356771573061 -0.022749120771057594 -0.870118131159011
Ni 0.23166934787013882 6.84575016498131 5.465385663318433 -0.4068781037147573 -0.19618159896401696 0.5789484114528675
Ni 7.953132924516632 6.66032117141792 10.559500988725233 0.5254658661536951 -1.0571756563345729 -0.5496887432568017
Ni 5.63535334330157 6.978806927164988 11.75868150088664 -1.5343515771336285 0.8922532724951536 -0.9939542864810816
Ni 8.539932022434174 7.89374704809099 8.188945109178336 0.7436116280936289 -2.117628183648205 0.276256292929421
Ni 8.165070182820545 1.0337670993288295 4.27108248778411 0.7513640183455382 0.8427970747465549 -0.6679887992519915
Ni 0.5862588079382824 7.293877902974995 11.665553732894233 0.9143400770918639 -0.12567012320701584 2.2347352477765576
Ni 0.7369260780830855 4.610928566442056 6.739062683233439 1.2297409014312306 0.5294901568217397 0.08638958043983831
Ni 3.6795220268977227 1.4838001188507393 2.6096457006926634 0.6173267541207497 0.2864877408494421 -0.05411426534590036
Ni 0.6154777268336952 5.603368544699724 8.862634249041532 -0.9591973426158706 0.4112700621348659 -0.494803918293464
Ni 0.8377946275500685 3.0578479931809306 8.964828211745541 2.952915580281276 0.3836348169161006 -0.611946720755759
Ni 7.32824660455177 7.909127364195647 4.347976704900524 -0.24254116006516294 -1.1581027682689538 1.3203442628421003
Ni 1.1739111406271605 6.352668828031823 1.3015346289648901 -0.345369859897631 -0.3543964888762735 0.2397067759401614
Ni 9.010757462111933 2.8893272226482143 13.198257918487801 0.9809627593174202 0.8958497315971603 -1.652099360169774
Ni 6.178376987362888 4.31090655342745 2.3313678281721577 0.8519095785707843 -0.2857086965915725 0.8553242606792882
Ni 4.137286623635618 3.8437444086686954 3.448439910725656 -1.5289949408074055 0.4543316692110304 -0.03227454376298958
Ni 7.031602554439862 6.95679034061661 6.680057863113443 -0.8058773189020701 -0.337913917840218 0.0027305115572856206
Ni 0.4497421649504514 0.6827488915937839 12.388440555349291 -0.8994991554242896 -0.04439986627161386 0.2451991665133003
Ni 5.699534638452842 1.0171718210902316 1.2085964686994468 0.6700634223928331 1.556294657063623 0.9072381759397602
Ni 8.182797584865769 9.127614729176402 6.289469627272154 -0.3216614605370976 0.07118227657178063 -0.3032886144568648
Ni 1.867433616901077 4.925668188942807 10.599079300664208 1.5658491335212774 -0.23674332243646323 1.1181172290149517
Ni 3.2886723901124655 7.368984653073142 0.08373021997154788 -1.4137637535455265 -0.04153617157057363 0.9531537075249519
P 1.1048699969401266 6.2945991605846165 3.55401459760994 1.1281046792449667 -0.4499669644844315 -0.3529289031918115
Ni 8.346044315226152 8.96260998542524 10.126167255563994 1.1496402393238976 -0.17012526819659735 1.2784877318176304
P 2.985088329023351 7.11314308129274 11.45968392185315 -0.49641240043116447 -0.9107991538181412 -0.9528014663918558
Ni 3.996028867047842 3.8884863096769173 6.082050739510297 -0.37941100864274013 0.684373411257602 -0.12449487195199203
P 4.920394148770474 -0.06210297356154601 8.544589377280946 -0.4000137724947562 1.8748535674159972 1.2482687850320888
P 1.0891307147504414 2.6335684891951257 11.080425207910858 1.1328342235101523 0.49165688802405005 0.9522072844512828
P 1.0535378467811358 8.314271214571887 6.913503632891539 0.1081629675611879 -1.370220321736937 0.7691938474381075
Ni 4.532885657853553 3.239494036463642 1.0856827994824554 -1.5425647090720402 -0.00335760361832325 -0.3832735769219399
