# total energy = -381167.0956470466 ev
CRYSTAL
PRIMVEC
9.31348179230494 0.00000000000000 0.00000000000000
0.00000000000000 9.31348179230494 0.00000000000000
0.00000000000000 0.00000000000000 13.63122202420567
PRIMCOORD
 96 1
Ni 7.547207937024461 7.764901261193076 11.06106914227811 0.24616641552257607 -0.8669574740428424 0.8661254650598503
Ni 2.645559706655442 2.0453803109134254 11.813334902171588 -0.2020905082492842 0.12295195294490438 0.4572285311428513
Ni 8.669026136281493 8.079547931155963 13.269585332179723 1.646395110696145 -1.0800893277079526 0.6939538558571855
Ni 2.011330221362623 4.144164126609209 13.051799804541044 -0.05207255232552322 1.5683197065489571 0.7486383918842591
Ni 4.914528775732466 4.052249374482057 6.933003369002753 -1.3670743199087874 -1.5612864538512594 2.367381030970458
Ni 4.916475293433811 8.72196396697262 2.558526150352572 1.7996004632089522 0.5313385228843882 0.5355134801976841
Ni 3.9072850298818818 5.371494761457336 9.317921561403539 -0.7246574555886293 -0.9599650740198307 -0.61845906795298
Ni 8.949576149284454 9.332295057903469 9.685296508716496 0.6255676539733033 -0.9380320213921651 -0.32292875728529546
Ni 9.52163814339795 3.6059007580372513 11.838239152570614 -1.5119873505058152 -2.497371635929699 -0.05138041135450506
Ni 3.5063396373320876 3.544795003785934 3.0660028734050733 -2.4425235777415675 -1.2151910286415135 -0.6032679620348385
Ni 1.2377710479735224 9.071657269041543 4.789943260712737 1.596995734327411 -2.503761341506127 3.788425634448114
Ni 3.6652462642237156 1.5571117127760157 7.266232297902117 -0.2961597167215673 0.5125936381767172 0.9694107928137629
Ni 1.093328258355526 4.254454378376332 4.978177110521903 -0.34166232913905675 0.4647963161877801 -0.461846746641153
Ni 1.1630303563309652 7.95548303977023 1.9348842311979781 -1.4270265320927038 -0.05610069964830984 -0.2776822267426701
Ni 5.121008667784241 1.7134105647567506 3.175856322874622 0.573740899109999 0.2155782583230739 -0.08349657516275942
Ni 6.54904483595288 3.295584857122813 4.802620772172407 -0.19142685788785097 0.21496993531511366 -0.8338506641865446
Ni 5.730399097050805 1.8374754561424835 10.893091184089304 -1.1223127551535381 -0.3825971196802056 -1.1069833238853193
Ni 3.299766610462066 7.8490020020693745 1.4052833320710973 -0.6710131879006122 -0.7855789736643504 -0.7524647076088847
Ni 2.8564448756102614 6.071533309322904 3.226087655747515 -0.04773381574085328 -0.04882704880503204 0.1472841019323657
Ni 1.9166586786153836 9.427478842151064 13.685338229482475 -1.4624661038472362 0.0763306535419395 -0.33856903492571366
Ni 7.5657045119281525 8.764759415956739 2.5876969067754567 -0.10324573276522864 -0.3730259310520027 -0.4916057230711404
Ni 3.0490011123342335 0.895221186464082 2.258748454122688 -1.874997292082713 0.22857724168590313 1.728570910164952
Ni 3.851674229907089 3.1048074954273432 9.85537372570857 0.6481807633871288 -1.553455387842615 -1.2448031950809917
Ni 6.783651443115001 6.74004572121214 3.988140953690483 1.4304728387700911 -0.2626286748436574 -1.6396428795739764
P 5.594953130875388 2.584900999531707 8.500307756287631 -0.11960591929080693 -0.7805959186274621 0.40104349931085126
Ni 7.558747341005162 4.5658692701460755 2.8754248202206503 1.6795186327229912 1.3782570759984845 0.21278218363517545
P 0.7192597116552141 2.035619781961226 13.244109233996664 0.6145155099241998 0.1800654101284447 0.47729264888257805
Ni 0.5069328157139437 0.6257933334560802 3.1418062333238197 -0.8401534664761209 2.686292696676561 -4.02404178525867
P 1.662121220348581 6.9701166627256725 13.427312872272353 -0.19040612993282047 0.21942771397615113 -0.15934077598658364
P 5.252719927747985 8.866518518372512 11.924129944653606 0.7123709249117924 -0.7448290454404979 -0.5517217145264305
P 1.360923218140443 2.726745327720635 3.14038779004193 -0.024487700728719117 -0.08824951646671254 0.6741828438778454
Ni 5.797437539224402 5.5501366563353285 5.601982015608427 0.9971689367636374 -0.04028378722071126 -0.7926713617347574
Ni 8.750621550546969 2.4447144711075603 4.741361345470984 0.6721447304018939 0.012560610273829983 0.07709787072526722
Ni 4.457898075353283 7.310068062806044 4.598138621972011 -0.31845169535054835 -0.8357188277435348 0.3416605293668438
Ni 5.114759321479923 2.7069355518796727 12.977101023566696 0.5099194337786638 -0.47676608695514666 0.7030892424995504
Ni 8.776205685119194 0.7815389646164329 0.9681615820699407 -0.054288843250551666 0.3816452972898976 -0.9056700601216918
Ni 5.243089787541331 4.722773498445411 3.448017682798149 0.10841519278131007 1.1208567394333018 1.7924684801498612
Ni 6.794995263977385 0.749218388640462 12.767002843826058 0.3540753580914289 -1.5199192037583824 0.21500001722210071
Ni 7.933577730518729 2.140852813097582 11.125448585390782 -0.46562498273666264 0.08800731854891941 -1.602104773419202
Ni 7.412749199922454 2.2716047844333906 2.5816580451603746 -0.12726729249080662 -1.1350034632473291 -0.5596990763049522
Ni 0.059619322552108014 2.5201629873687885 7.349082238169368 1.091398839183501 0.15534965254931954 -0.685359172209639
Ni 8.48003696309635 7.048303342643338 8.510994045333197 0.2369472109171532 0.732202872036055 1.0238888692569852
Ni 3.067888853474558 2.5131965029639747 0.5588526828416402 -0.472104162703103 0.6115793101140112 0.8876941923695615
Ni 0.535444177623646 2.284354941051292 9.70936999653677 0.03703982636211686 0.34849966377586433 -0.0317423254086034
Ni 8.959793038846058 4.962148608301737 9.296738978341628 -0.06863765577305599 -1.7345592665379033 1.9428589889216927
Ni 1.855226952500205 1.9841534813983885 5.486348619318521 0.23823456227000908 0.23500217137564045 -0.01353582970290572
Ni 6.684900595328578 1.261539053589947 6.108546017442117 0.47259472918627643 -0.5955839631270193 -0.10906105389542509
Ni 4.301440894181529 2.513168562518501 5.216832288233185 -0.1459934081454002 0.02169419714398199 -0.1421645213176132
Ni 6.242109728940777 8.852417906890041 4.635678473162498 -0.3992928351683317 0.8037343044171384 0.24772373270736692
Ni 4.1646724135870175 0.5251583682965382 13.976228070007126 2.4362184614591462 -0.9124063504042608 -1.851254439939818
Ni 0.00031758973021946504 0.4938343348758013 11.838171164153296 0.7501455725574049 -0.013161734192938621 1.0390599205704685
Ni 6.0685809355844995 4.978400634085695 12.399368981718375 0.22632984041262308 -0.010415796016685287 0.5714343624640095
Ni 4.6637167101955095 6.562204785771065 7.301986754626824 -0.8000339727474157 0.4619063962344948 0.14297030504836025
Ni 1.2472242320255096 7.930569475889377 8.195594846038881 -0.29593808762906454 -0.34787694259020085 1.0168471319188552
Ni 4.370323405756402 0.24629130145928635 9.397677563008653 0.26450095216570574 1.6941829196033855 -0.057980176059209826
Ni 2.8852794153392782 8.55028855649944 6.877523889121687 -0.30979504811681485 0.18315124814262004 -1.1917934756531798
P 6.135852214803713 0.97250445864476 1.1631849601292539 0.834195449120473 0.651946143966832 1.744428960243131
Ni 6.859090645894405 5.307017526785507 7.620452883485985 0.2364543304411347 1.5954276185093426 1.5750781083187133
P 1.6658279861147787 5.986119367509334 9.114094148975413 0.18114295946333964 -0.07893312416179309 -0.34553569605153395
Ni 5.6454787697739395 6.779441749330274 9.565669491420195 1.3910997362891075 0.2112660041009652 0.32348488689908156
P 3.670573575827397 4.734014871007725 1.1244120039451877 0.057889673227932564 0.25985316898104927 0.029059636370117693
P 1.4132091051038471 0.9075913530235393 8.178910674698262 0.08158316019013045 0.1583329035473596 -1.2309722027351704
P 7.761110674090457 5.291221861610955 11.106379231354877 -0.3504750423346803 0.7863153376097426 0.46025137712957503
Ni 5.307092034640104 6.44900872767466 1.9237201605348089 -0.08467568307252514 -0.0981804024271793 -0.8080360171162858
Ni 7.655635492426661 2.8189581112661752 13.282412790696768 -0.3673309375497545 0.9933086824772828 1.1676413038870084
Ni 5.071619273668293 8.974191681746918 6.950355316990199 1.9086460904854097 -0.42633826932189806 -0.02823816891008685
Ni 3.8990332849852702 4.251744155165369 11.829433255505439 0.7826697704373553 0.17656922404972816 -0.43061658498227773
Ni 8.760577662617486 9.239374449739259 7.20742697366148 -0.16697643815497049 0.3569390527924692 -0.7196288920257865
Ni 6.563415538408265 8.985190903781792 9.381811115372232 0.15409032622092173 -0.18454504316635315 -0.6908955286468359
Ni 4.177981379114397 6.802520557291676 13.126035705468707 0.10684347741881599 -0.4215326204031386 0.12437840097878582
Ni -0.02961221546137211 5.246815180271177 7.150434984332096 0.38843300963569233 -0.5872103943513436 -2.5010678538343636
Ni 3.1677945730072326 8.729126034495751 11.66148323776211 2.0019570806354294 -0.6439410142741684 2.691204017935249
Ni 3.3725328439578046 7.634587023503025 9.611906271938508 -0.8700024315167533 -0.5038467452220226 -1.7034633164640467
Ni 0.4521332200060754 5.703529701986783 11.75642487148226 -0.13793865616172374 2.344899819148807 1.1009198913000589
Ni 7.14838601833068 3.2584985724971847 6.996837973428683 1.2442408948196184 -0.3931702672103616 0.6543421550028344
Ni 6.231520300106187 4.344273597092946 9.932526609143704 -0.6313762902352803 -0.6622413552452531 -0.3324377252169952
Ni 7.625171093378337 1.5536657245009071 8.69646085969227 -1.1985883870878262 1.7764764755969793 -0.46575533766693983
Ni 3.5595754994416025 0.1274624495553535 4.548439088911304 0.7194522572386061 1.0082617042426893 0.34611625114535227
Ni 0.2330847842319784 6.4251010198308665 3.4865531451956873 -0.5451150078431903 -0.6878729397704282 -0.1528374276504271
Ni 1.312930846298188 5.201262940666973 1.514932816288687 0.2902682909377969 1.1705746754837194 -0.23954582488226486
Ni 2.1959513715720202 4.123748974449647 7.8165650075705955 -0.038530294864714286 0.0759141348298112 -0.4906042783898196
Ni 1.1682086522254524 7.743834165305791 11.067584854162613 -1.642072057840759 1.287256479149196 -0.6736539679575688
Ni 7.972759548554895 5.160581652057042 0.36525147345694636 0.6290568980734843 -0.6038850267935472 -0.9355239102583309
Ni 9.353064122372368 3.2718075380245635 1.3934784938583942 0.36755205242162503 -0.7207012991543589 0.17540091477323985
Ni 9.237493126410685 7.320834447795303 5.681942913813684 -0.038976381263197385 -0.7495228513717413 0.4930635385635895
Ni 2.849385256387201 6.2187608300064605 11.2935904608597 -0.24450034067406276 -0.7531056836269933 0.8595218437004036
Ni 5.871023359120708 3.985946697372603 1.4117860050810453 -0.8082226792057952 -0.9009567138064225 -1.9010109425376551
Ni 1.7855341680065904 4.1675595929526486 10.275923997499186 1.1396034239131858 0.33183582996693817 0.4838823862849538
P 7.787076661417491 6.694782199544498 1.6923294986467283 -0.2638782309800423 1.1933849885100156 1.3415386375315284
Ni 2.1321912750006873 0.49866337520186566 10.19105582572054 -1.6434421987154082 0.8411271432433 -2.400399651988324
P 2.344734243720289 6.983034462016417 5.325323175311793 -0.4607956796688193 -0.2511273590722772 -0.44597275572337386
Ni 6.527223348037801 7.343661791747441 13.401930840255725 -0.7421296442314638 -0.1083696842553553 -0.0998701314247764
P 8.241872605877225 4.986885216027921 5.040526214596807 0.01769870283134371 0.39142371683290006 0.26563249466698774
P 6.742625555677559 7.467689429205875 7.6099295803723495 -2.4857955010563253 1.6350318631645262 -0.43355741277815657
P 8.296486863296783 0.318892686326729 4.584384472013416 -0.7580959377527331 -0.5180163518541853 1.5064857039612958
Ni 3.359689552521657 4.8549318055367365 5.520140725422781 -0.5520873253959653 1.1177187080249524 -0.8773125920249212
