# total energy = -381161.0837176397 ev
CRYSTAL
PRIMVEC
9.31413214261434 0.00000000000000 0.00000000000000

0.00000000000000 9.31413214261434 0.00000000000000

0.00000000000000 0.00000000000000 13.63217387762896

PRIMCOORD
 96 1
Ni 3.0160929694986094 4.585794352235975 12.769148043569155 -0.7178836271999055 0.10696277660549966 0.3077772463558377
Ni 1.7456825962106544 7.570629094127071 7.4830138469174186 0.11550500974855592 -1.7321498857654622 -0.5665202129918436
Ni 1.6319197857225236 0.18158925246091748 8.61358463384336 0.4894495959600861 -0.37467066574427726 1.1418922199473625
Ni 0.6401789332299168 0.14215694244924643 6.206592132718293 1.9083645546892491 -0.24730772821587088 -0.4334795083523696
Ni 7.038624492075241 0.21928727106003817 0.5083448434795401 1.9945412477873325 -0.6608025659161973 0.022317175439961565
Ni 0.13428836358070434 2.966886409173671 12.09499674461348 0.02406835380311339 0.1892563325990934 1.3954364159912482
Ni 7.905360376534345 9.219286375383177 5.397577788226197 -0.9617136812798212 0.39286404882385245 -0.8527017354547766
Ni 3.260290887083169 3.23631631084308 3.621973542376349 -1.5700181772973025 -2.172243557000239 0.27376489396613496
Ni 7.6394791592268145 4.957661079658492 4.994610242030068 -0.9267070832976491 1.5169480369452002 0.12961753789053806
Ni 8.736898155472355 7.082466112262537 6.24423054087144 -0.4550981150634098 0.3968950243601165 0.009428235292435376
Ni 8.117852988166588 8.97405458912626 7.753380750284478 -1.053550915097792 0.44558709024918103 0.5882565762276708
Ni 0.020347653167870516 1.5794346508690262 4.0117438946818105 -0.30784666614119244 -0.9269125144402359 0.4719663515736581
Ni 3.3216617040396366 8.50083147528391 10.388779989290358 -0.21640255399658215 0.8239380330585229 -1.8870421390623888
Ni 6.457674125399609 6.972801519935106 4.6515977646985265 -0.5071814660222104 0.04076201240871045 1.2586323876546
Ni 6.968861642021524 0.045517232567090726 3.233305983321403 -0.10510746856431577 -0.13236090496363012 -0.7614815663955143
Ni 8.375351486509054 3.767985604136307 9.979024303558958 0.30728230899729014 -0.8399462355613211 -1.5041002344482546
Ni 0.521675229460432 5.302451624823846 5.198833767109881 1.7893281347486667 -0.8392795485115998 1.3386695435138494
Ni 5.677038078843918 0.024162721710193943 9.411884932084881 -2.03836775805398 -0.36755770884857986 -1.8355753386416647
Ni 5.056334996009504 3.693863740220756 13.449093664156125 -1.7113746008913238 0.6163857303637191 0.042051677754411446
Ni 1.700574254046415 2.6982016380789346 5.484428345183592 0.6690342097973703 -0.10520645603602526 0.4541419217977276
Ni 5.856856714776769 7.265358411815913 2.4599126059515286 0.37122435906688966 -0.8214826295394949 1.03005694574091
Ni 8.789830368670657 1.7134743271204336 10.18240210543652 -0.495733886306901 -3.169664461873683 -0.9703487312469997
Ni 5.72680348709986 1.7662388859394331 4.463255766404639 -0.24534340540064842 -1.079567907986844 -0.8594791633879263
Ni 0.631105105656842 3.6492583611944207 3.457814756883459 2.7316641828328243 -0.29055368338869964 0.5504629024186649
P 6.18955751636806 5.032779555717668 3.240136036451495 0.5142388870896241 0.2550464916210253 1.1217000612702037
Ni 0.20125511115296263 1.6549256922155384 7.836250447146686 -1.688423391411789 0.7701988916638541 0.014832694137458326
P 8.41178837161054 7.044157086592185 3.9763418096658993 1.7587129809659712 0.06947352141079002 -0.3129503059163449
Ni 1.8206241037583455 1.769144895180656 2.221362778122987 -1.0813795072742862 -0.4946375679189287 1.0682859073151214
P 2.027798345913863 8.032656621084966 0.33457573639981103 -0.7507762641628682 -1.3856819077076459 0.05722761416390144
P 0.7538430139169034 5.511246525979276 7.409140670331165 -0.30205808448387333 -0.4123671518537866 -0.31749524497454995
P 3.8786374944751802 8.356825677596257 8.264655819748917 0.10170281375814097 0.6875559227506417 -0.000972648325914454
Ni 4.35784959531146 4.468156862759547 2.1483213535407106 -0.5531797871291957 -0.15216148462932502 -0.1890868969007647
Ni 6.164195134432644 4.063411248729604 11.42693781951897 0.3242305068158545 -0.48365124411075416 0.5037950660484807
Ni 8.33739639786167 7.704119236579658 12.187354747930923 -1.6145437705135035 -1.164071584257879 0.5684940488887629
Ni 7.804562838045517 7.141405940719135 0.8947732851575952 -1.2937577706028236 0.5387697823514528 0.5317972076883615
Ni 1.9654216026815878 4.934785571016045 1.5837452312435067 1.4827320531851238 -1.1498536408862843 -0.010675734546291291
Ni 1.6280637349985931 1.2475162363811412 10.94973011992856 0.5901267966671901 -0.1756035177023492 0.46220850085594595
Ni 7.910520405763953 5.22405457423611 12.740262125428755 -0.19797442919838162 0.2363499436527865 0.38500675756296276
Ni 5.3777470693945055 1.5400917565263157 13.441336854873786 -1.6595563306684513 -1.1654275840651414 0.2454830163023063
Ni 3.3438013962395945 1.7340771875101295 9.434704555934228 -0.3476828243015238 -0.4314125985210118 -0.7880081519311333
Ni 0.5271640475561136 6.440880745072927 0.21761352150668 0.970045341073968 0.8892702786074297 -0.544110992058708
Ni 0.632305697295283 5.282696350462839 11.516937484567576 -0.26407672014409356 -1.5843554198555811 0.25655701472828074
Ni 6.708568904024038 6.851363864527848 8.473990940570985 -1.6600474113722572 0.14371489652386862 -1.4353993295374312
Ni 3.3776210101975446 4.721501258148212 6.769792557692007 -2.509831973180239 -1.6449169834887218 -0.8891257826097655
Ni 9.079825874201028 -0.037164318825011505 1.9033922765797533 -0.1593189216097127 0.23352301572695267 -1.541396914016184
Ni 7.1907894695555585 3.0897770692015407 0.06622720547689577 1.4226235179290014 -0.2844627399996133 1.253845764899234
Ni 0.6600096520616082 8.707716979341741 3.7662969519714555 -1.9593418170680645 -2.991019329131533 1.0160878851553274
Ni 0.44679519518515126 0.0003371715850393265 12.728960357437408 0.5999890341732506 1.2365851780465738 1.3576545692567843
Ni 4.730861960992536 1.3647904747024162 7.513441253934172 0.2646372206332539 0.2605514805996545 -0.908247848151197
Ni 3.4261103823443606 2.082900751910898 12.078474405533333 0.6525974043975856 -0.1559057821631057 0.1286528599844236
Ni 5.231543136511569 8.011429713838982 0.5787652712654057 0.9034586542926699 1.6029460383735747 -2.2803306770181697
Ni 6.301355044965493 5.081846404059855 1.1784621917865814 1.9117995485127268 1.2053822700812078 -0.797043522660524
Ni 8.939070708645383 7.002727826640392 8.636800108310501 1.3601760501270574 -0.3587401105569499 1.8109853080071263
Ni 1.224845638646729 6.1506989568988875 3.2913116043200055 -1.1207901478614246 1.7301613945805234 -0.17464578177477016
Ni 1.1877940208211366 7.379577614781031 11.458101042978214 2.0465009286840754 1.3246999687076346 -0.18055186284656002
Ni 7.2699223365857835 8.216489647988865 10.250208987731721 2.9485650166220636 -0.5373078530939456 -0.03497523052360428
P 4.312061321497833 3.513355858506332 8.21885171191058 -0.23729019607886878 -1.8899235743752418 1.3462812944228362
Ni 4.0469252347649745 6.950689770131698 6.624023594782035 1.375870578044179 0.403790208818053 -1.4702064099142873
P 0.21286610833279754 8.987839504757702 10.421060908611606 -0.9226074593069788 -0.9580195202576856 -0.6710036748189153
Ni 7.821402789033117 4.755153217726861 7.901685019974773 1.1727500858684836 1.0692307877268938 -1.4442503521701577
P 3.819949147587534 1.9427510049471755 5.479152820714911 -0.6257604867103997 -0.34660733184915793 -0.15510025554267484
P 7.507022885446586 1.6823930680244052 6.7224199499939825 0.8411037462045322 -2.0205183885773845 -1.9930525790569478
P 3.2773543772431704 6.282512555558459 3.59401344897498 1.1264643154280665 -0.2597644659219849 0.1511728954638106
Ni 3.727543642195955 6.64637844343543 1.4190005868362805 -0.7209378406451971 -1.4433052146480692 -1.3622015651975186
Ni 5.454923968666215 2.064225916883167 10.340480625440081 0.898084277354634 0.19737561927211814 0.9418110288186232
Ni 1.6600112083876783 5.451626765873289 9.449250436165054 0.46016550228398817 0.22552945599851482 -0.6547645872522336
Ni 0.09749288439015574 1.9881667134734673 0.6645223491044687 -0.2738350850824381 0.4740625719810545 -0.05687305903796012
Ni 2.8215114340550573 8.265155988647168 2.664789983110618 -1.1651720164109094 -0.05789044455888095 -1.0128539515990622
Ni 4.4817368674829545 4.692152427638297 4.781553193987509 1.3858228041608842 1.753845882681657 -0.8149936793810415
Ni 7.354569169868584 1.6167004937348368 11.952771808999294 -0.06392842322284474 -0.07919100580887008 -0.08970656062821325
Ni 8.648860978074794 4.9051107458797105 2.3037416202191285 -1.2541815509720982 1.9847803117458267 -1.7526528908148202
Ni 3.138527237049492 2.6127165328996274 0.7083360268952144 0.9303927596793525 3.1856724072661655 0.3310773545343589
Ni 3.6847824613419347 8.351935758199968 12.518111690135537 -0.1347155212387357 -1.0550946054358281 0.405851719332772
Ni 5.8593994728628385 8.634200534018111 6.337093370153225 -0.6531645897549655 0.40663950534139004 0.9398024830290267
Ni 7.72924876521049 3.2317523860732105 3.601429361019408 -2.246674936636937 -1.757809238204779 -0.780529841276217
Ni 5.958622923012672 4.681627458271048 9.183818160028764 -0.9432246213366982 -0.6010807245755326 0.46157138149257926
Ni 3.1158007545219792 9.044823365455784 6.163351274056827 0.42950535419596997 1.2373783633718303 1.0120132008653218
Ni 5.366160288958348 5.829324140042619 12.822191094940438 -0.671649021712398 1.8260589145107973 -0.5524213116966165
Ni 4.498008656407366 8.179791967186244 4.353570682986404 -0.5268969421732668 0.323629640007062 -0.1087923736150707
Ni 2.3419174537992578 0.5464331242171456 4.14059559930706 1.9389848506782672 2.651528296612182 1.572372279351776
Ni 3.2779504817029084 6.1929012898219025 11.081689950463412 -0.8929207308758235 -0.7634168357450143 0.4821571760637309
Ni 5.92113354097446 9.138020572082953 11.84705454589119 -0.7532866892895479 -0.7498270128757216 0.5033188977430106
Ni 4.2313916226573465 0.8046860672664662 2.6002281444681152 1.0203872838616297 0.9617764161969565 -0.5125185619644077
Ni 5.222433915236198 6.892262218945187 10.401253475110375 1.2936418138502495 0.7572706136379603 0.48995173240748524
Ni 6.825712744494745 2.5666208927239467 8.37289441843907 -0.4974228439735498 -0.2562788213662296 1.7310319701109351
Ni 1.5577792935426054 3.3756929848355797 8.096216259104535 0.94383217301371 0.947531219131852 -0.710210426925364
Ni 2.939158237663669 0.5187179924922003 0.459108477931615 0.339325453475764 -0.32226232734589016 0.18533848560192598
Ni 4.039296960506764 5.774277618838685 8.594553998966223 -0.6350277709449386 1.2482829260994759 2.1095446353091214
P 6.24866499920396 1.7076343662414375 1.8868839086978832 0.17943163319918776 0.01126683116307092 0.5937039724954871
Ni 8.820911627766685 3.3835820547949247 6.267391993371918 0.5004199789286607 -0.8578915071858322 -0.4737257574669261
P 7.615933033067162 5.4420797803852965 10.46090769750544 -1.5738056693641929 5.163572446952391 1.5216870942920826
Ni 3.804795054525131 3.7353395708334665 10.483359413133543 -0.42056357162165 2.003391499089111 -0.1219836754943641
P 5.646422526357059 5.279697199899783 6.7173083542517285 0.5661520310191476 1.6737112820125948 0.7021032244371973
P 1.1586221588227066 3.3038251409084127 10.21210673579584 1.4875284461325027 0.2345064626861445 0.2481626200169984
P 0.3942467242328067 4.331965621973773 0.4329553261738271 -1.5315647584171106 -2.243411949614949 -1.6373198878677544
Ni 6.256507498502389 3.367580375703832 5.969787773260921 0.07723696740629278 -0.46108467166414785 0.924867201875433
