# total energy = -381175.0403226807 ev
CRYSTAL
PRIMVEC
9.23668445069455 0.00000000000000 0.00000000000000

0.00000000000000 9.23668445069455 0.00000000000000

0.00000000000000 0.00000000000000 13.51882135195923

PRIMCOORD
 96 1
Ni 6.562073156107082 6.955112552954467 5.947835487314271 1.633814702927973 0.4158515108579612 -0.6694777250926921
Ni 0.9338842183129271 7.692338522576906 2.9919717670891224 0.7053530988330626 1.826724573119254 0.7948244035220182
Ni 4.9909870241141014 6.3990364388257985 0.3633859450792223 -0.6783444314547028 -0.0464174109222749 -0.6255982501009226
Ni 2.7058312904225477 2.6815757570487646 8.632254295837694 0.41908981528960076 -0.6047561165445907 0.4806726210984044
Ni 0.4179091697372978 7.09645229845547 0.5927531407549514 0.15897490800673267 -0.9251981028522905 1.1011626034384843
Ni 7.853712636656636 2.557647161741814 12.833146415856826 0.013960318834834022 0.22535873474860543 -1.5749603517939263
Ni 3.0468773904835555 2.571215851203386 1.683269359349398 -1.9714329439046436 0.06339260532403278 -0.27994145509049206
Ni 2.242509961571691 8.932446540562735 10.575760773973453 0.33887165376779704 0.45061076871601746 0.34714983461618926
Ni 3.97877572163907 5.8575727595019 11.526634026000927 -0.9483961382353087 -0.5671797009527136 0.7125843264741792
Ni 0.35406705413451167 6.2608002193010295 9.64478703493169 -1.4381869195848973 0.5059578780277544 -1.2746403330470824
Ni 4.745198850817689 8.212225307018414 11.90766203838553 0.9245450426493238 -0.5742453495502434 -0.4355181360489531
Ni 8.697437578023067 4.6630200692386525 0.4728009381050511 0.41556534707611015 0.4476511718670613 -0.17669392255305053
Ni 6.056216895349801 6.242881051462058 10.751342756078907 0.6291265749691551 -0.6491649816772691 -0.2805307519350588
Ni 2.1052713039678546 4.700271617637918 0.35454366705229057 -0.3974069309995285 0.4406773116523895 -0.050538889289816195
Ni 7.405114582823985 8.115822031381636 10.802174077961089 1.3678579921523475 0.9304089576292687 0.7834930376695991
Ni 0.89327882978875 1.1629909394870794 2.9310558331210714 0.6624205611355946 -0.6420805640266619 -0.4663122386116743
Ni 0.9452361035057603 1.9694643324542453 9.97476758701791 -0.9760599226991642 -0.1514379761997392 -0.036293435114395554
Ni 0.31426987549997887 4.184966228685136 8.574150008617158 0.14124458060650513 -1.493383876472015 -0.44896500558247837
Ni 2.779650872571549 5.0427309304202454 8.640743732518517 -0.3247799515614213 1.2301008558738107 -0.05475961223938312
Ni 1.8240419724249817 9.075282628945137 0.8860465058619896 -1.6671125457491547 0.24648368965267875 1.0062647284173185
Ni 5.400883370088354 2.1511960990685597 5.835764023839737 0.817321813293586 -0.26837637596071195 -0.16255902581356518
Ni 5.546425807015506 5.879962482616162 8.095448676483482 -0.11310385650623102 -0.9315628687280537 0.1260550173502603
Ni 2.2231775810113983 4.082402084518155 10.948230998212278 -0.15447316348163717 -0.058021570820106526 -0.10906953853585732
Ni 7.084158271448422 6.409898779742619 1.590327069377189 0.0004658838928250041 -1.4360084238763398 1.2290518457840058
P 8.497629619934077 8.931282718321647 7.059379941734595 0.7257825703320081 0.30626518058668545 0.26490358692076316
Ni 8.043951389652236 5.506116916062274 7.179021791786872 1.1571797422340522 0.3042664049891018 -1.6708624997098902
P 2.16277890137272 4.010743886531174 3.193753604645733 -0.2723556723234342 0.14987397414672898 -0.034973944972023635
Ni 0.6190721494355526 2.8218348104687574 4.623585892303125 0.2729861068185815 -0.2918366638661813 -0.5627630599422566
P 6.56563851630597 4.001442545286924 1.7807394720405056 0.5349779194091883 -0.1753608055639238 -0.8422268040653818
P 2.988871012118224 5.0948350674200595 6.409206028408638 -0.06377132881969017 0.24958392584455724 0.8036301747391063
P 8.833355389750112 3.675406057462169 6.222875316605136 0.3587491094180144 0.6708936316036123 1.6236773573836552
Ni 7.393171549826155 7.3016914270028686 8.28457718000782 0.27852914812399776 2.920615068376357 1.042068111269173
Ni 5.500574905390427 1.2540092280877122 11.73499977223569 0.2697596294614838 0.3308410701538367 -0.32952877910031636
Ni 4.2072912950082255 3.99605755825078 12.824995041826984 -1.4797341468990644 1.6990839564494287 -1.7907430128183224
Ni 6.778248519046926 2.8712141255549133 10.545180882754648 0.6567695334974044 0.24764608539189611 -0.5898974542652035
Ni 4.568076189745462 6.3294749682096665 5.440636212637512 -0.5741800435299466 -1.9247188276775562 0.6530792291300107
Ni 0.9857204914636021 6.437682726577478 7.113549401378117 0.1342843472385881 -0.8094850908579865 0.6728769805822282
Ni 6.579779880203634 9.003744507856046 13.26564123401398 0.2353955501593172 0.3834126736029655 0.5562671678052677
Ni 0.8044662614355121 1.3632792051676277 12.289284893248908 -0.01557934249549575 -0.5816524406475918 -0.4453829446581749
Ni 0.23335651969101362 8.814466370043567 9.396810691088344 -1.5667999274703208 0.17836205428409282 -0.4561640944340789
Ni 1.3828425028392475 5.389577668317786 4.962853930606915 -0.5096661801172772 -0.6282238606492277 -0.21452487735789508
Ni 3.2327564284173014 6.134728713200966 3.6306284585705364 -1.4046160256079874 0.36370028277570265 0.04847069390687781
Ni 7.842185254459193 1.7789669522939602 6.342138462594837 0.7613152160209792 0.021109785395421708 -1.4019811590883018
Ni 7.962123602082414 8.54519854486743 1.8832934558545882 -0.03646775590873074 -0.0390771685071198 0.7888347615974866
Ni 8.113448203477196 4.741337916716303 11.498339290515812 -0.8106279462131781 0.1228658209890013 -1.2227549570317005
Ni 4.9290827649095705 2.737023573820593 2.8083732665468415 1.2820134855827017 -0.9073196799099729 0.44122418529479496
Ni 2.6826379757608683 6.906804693264869 1.3794203112493817 0.8086001171498718 -0.3228901907378762 0.3450201898676961
Ni 5.077035976478978 2.4752282263669967 0.3886159486628055 1.8230543233565182 -2.360902108114334 0.9946885935439451
Ni 4.640685766231108 7.970455091459091 7.17019336878662 -0.982827837550617 -0.8758774022402915 1.2685892417569957
Ni 7.327369409782427 1.907781753676589 1.3550049832345603 -1.4270000497301425 -0.4827374740472331 2.330188481080561
Ni 5.616264378165232 8.675989996723018 9.51733094983211 0.12369114510377408 1.2806711126221946 -0.6506996731542407
Ni 2.4867833186177974 7.526623166804229 5.650367140834441 0.33876495298660364 0.2844347149751553 0.11063045526507398
Ni 3.283964607025167 0.5869460372393012 12.921316110972128 1.2926352269626062 0.030023800055599906 0.002166154413383366
Ni 1.3077759682890806 0.5291484079426094 5.496738910337063 -0.4765496000689663 -0.4406852820721895 -0.9838290251216216
Ni 4.1424128234098045 3.889309196026555 4.83730429717845 -0.7529583594158517 1.0628158853394858 -0.15156910246096478
Ni 6.354099968961573 4.332947150307902 5.728884500696279 -1.2812796927404708 0.5901216544608675 0.2143029911550761
P 8.938487332195049 0.7425758572576615 0.7093136328736815 1.2998499995434907 -0.6394359273149632 -0.6958904107582661
Ni 4.61713222087576 3.7316205190436036 7.465877187830116 -1.046122483844205 0.5191491799070479 -0.6981036163595009
P 7.904514401148566 0.9835683439860349 11.236100582208469 0.1754690490070139 0.018239148715846008 -0.764320064285574
Ni 8.154043431648475 4.951564854868363 4.558249281155831 1.1834654154034585 0.3121473503990753 -0.785802402529066
P 2.5483827672353763 2.577598400160463 12.9787442728907 -0.12262259462994365 1.4176044674478552 -0.17548550406724617
P 2.693056955823941 8.882688521414002 4.00052996086296 -0.631405343701003 -0.3320543737356475 -0.6228183733629402
P 7.665810764827665 6.941128212692506 3.803601077317997 -1.1723219971921295 0.08456666829848662 -2.0893157098567565
Ni 4.970315324308111 7.399129211298391 2.660477322421043 0.5649181586120464 -0.4368486819349186 -0.5844076347952257
Ni 4.012073969092418 0.49788407840583027 2.3866668958308828 0.09049100420272156 -0.39223335721838903 0.275158688989868
Ni 2.3239775184478413 2.8967812681210336 6.295525534502377 0.08393314847954578 0.4472701343785588 0.025338221654472495
Ni 8.099103632521565 0.5406157516911061 4.0584448960522055 0.31845169535054835 -0.6425014536141644 0.6515707629052844
Ni 8.742374047887292 3.469797461536648 2.6079566109523946 -0.7538854992158113 -0.40839376902833535 0.0584108358387252
Ni 0.8246650429975037 2.5879896701701757 0.8479193197765733 -0.5745610810184493 0.33091537503519786 0.020063860629410606
Ni 3.2740259345536553 1.724876928136734 4.33747312568991 -0.7734415669708679 0.20905356983067866 -0.06736213149474206
Ni 2.187717949396031 8.049262483212756 8.276263240331605 0.9018098058353371 0.6728612968529444 -0.4073928385676468
Ni 0.744962616520337 5.85781291329768 11.953490771967921 0.6736467688687172 -0.22347488746233124 1.767746551923149
Ni 2.5665605622390344 7.5120014953150065 12.523146659579504 0.05137244093470507 -0.43619870705574554 1.292231049545652
Ni 3.245964887185203 1.8279398532641808 10.932522168962928 0.35389949463519693 1.0482374733046784 -0.6264634263146953
Ni 6.83302205785368 2.583038807303326 4.001489652377635 2.145761965769943 1.6880307839590607 0.7648368560209925
Ni 0.3743489658565809 8.22545223915522 12.144917362584186 -1.1043487144759496 0.9053615277423376 -1.0397829147794222
Ni 8.958503227404869 7.537614821303392 5.2634045586887375 1.2117244102491518 0.8299747261709061 1.4322458715101138
Ni 4.0342974318865235 7.101190717579899 9.58904826259959 -0.4107753818866345 -0.14731264117745596 -0.7617474184623914
Ni 7.044736102202685 3.5866230464991813 7.674810990158745 -0.6890767302705423 -1.804186539917738 3.090247456096936
Ni 6.456599456337382 4.686638271385173 13.176795413596711 -0.15684269215507826 -0.5315408687031813 0.1198630296069355
Ni 0.47742297500537145 5.555431574357258 2.6488511076999535 0.6477243925760007 -0.7844430602876942 -0.6486057667396894
Ni 7.651346116974145 6.896330293095077 12.972080005057803 -0.28059888616883283 -0.5943513762714989 -1.340960139320239
Ni 6.332347577074573 0.04562275551908928 6.591115139364451 0.7036487145474463 0.2329244629110053 0.5379107767852671
Ni 3.7715414692498075 0.8283994345218831 6.557601677163347 -1.463105537203448 -0.5916869420654584 1.4147873097140344
Ni 5.2678381672262145 1.8870731071327878 8.797021967785485 0.2923861086117481 -0.1744686327669576 -0.40728253824202765
Ni 4.972790755741537 8.529126713919075 4.725625392793171 -0.967703837424985 1.159958847641086 0.3483312565188001
Ni 4.120595774731633 4.731057486920026 2.1118699913411336 -0.7120690774006575 0.7209247280190746 -2.1091006057931674
Ni 7.556771704859077 1.234141119829141 8.622722961150561 0.49952112126347514 -0.5862683421530483 1.2537490914203697
P 5.997240665116896 0.7585165272867839 3.5039972093926153 -0.21118732834422985 -0.5764896654997298 -0.5548762009950121
Ni 5.887093203013938 5.028146205668835 3.5177598692277017 0.7379264047833937 1.1591060127224877 0.5750974131378934
P 3.696068520583705 0.5121556795542814 9.091190970578673 -0.7930112615726794 -1.0178308359883632 -0.8523482087700998
Ni 0.8385440850566991 1.383156550110652 7.54388098803636 -0.4972449236347888 0.06862120071282375 1.1089910983439675
P 2.119809845297 6.729755925668265 10.53500113281891 1.2146127875405404 -0.29342611984048816 -0.0659696220225896
P 4.4521465631748764 8.451880321837981 0.7579844942622865 0.1815203974074164 -0.5595165279805009 -1.4676293932157305
P 7.438459013699597 5.308405685344135 9.295771523524568 0.19837654973280675 -1.1935161147712412 0.7706411214075954
Ni 4.599739544050613 3.8324943499556703 9.96836009901281 -0.1295740862471123 0.7500262733707211 0.5103279820709921
