# total energy = -340862.1867912223 ev
CRYSTAL
PRIMVEC
9.37463620267797 0.00000000000000 0.00000000000000

0.00000000000000 9.37463620267797 0.00000000000000

0.00000000000000 0.00000000000000 13.72072768536776

PRIMCOORD
 96 1
Ni 5.23375626315376 8.274382012414211 10.592717354852955 -1.3032058033896006 -0.4363262337725453 1.0474036645494735
Ni 9.285539646363704 2.799144495675701 7.893218679617813 -0.900719658094952 0.774879327858659 -0.5937391966087968
Ni 2.6491128181117283 3.6384181751053575 13.31858688168691 -1.7142557790938606 0.6442138083195809 1.6458474657227915
Ni 0.34557065157875727 8.631330659935196 4.721014286667227 -2.84594457614566 0.16550782402924402 0.9641292326998494
Ni 1.9603207987831022 2.416546843542431 2.9558977873869723 -0.23917764290956875 0.8496338951627304 -0.9210856233458137
Ni 0.4036512100858551 4.72073867236328 3.137999157888873 0.5137367506422249 -1.5489253611827454 -0.4533955305500062
Ni 2.0815535939753853 5.70072564098534 6.437793286831301 -0.4704172619189834 -0.7906059945652966 1.3928231467381171
Ni 5.380731809320215 8.949346443364504 8.090056978208352 0.0698015941741701 -1.1714545069855116 -2.000277893160794
Ni 6.4989009153637305 5.520113900173824 6.523862759143384 -0.07677905393326777 -0.9048527064267191 3.1460769043617303
Ni 1.5909507583120897 8.10651977681933 12.30989383959143 -0.1459144752783487 1.6534016239209652 0.5295968576029332
Ni 5.10549249081995 1.888820448571879 8.375378717929564 2.0052763748166496 1.3501711163955457 -2.031414209554282
Ni 4.500894079102049 3.131540971018477 1.378891800405576 -0.24352820656878058 -0.1059649314686046 0.2934073507874108
Ni 4.07982292005035 2.7985445189596243 6.107946712531851 -1.3977282973492184 -1.4701842984271003 -0.5727345693326716
Ni 7.464422820346625 7.985896332979313 5.879332147116092 0.7126480898325791 -0.7567790187135225 1.3083973748928692
Ni 5.122451207685311 7.607723509127109 3.1173083983567906 -0.464534063665329 0.69451075680192 0.05346840423178534
Ni 4.631220271397372 0.12468078638248715 5.627680350730218 0.6867588807706431 0.36220312940488586 0.2692356386372137
Ni 3.766916313343884 0.48346217527836205 3.169679803424969 2.3794099371105344 1.2339878496330425 -2.3363424164970987
Ni 3.020779644448973 8.277438143811729 0.9544120236356648 -0.25089236024333567 -0.7133839395573391 -0.18891720409211982
Ni 8.640864664939105 5.139447423095426 0.7209198350109236 1.0452660493811805 -0.7795263397123671 -0.9940725572265008
Ni 7.206226590437418 2.2003208598500397 10.635223830259763 -1.5742170458699984 0.8674418698784286 1.5848195039761932
Ni 5.434645342041435 4.119402634039045 3.5727947843208305 2.824870786194496 1.915268995118566 -2.2154460605296427
Ni 4.262572077912889 2.1113743116916437 12.768536665560204 3.2511396357310396 0.3830799728538951 1.4546247534259464
Ni 4.3883328223843145 4.300351861753355 7.612452075620691 0.7096774372400294 2.1500937603760777 1.8525124807166353
Ni 0.4133633331773494 6.331329293490698 11.939941634213097 -2.4801470445212965 -1.741287586400672 -0.896547014774501
P 3.644136703180465 3.3270396340976496 3.996258350527887 -1.4320116440121207 -0.5954798334489874 0.38767761952690655
P 0.8395558559789363 9.105902867715814 0.57565141009443 0.9091919572320213 -1.077834470235505 -1.1394735832035408
P 5.552850129744768 0.4422775235741603 1.6906265775884541 -0.27821753042084985 0.22030908813983993 0.6178700282187295
P 6.483582759831393 1.1766574612248208 6.422315762483755 -1.12970236274939 -1.3240219688040038 0.08970501796631648
P 7.673092847270922 6.657669753855572 13.281801746746066 -0.06310592732154938 0.47673291972436604 -2.834487997569286
P 5.832373656983269 0.4309782745759188 11.962128585680897 0.8159354744690206 0.7963446968212866 0.9022376374013752
P 8.393814877458265 3.491489502119845 12.383217556541354 0.21254358526180817 -0.6540976430921961 -0.9127207963208861
P 9.077019613618425 6.256885307516222 9.460537855025425 0.7994701298241458 0.692735410069052 0.5644689868897698
Ni 6.853796517559388 3.110204299052993 7.136891781185785 0.1075163351161245 1.7324643316820871 0.4298424258204146
Ni 2.3502869149606918 1.912500779584538 11.660052496163237 -2.295349776134821 -2.5015810460253562 -2.09297747497906
Ni 4.509490620487088 5.099670841746767 10.335508274134419 0.6655495936828796 0.0700605042625116 -0.028396548864822065
Ni 7.02815537603304 2.2402661846500953 2.064709247671527 -1.5992107397008588 -0.5296009713679911 2.104363862439131
Ni 4.484919699036502 1.3790839804474442 10.394246932101963 0.1130992285205407 -1.3364362833079566 1.9441154870366129
Ni 0.5180798943323787 7.101146293398267 2.463913130349462 0.13245012224332672 -0.3646197092661785 -0.3006041256461661
Ni 3.120647643767206 2.7804139725706762 9.134286453704343 -1.264245362966003 1.509918898012561 -0.1249162757601268
Ni 3.5989790806594923 9.333987766186912 12.502258561792718 0.8117597458247762 -1.0297880083502393 -0.5635390188763326
Ni 1.7258142745227438 5.364223074991912 8.774157929588153 -0.4325631671856873 -0.2848743736157352 1.0051588969476495
Ni 8.205853421874808 2.0078970774407607 5.361332874654936 -1.6179216858468008 -1.4648384607341547 -0.725186588619222
Ni 6.074998616183042 6.543242944536286 8.855782886883173 -0.5091578730222908 -0.12205643771382849 -0.5273833948913821
Ni 3.246624004870972 0.38443414336263665 8.404453214605203 -1.1121548407839297 0.3886767502153822 -0.31969945171472036
Ni 9.304092051381144 1.1705358237935992 11.510565484961827 -0.25315081726020916 1.5099623496559866 0.0549249341726538
Ni 8.0093047995425 4.609667982799548 10.167114496667637 0.1294378177795642 -1.0190425969082773 -0.08593166696681329
Ni 3.1921479939784296 7.916805264268586 6.719314549041614 0.02650524537938016 -0.9573317501620418 0.7372319498195302
Ni 6.737129170191003 5.066681496998728 12.14256970811378 -0.3364298770955238 -0.7250492917104094 0.8421147039675497
Ni 2.504902789620939 9.044845862218803 4.6019592194615795 -0.17706724673206925 -1.0275254375683078 2.365067038125301
Ni 1.0506154776677346 1.5324905270393494 9.372505333895427 1.2065904314566962 -1.7332274351003567 0.6942811572896173
Ni 4.4106163326048575 5.1211481332550814 13.106903846691564 0.2075530740257522 -0.23857909009362135 -0.466123519639636
Ni 4.146129721813033 5.408696349071111 5.068958596128963 -0.7203727121703465 0.31278472687275805 0.44259432616944416
Ni 8.58012639707251 0.8613443854087154 1.0814017829114289 -0.7443443924945955 0.06663039553504009 0.5669668136109591
Ni 1.052040422368417 1.6753881064637206 5.020181426575532 0.1917299909505666 -1.5051438452214208 -1.1307125491814591
Ni 1.1929130803760288 3.743807835138736 10.439593922273948 -0.44756966789684854 0.08695188070121153 0.7797942486617732
Ni 5.7365461258623665 7.864110434251897 13.327848084777727 -0.08806773947320962 2.3047787827582047 -2.0418449179693026
P 6.408791912317935 4.152335730969953 1.3117375315314344 -0.26102533491227947 1.4289224635638358 -0.08963791217380691
P 0.9660187607008955 3.694919107414659 1.149621010456607 1.1707291987837127 0.9113951355309271 -0.037310049304368
P 1.8802051579144625 3.6271029892255955 7.344897146404303 0.39173199210193826 0.3688144640738164 -0.22787250230939465
P 0.8110372752292886 7.721784707635036 6.672375745644787 0.20876046407029208 -0.6799112617211903 -0.7631514978987696
P 2.4848973159942513 9.270596476278914 10.430140539141261 -0.5654238946038713 0.9750386805235015 0.32547903451097493
P 7.691785871831193 4.011659940322304 4.7570307014405975 -1.480697025032966 2.19657776287023 0.009255457159996964
P 5.438057709614123 7.481840894385231 6.301669819516885 -0.9338048706846951 -0.7198176109978248 0.07867369985281934
P 8.955768069153764 2.160788019042287 3.011699371836597 1.3071812430975809 -0.8295273542208422 0.6389366190810415
Ni 8.112603915705797 8.860062408303316 12.697010066367653 -0.45946359112095714 -0.6193121599818947 0.3635748129414319
Ni 5.525363696439496 2.0855284397193943 4.4344841563412905 0.7222845844810787 -1.5199392583630402 -0.16617091153453964
Ni 5.4644566851215055 6.402529655343883 1.084800088529833 0.07062229030325257 -2.520620836265627 2.1087298527173104
Ni 8.494704712121067 7.763567461128078 8.072672652860025 -0.6938497261791534 -0.898686172604691 0.41308911762147565
Ni 6.530409067593954 2.4627075521355954 13.560496556145488 0.7756177486865803 0.16235410889161073 -1.603950311268373
Ni 6.879783009074467 0.06542839835180173 4.320547640494674 -0.7871532601300056 1.4066801072258677 -1.3661145270986794
Ni 0.2755899298937223 3.6961378101191906 5.541541506110338 1.6000458340076444 2.69420115289036 0.8948608853213298
Ni 3.3313894652892073 7.203423574216997 10.5376694911529 -2.1494797809411628 -0.42733945689290276 0.48157173587390606
Ni 8.946543427144084 6.1670856674646535 4.874768632261733 -0.983589141196674 -0.2754937037317836 0.5332185135159204
Ni 1.2341052317891816 9.376979847748295 2.731344314368158 0.11438966519719011 1.3097256067859895 -1.5148659576051908
Ni 1.7507039336037453 6.078260989576711 0.27414998577513777 0.5125437587753882 -0.5403942053287532 0.33996874348671774
Ni 1.7628065889233586 6.695552658694113 4.533767178361349 0.9934428940623019 -0.3841109852215707 -0.8912207174655813
Ni 7.218563611661748 7.070641227240234 10.9141530055639 1.1800970131518578 -0.7281562127705072 0.6201192292642224
Ni 6.3551314947738105 6.049087121757473 4.549971237013518 0.2890501022599796 2.000619849881245 -2.25417073079335
Ni 6.91166614675224 9.107627800774534 9.629892532701549 1.2417332979064162 0.25717767903141514 0.09714810450792301
Ni 1.5936881520791903 7.921473833090559 8.832622848178987 -0.28540736330106975 -0.29487236536871153 -0.35206989762562596
Ni 9.055879809012904 8.587879221200566 10.421111827027923 1.1472100326158499 -1.0108718881720269 -0.4379326590277167
Ni -0.2578193695344204 0.4501400309456239 7.174458760784766 0.31231472921487496 0.4047687706812384 -0.4321893287860363
Ni 7.832386665389332 7.62987577444101 1.346708674369765 -0.40542131666357273 1.4825099098719885 0.8316042913545291
Ni 2.8401491543650796 5.000937173407367 2.7208747206726165 0.08234549227745172 0.29727377572135255 -0.13367448156873107
Ni 7.603701790202156 5.51688902532491 2.69973116621262 -0.9828682038702493 0.12799105803070862 0.3029916520417362
Ni 8.721383415163858 5.121823107060668 7.283195165937511 0.40835545959123226 0.7186531583760783 1.0592641634324853
Ni 2.969697251856741 1.2253586962251233 0.9268187194778418 0.07608254208687541 0.4466075610938954 -0.0246350249398608
Ni 0.9630844995738321 1.8222230330873461 13.450635194650099 -0.6734793900529176 0.7824854223406912 1.1229629871430273
P 3.7553855108317813 6.250454307090774 8.576456227004634 -0.053268629516153417 0.9980351414186747 -0.9158847958711647
P 3.567892787057759 3.505532707130519 11.338329044121297 0.2888199885270445 1.4938644156528595 -0.9094138434348401
P 6.049658974564983 3.8071428772296003 9.504512398459385 0.022809284585031685 -0.4765879095060695 -1.4684251496441485
P 8.27375391178957 1.1599518595365557 9.228780911559213 2.873515543785393 0.28237808955644267 -1.55130260316567
P 2.498659281919264 1.0451313154973443 6.337165004518164 1.6794867510437914 -0.7489011586273425 1.1745118057545965
P 7.914330360314769 7.777610666138752 3.5521321486973148 0.2959619988884645 -1.4975511204758274 0.006781541698207675
P 2.833999393025292 7.45218892012037 2.9027436001970375 0.7453383809767485 -0.2352150587173949 0.026884740205985955
P 3.528219326707176 7.071541192314349 12.84070730225892 0.28464657387564524 -0.6410899179786185 0.13757793038819532
