# total energy = -381171.87320427067 ev
CRYSTAL
PRIMVEC
9.23142850517491 0.00000000000000 0.00000000000000

0.00000000000000 9.23142850517491 0.00000000000000

0.00000000000000 0.00000000000000 13.51112874441815

PRIMCOORD
 96 1
Ni 2.9530140213752047 2.3472938295182866 12.4231185051262 1.1347720639628134 -2.1369351115069324 0.039127562129080994
Ni 8.0284719642742 7.401842586490954 1.9698142494045365 0.18533720005034532 -1.2085611820298219 -1.4741183433741838
Ni 2.0671938209634955 3.5780648248567273 10.241530666431201 0.9013467501559896 0.06606115329513139 0.35675599024738563
Ni 2.9132357952575267 8.274997266774221 5.574597598246503 0.1715311474051885 -0.4552127862644031 0.9050213707940994
Ni 8.51223575203721 4.896912881088361 3.1705886404387806 -2.5083137367634993 -0.7577539810322821 -0.38381967923339705
Ni 7.06978809740929 8.84545340113067 10.815036864818579 -0.06251765891824718 -0.08090078941112519 -0.3877943476104289
Ni 0.9458706438778264 6.345287112919239 6.592593394284325 0.8626292789811338 1.3387078529509526 0.7827962687128905
Ni 1.3521919765697759 6.063377744346099 10.7961355146269 -0.6500448131790612 -1.71404263464179 0.6433545456430791
Ni 5.167790692406772 9.193930601807446 9.197877037561755 0.050794971164680264 -0.16546900037150858 -1.7337126022668916
Ni 4.74325575095869 7.320966039956495 -0.0136431284240698 1.1351122209110516 0.4449445715691756 1.54789897680076
Ni 0.42158088427526863 2.9785296902053893 8.65741843065237 0.3406454578387682 -0.017241817799583208 -0.680760497095363
Ni 1.3427205307594399 7.134066535203997 8.73930858805425 -0.11041653948205499 0.35440754461986707 -0.3002351723425216
Ni 2.9206578639042227 8.367616190570617 9.805445361437416 0.23206211491071005 -0.6578139156015187 1.4744998950833186
Ni 0.8996008771228886 7.414388098046749 0.1469698832047132 -2.355067760820744 -1.7190768546315878 -0.37594104781626864
Ni 5.4405147894581924 6.174967254049162 6.191002245640345 -0.7294571909701179 1.2549515963689033 -1.6268339007347659
Ni 4.203854142631453 1.055272304987273 5.509986829019854 0.14778726682102933 -0.5984510002621695 -0.19649244533621643
Ni 7.826682165084983 6.498122645897722 10.390868411088498 -0.05314470234377943 0.03391156514578031 1.5544938564094584
Ni 8.003436329734598 6.289944698072295 6.346420732359307 -2.2133184726636785 -0.5741041959866887 0.7213762137341964
Ni 3.1666292806843432 4.911027735517214 3.0843338635640674 0.36000586464325096 -0.1426856839284059 0.6934900288468895
Ni 0.9014767034276256 5.160331698045416 4.670054214216349 0.9856141420465027 1.6174277769295176 -1.4180564673836096
Ni 6.7015279451033205 6.891390738457298 3.9083238010630397 0.49880995412906354 -0.8535049480823623 0.2750843841085069
Ni 4.329900069623975 4.879991672345334 8.310006536843538 1.1231889871109042 -2.6140392985277883 -0.7216081272393442
Ni 5.48208391273689 2.4331184218172086 12.968022044937802 0.8288519254203727 0.16216744680210138 -1.3095906238700221
Ni 7.849686885318275 4.106065618782633 5.175356771340644 -2.0070342380480213 -0.12206980745026719 1.9967734795519612
P 0.4909532244073478 0.7788648678984998 8.18794674074858 -0.09337166818462629 -0.8439273316962562 -0.7945996891057219
Ni 2.7003590502415924 7.627394083063995 1.520137511987204 1.8028585651349336 -0.029087661394575713 0.8882343811437476
P 6.845510537992025 3.9252311626630694 11.800038611664665 -0.16307838865214497 -0.6191884899198368 0.7830086418340128
Ni 7.150747726801733 3.2695227845849333 8.389222349361154 1.0221819138682076 -0.683513634360468 -1.0230522322883024
P 6.200842948597283 4.488237534086825 7.003872004169404 0.6626740719072974 -0.7835861116040376 -0.04940863234011491
P 4.4775752339786985 5.786674901540045 1.6521949453264038 1.088313258279642 0.4964543094126934 -0.09342411868911653
P 8.411696262446206 5.383519948880206 1.1516908848222005 -0.8038584886998286 -0.6356646331979892 -2.138772164715671
Ni 3.5148295385011696 6.8739618011376935 7.659188969672143 -0.1989159671760445 2.4824204139365054 0.7284786291069325
Ni 8.582514618464197 5.2028239641906175 8.508497946570733 0.5982501971052729 0.5513715302758633 -0.2992866923863233
Ni 5.858624656555404 4.667991913052578 3.7315844066992896 -0.46743812468600143 -0.6690246967156736 -0.3499376817739715
Ni 2.043025940718408 7.217380178906028 3.8424972526812047 -1.6498984958637135 -0.3486505875314318 -0.2845858958410389
Ni 0.4591131037987415 2.808772948483879 4.6080651707305735 -1.1279316440022122 -1.3603760819530055 -0.5199459647767304
Ni 4.024293623667665 2.4535198791669575 3.46783418145316 -0.14030021441536483 0.24894269271613256 -0.32152776317271076
Ni 1.589282758974123 1.1327609172016595 10.044889235008482 0.6938702950044436 -0.25162820996809565 0.46051594364487136
Ni 6.913564630110736 7.180011355669926 12.697555955337851 0.7107945815636081 0.7257550595281823 -0.07066702749825894
Ni 2.5203554227018827 5.445859786655253 0.6306127392522118 0.5253450243051145 -1.0507499553138873 -0.7008976341648704
Ni 3.3011311963340466 -0.004311077186575949 3.368405232730561 -0.16168202252525057 0.2826549973669132 -0.6752405957183983
Ni 8.425331082584478 1.3865051969177475 9.852842285632354 -0.5554045626946564 -0.7601487065167037 0.4243310090838821
Ni -0.014555193576176231 8.491197326109573 6.601929138093285 0.9170597900158721 1.1118648203473367 0.2593916559635985
Ni 0.40493846467792577 8.158902819882618 10.965281135770784 -0.09805878924765048 1.1517819682572485 0.44804326509915743
Ni 4.539675054608455 3.473278878079803 5.817986984429011 0.4538506158095539 0.436757407772693 -0.34558763233539197
Ni 5.748761424012706 6.721117036730545 8.49323100984448 1.1976645897219762 1.2754178346430551 0.7452355368502972
Ni 6.077529524489614 2.042998246432413 1.7417333413772733 0.3230151463515146 -0.3079875625944309 1.0843977252753196
Ni 1.8499875359036548 1.4794749150034143 5.985619574414693 0.09579570424508663 -0.4336196334746597 -0.35681255451693383
Ni 2.7400541935012854 2.746054622133564 7.53835879987537 1.3632328346755103 0.41990691187425744 1.6744214207057422
Ni 1.1991441207319973 3.3081655449768106 0.548837974708645 0.1796478629750519 -0.44588328133336114 -0.6446681222481802
Ni 1.9590660970098248 4.875939075161379 8.273594089617134 -0.7717742065707741 0.747134553645223 1.6243561286182346
Ni 0.7137842189528001 8.743519965811243 2.1957608511244415 0.6752591076611596 0.5736020595392896 0.38801366271008664
Ni 3.6295577339503478 0.32227471355391507 0.4005535360620294 -0.07856828462320663 0.7919496530773845 0.0016581044287132735
Ni 6.343680844331521 4.892241778183848 9.948879607463414 -0.5815380265569146 -0.15309505218718794 -0.2534652631768345
Ni 5.221102192947407 1.8825375533766031 7.491177891111192 -0.5713114637329 0.25705529452093795 1.4877850422279992
Ni 0.9907907757619347 5.885700436829981 2.1246788504035963 0.24410053413248284 1.216537515367079 0.4665364388073384
P 5.225117864416701 8.64312817907888 6.87349007513291 -0.8584057278180894 -0.028418403241692994 0.6378277022875789
Ni 6.253323620558062 2.2902528317969746 10.178055362930353 0.5316948777825423 -1.9606965313237457 0.8244473685947736
P 2.442109833336962 3.5967676993321085 4.9644620140590945 1.1296005470642032 -1.116531886805703 -0.30432631169275975
Ni 0.5008677787936059 0.5038679931097455 4.50519105283018 -0.5497105976336727 -1.8419426756205892 -0.9349752368437124
P 3.6236034624613938 1.917312345157827 9.645352079242473 1.2008650989371448 0.04579674661914049 -0.831472393762355
P 2.338016243709917 4.2735975861958675 12.27350935646615 -0.840562014768449 2.0121430200294963 -0.10930890824017304
P 8.7147456026623 7.292339379666191 4.613240309640198 1.461455917415167 0.749660148280554 -0.5744559228991526
Ni 6.26409669781017 5.082399977255108 0.25119086654733663 0.08503692306668581 -0.0700191095016149 0.7116872685812066
Ni 7.062716823051866 8.534806595123245 5.619022002411299 -1.1467626606657861 0.46863111655283807 0.2252810874331346
Ni 9.032989874461055 1.7819703694996045 2.1979496228609237 -0.15152127994216485 0.1333500083497768 -0.3037133606991092
Ni 2.826838854381372 7.120920980784974 12.533247602814452 -1.1751772072527373 1.0241369807120493 -2.502642397410335
Ni 7.667236929182328 -0.07655808420495003 3.3327359155116945 -0.6177640987684844 1.5127064880600272 0.5041007702143576
Ni 5.167098335256894 7.435638846833683 11.017312237155576 0.3864627732831989 -1.6899367427325216 -0.3561846911249479
Ni 4.478590691131854 0.30062055133431936 11.266849754829002 0.11367644118024939 2.5304331943703584 2.0195506253474766
Ni 8.649202459140481 1.9873050372961971 6.655893300640537 -0.363353183848929 -1.02056726108292 -0.22041013249407845
Ni 4.618548381122598 3.6001740965095097 10.844261721686378 -2.356447157666774 0.22107604821285154 0.25396791384486583
Ni 5.679922660457466 8.06476071035649 2.1142888774410884 -0.8904465583037181 0.08778980322147462 -0.2889125482408508
Ni 8.396372090862231 7.836384396611945 8.81787635427958 -0.13782681317420778 1.412121589956413 -1.0690340983350557
Ni 0.5232567627349393 2.4372817961451436 11.924017621779083 0.852772440791712 -0.6100983546931106 0.4459668421861029
Ni 6.491632951546196 1.8932183163420597 5.412193689456702 0.21846097918750765 -0.4429712498928887 -0.5947121020450273
Ni 7.907032520185534 3.2305384613324484 0.24835497166143486 0.26501954367333713 0.1304274353863431 -0.18322735279619412
Ni 4.302418106488137 5.3307900283454694 12.496996705589687 0.26800099489916424 -1.3646281723611402 -1.1312151998494906
Ni 6.034187966907228 0.15158559753723563 13.280467133249177 -0.44537240313521365 -0.5060386106670189 0.42024938281534074
Ni 4.209817645549072 3.587619353525049 0.9531616262374789 -0.647925195732897 0.3803420050974417 0.9599270216930437
Ni 3.0263577221189863 0.13160509333461254 7.632896014548361 0.11597346474454219 0.6337494184531473 0.5653138513885683
Ni 7.9412718891041845 1.1175105970470054 12.41625493791374 -0.6627121242340844 2.119330253940976 -1.2796002481555186
Ni 8.802665729268186 3.8820003822246645 10.667198304176486 -1.6949897317753968 1.4881012879168372 -1.2876123198267178
Ni 0.5485019507052374 4.011397317822598 6.54666888296146 0.475187172503801 0.04615695817203664 1.7300523798064849
Ni 3.586483887799248 5.912840837105213 10.154154270973685 -0.2391766144683042 0.15691262616106527 0.2855953109421598
Ni 8.455665557177815 5.491056861399313 12.419902275379298 0.8707886748634746 -0.7027711970384993 0.8226051731797124
Ni 0.7910401991648275 0.3941404625684228 13.206804025073586 1.5069572442810757 2.028954949380512 0.8014431943901165
Ni 4.34097778402203 6.6441915416647275 3.9838239635429753 0.30572242070933797 1.1228537152586726 0.019425969935095575
P 5.458922258216292 0.5415746866349878 3.4279220996198383 -0.31398980292445283 1.054962707843654 0.46717612927386637
Ni 2.9208701867635187 5.262883639085399 6.286565995180889 0.7433113232443909 -0.5296482796661588 -2.470858677240835
P 2.0675907723960925 1.3074380104016385 1.6819330696279793 -0.3128438622454677 0.5097862506349091 0.549735280224021
Ni 1.391517862682867 3.612304193775379 2.7782667693173715 0.38986948497190277 -0.9900539229854111 -0.7799341166737471
P 7.562774082408681 2.5660233003078594 3.6401277197718236 -0.201816171541975 0.2751430052605842 -0.9885117753092717
P 2.5146411683582195 9.214147430583896 11.9897620104458 -0.846743975209445 -0.420265837875573 -0.8217842199403138
P 8.134236442489618 8.747277157277917 0.13327136620865312 -0.3089517262799131 -1.8813260625142183 1.3514368704818467
Ni 7.09130655762751 0.39765394431833884 7.751510641465522 0.48168486441300273 0.18315587612831036 0.5128661751118135
