# total energy = -340855.53899653757 ev
CRYSTAL
PRIMVEC
9.35776201365137 0.00000000000000 0.00000000000000

0.00000000000000 9.35776201365137 0.00000000000000

0.00000000000000 0.00000000000000 13.69603060406177

PRIMCOORD
 96 1
Ni 1.945038860480753 1.0071291122054578 6.252128391458837 3.5289905268410897 1.247483313016316 -0.7722370051398055
Ni 4.90396313717637 4.991373990018286 10.276693057478491 -0.3051153832529584 0.9056546335027242 1.1896466045135061
Ni 3.4483165025736287 3.6947999480137383 1.9239221352347335 1.5658288218063035 1.2477666485846897 0.9962078584019488
Ni 4.929594046707899 0.27524546206519357 3.5838814617895105 -1.6322226758505052 -1.1260344269794993 2.187486856312555
Ni 5.60169657145524 9.185831628589147 13.004093206724907 0.11872120269300843 0.03890207638183623 0.14706864348744994
Ni 8.431521166552841 7.095859753568668 7.171994503458596 0.2662174206361802 0.6669431315962966 -0.7343147761727353
Ni 0.8746101044508806 1.240230958291757 2.4919513765042187 1.2717833232142612 -0.028131211018577358 0.5233804443795761
Ni 6.833589763995777 7.241045427676613 0.837438267308825 5.355511725700286 8.136399678555929 -3.3455741979625415
Ni 1.0630323811143119 0.4333916362465849 8.474171973220528 0.33378858281793483 1.1266198671693244 0.5893600937044947
Ni 3.246376003234314 5.859222175802689 4.42580396854613 -0.28889300785682503 -2.4242394347203993 -2.6907329918361014
Ni 2.86942664297545 3.6075013883132527 13.353931259537717 -0.4960321342736102 0.007395521133122746 0.2570126142084606
Ni 0.2580683545310301 0.633289336188042 11.964701339210269 -0.1141117289454551 -0.18670708381467846 0.5379051203583123
Ni 8.748505989287779 4.604383751363171 8.034324417117865 0.7375890760486329 -0.6646630773128682 -1.7947202522985155
Ni 3.462998830815676 6.001544374804155 13.161200669348068 -1.6176859156869108 -0.9674793801190048 0.8443464215115458
Ni 6.285580518291005 3.066678903660038 11.373868168244769 -0.8053199037367034 -0.23262338673081873 0.008566401512772343
Ni 4.121027281837052 8.771310854759971 9.333584136754961 -1.8991947152645228 0.07608845562414637 -2.7695802411523074
Ni 0.20556101737427246 0.5523475040687059 4.7662730302589145 0.2730079611954524 -0.4866956873640328 -0.6763986205822415
Ni 8.123866032318425 0.5608359297846787 6.9290548424068 0.4085076688983803 -0.026503445607167258 -1.0401832355416343
Ni 4.813913395510836 4.9693832498214645 6.045427598699045 0.9093840186381692 0.4893989452278088 0.3639787332480699
Ni 8.07796621075868 0.754671671641242 0.5951733008817909 0.17490674874564072 -0.6591951122197615 -1.9721166002352293
Ni 4.192904250114405 9.247714507279179 6.552303866697796 -0.5062738666062765 -0.24344130328192914 -0.3118989818336951
Ni 8.038719757828693 6.437092039366207 4.3134687171875195 -0.34854697207403196 0.5435720888361025 -0.9870380189772227
Ni 5.471024785877195 6.605672117938855 12.640546032895783 2.2989238666393246 0.18024281624657348 0.5296441659011007
Ni 1.0080836039076178 2.8348309976530475 7.031979928513528 0.5005989277086863 0.9031537214577414 1.1748671322114865
P 7.23166895036716 8.828196688656343 8.553883259665023 -1.1854104549449713 -1.6014936221977645 -0.540571868557198
P 0.8417128928926155 2.2700807161133345 0.3058528293144536 -0.026271274991703144 1.0625621174574669 -0.4791243027746781
P 2.034630071818779 5.6994477510705535 11.321768829501876 0.5445514220302364 0.061051615895681956 0.46409954723107166
P 0.01387943228081891 7.551685687920723 0.6289136467769639 0.781527429302796 -0.7708817766634918 -2.617723432247595
P 2.959729044209203 0.26713696147772753 10.828108528473324 -0.3209832035231504 0.8099293774842568 -1.5601711092998936
P 6.558499640776229 7.627081174629567 2.801700777826314 -0.6109378198752704 0.009931400181099025 2.696414358491595
P 8.192552003826794 4.926562131889273 1.6088865342797947 -0.46310350186638954 0.5838075393173817 0.652251848132709
P 8.040422870473725 0.8315690791167204 2.6400875529032533 0.025652410460781625 -0.10058515521392998 2.380325249835952
Ni 2.8459854497018173 3.012198014542638 4.202325644680431 0.9721071086990033 1.2510831145524324 0.508550321345279
Ni 9.350378511832082 6.913458260838271 11.579157810527251 1.416950121693308 -1.7715834091707359 1.7450989897269624
Ni 7.247127972837436 4.502711669559572 9.76029807419114 0.6128067547632091 2.119936777176723 1.4930313782286027
Ni 7.561548768843042 4.196254328833751 3.9645215232967264 -0.2080688373199062 -0.17189547272314268 -0.05954983453917486
Ni 5.398202683659468 2.664079918346074 6.441160794190708 0.8224272528409514 0.7422944519441023 -3.1747439332791196
Ni 6.1594753204644705 3.0057318011485945 2.1986922230012045 -0.5888574430364631 1.858593653913709 0.2107499836964951
Ni 2.92088497503601 8.150928679403194 3.8857422699261073 0.33745728991877366 1.2709965656469078 0.1768492171839922
Ni 7.531538426795722 7.977201831848311 12.213846132102283 0.2999572360907866 0.4300946510405367 0.6359286854926531
Ni 7.389150723461754 1.8680619120300945 4.632763971307392 -0.5360701240321025 -0.23557604160123946 -0.12422053524468285
Ni 5.370878019244696 5.330471203853261 3.516619741624954 0.9026050480431229 1.0877206190009654 -0.01403359527493067
Ni 2.2572325091813195 7.954284673234688 1.5052895608768404 0.5184009888871136 -1.645780874150914 0.3112922014876316
Ni 8.440878928338721 7.173005141731472 9.61580487445535 -1.3269388853404824 0.3704003205036976 -0.7899848160415297
Ni 3.637801820975936 2.1101004206219103 9.011727663234293 -1.3542596846426227 -0.685213133550078 -0.10362137093709252
Ni 1.0905348430030164 0.1615299408431659 0.5167206333974992 -0.06929482974108066 0.28407810296668495 -1.2802113993769564
Ni 3.1280564632136327 6.306700986641739 9.113981797820973 -0.23746117443909429 -1.5347156453412665 0.33139051489940347
Ni 8.888011501991695 7.967076733595987 2.56881416026109 -2.967158206243219 3.2479036452922454 -0.5621156561662449
Ni 5.7102372504096754 7.269268437222831 5.012747117937238 0.17919072083297527 0.5509393278344512 -4.148486006478384
Ni 7.899195529601206 2.3692729910436747 8.569537859356622 0.2773636670609868 0.04545299012647656 -0.9716815911258103
Ni 1.869521722868692 7.915169228969705 12.6138249441162 -4.790241840175775 -5.212754565103998 -0.65011860383979
Ni 0.19851836585421828 4.851419304748647 10.150250980227666 1.5492734885507835 0.1474198561792816 1.4663279007954875
Ni 8.546762002945966 2.715238802029486 10.788883598395445 0.7426965724785273 -0.4520012213056409 1.311146655503232
Ni 2.159509402851363 3.375129447646253 11.112725788967076 0.2973992455556233 0.22092872400170982 -1.3445679112761555
Ni 5.871724145548626 1.1046837788232688 7.806134460192975 0.20102607154051186 -2.322726368375561 2.3559056833410073
Ni 0.3953055457780486 2.814047408726605 4.185301068663377 -0.3534747483929525 1.0605340312838445 1.77827419092735
P 3.74691332339931 7.129688062424628 5.813554426735231 -0.193228429872964 1.8771778446737992 3.497884035244273
P 7.20177090146127 0.7706678296380273 11.754206909822479 0.3189985689929538 1.5078219062742162 0.2963211820000961
P 2.607559037159352 0.9826492073735928 4.103851110079067 -0.5190023699165384 -1.7240449972701406 -0.570819611698146
P 4.142765362465655 8.595646950515409 0.9445313005149846 2.004577291867096 1.118821711281144 0.482713305677517
P 5.11350213908582 3.386452339407169 4.075596284142778 -0.06581792693607375 -1.1611587814864583 1.5231482522186415
P 6.6452367347695604 6.328897597597849 10.912832767906513 0.7080566138071548 -1.5586371891538706 -0.3516078703875428
P 0.7235430770605085 8.851020269652107 6.590105481208043 -1.9201240092180223 -2.782083515825641 0.22614652075722344
P 5.094926981940847 3.3426205832021014 0.26731663050401644 -0.7085219834793475 0.013274091401086817 0.0874092799536043
Ni 4.376213445738031 1.9253314141596873 12.536565391259607 0.20238027157556113 0.47457190751730527 -0.3928745903468137
Ni 5.2372023921333835 1.102606355706803 10.438292245758872 0.6849989606567429 1.1685393902212455 0.515486643453796
Ni 1.2757436642691762 6.990893739616438 5.457745186126852 -0.5208741330179545 1.3633127959838263 0.46236071016309405
Ni 9.120224360708335 5.195186041714776 5.753879979826667 1.2847748503779228 -1.4068896521335126 -0.32269761511109585
Ni 5.962625443536675 0.8818838926870461 1.8715355132050135 0.7014815316927984 -1.443448167983837 -2.8019584003726967
Ni 3.50886122132828 1.4128255166705488 1.2193594064045277 -0.2215846124181539 -0.38148151801852365 -0.46869693679376706
Ni 8.481033084161936 0.46346561107404965 9.911296789920476 -0.12049346410208281 -0.5419245259303506 0.39117277716435855
Ni 2.649500525483671 7.947490938178138 7.592230062410411 -1.5756766611346606 -0.45207166953226013 -0.6441629004769873
Ni 1.1176536366585 4.010184593483291 2.223345246426108 1.7568720711024903 0.15882167025832003 0.0315021843733393
Ni 7.671240452497141 8.630485897644245 4.450100461246992 -1.7211573913097005 1.8690588151110905 0.865711003230251
Ni 3.1818542357206634 9.28583802879486 12.820621186046209 3.4536919141080906 4.25901207495511 1.9110475008380508
Ni 5.841245915412011 7.230611523285355 7.062987807967224 0.37507355760965083 -0.1889406011308875 4.09768537888675
Ni 1.056641029814555 6.791929008525034 3.1195858172450532 2.6202402851321778 -3.8000873870567586 0.9895175908659667
Ni 5.6456219052781655 3.401321822884934 8.829968112962408 -1.484993852636107 -1.5177756750528184 -1.5256085408336757
Ni 5.8586794256191075 5.754508821418678 1.3248279321646583 -4.828927943892063 -7.823474826560882 1.1618892318945797
Ni 1.5257643436643484 7.87662460817366 9.901640515533625 -0.07226136856857232 0.5698387358421153 0.6332254276288771
Ni 7.1970171584740426 2.890107296522247 13.51205123198611 0.28937457547893386 0.24903370976804204 0.22619537171728785
Ni 8.612968167581077 2.9890001230754386 2.074811365151174 -2.138205236468608 -2.8077762926060545 -1.0705348512502983
Ni 5.872201391399706 8.22863553327315 10.412749299188132 2.5943063388752354 -0.2685339845844988 0.15138938234999091
Ni 0.4101151395803841 4.101273046707058 12.54789202612524 -0.16575027905735326 -0.5671143949324168 0.5747084052295909
Ni 7.882024036724114 5.474066058457607 13.31841668200794 0.06701914633302651 0.28036028779546557 -1.2479306849663798
Ni 1.4452875923057706 5.445871122196746 0.5907161989431757 -0.5217089702144241 1.9492348105410493 -0.3775274184667821
Ni 3.8725412753747643 7.2248377842634675 11.21735024461412 -1.531575557050388 0.45047681424131447 -0.823740058115104
Ni 2.228476107213307 5.220264843300938 6.715068096320521 0.40463610175811604 -0.47319482466412055 0.7801950836446175
P 5.886153814222455 0.48314779143829345 5.5793652087294126 2.0025880293512093 0.24086351525242392 -0.35295075756868244
P 6.72291551535416 5.072758444270094 7.628482967345093 -1.7741195453290284 0.8720384881101756 -0.42538721826253834
P 3.646046009109297 6.0033036340199 2.125815845765119 -0.6402486530242457 0.16048208867987845 -0.8460145532425881
P 1.4868360546350827 4.763091391251715 4.194860958103833 -1.9149722898137533 0.417026762112985 1.0958064813328934
P 0.8535626266420768 2.851936986197638 9.292592461251909 -0.25080931361122616 -0.4833460541655095 -0.015536919293334532
P 0.77418541229334 6.1954278412458255 8.464365974645105 1.527076383628454 0.8873614916204912 -0.5249868696347475
P 8.515815884720057 3.185494405055371 6.130521469722775 -1.3623036379930216 -0.9921460296277492 -0.42444336629203033
P 3.795433318259104 3.509637915556508 7.3850913263990385 -1.9170137457238146 1.252642231509436 0.8345767437192918
