# total energy = -340857.9390078048 ev
CRYSTAL
PRIMVEC
9.42979511213364 0.00000000000000 0.00000000000000
0.00000000000000 9.42979511213364 0.00000000000000
0.00000000000000 0.00000000000000 13.80145832490564
PRIMCOORD
 96 1
Ni 5.910199438949731 6.782672359422937 11.328802920303044 0.25410649630525917 -1.1209022479592567 1.4669470224367251
Ni 2.068557544898938 1.537952411449884 9.006417926184673 2.0699964407028544 -1.2619287990176848 2.2814678759464067
Ni 3.6433615951111764 7.619726969969991 0.12655067750317836 -0.17305452602825033 0.43044303551889096 -0.9181296260412833
Ni 0.24816014243944948 5.0097766061705835 6.9173458623175925 -0.44319879252266253 -0.22077908579772296 -0.35086739267709255
Ni 0.2452378489766927 8.07411107063601 11.863029095022505 -0.9829306816770685 -1.290282153349397 -0.4085254095101933
Ni 4.661392830818697 8.961068156190837 11.494848408100074 -2.9785322524081153 0.7960359073316161 -1.0400893902762476
Ni 6.378643363923494 1.798167603785391 3.621378857065424 1.885300473780934 1.3980900515640116 -1.0841570700194232
Ni 9.275240635373374 5.366543469255257 2.908850347040412 3.3576175022803207 -1.842154020300447 -1.655542067302736
Ni 8.601811827232758 2.8450351525265036 1.722781107857643 0.053617785325456045 1.3485880881791419 -0.23228631510637415
Ni 2.197660867901853 1.2459116610737049 0.6045507567046206 0.15576334304797046 0.7388468597151341 0.6033162987742706
Ni 8.525081585521072 6.496742116190568 9.828308483432407 -1.2534109913546607 0.988848075602768 0.6132798377448857
Ni 1.5841678366224268 0.3392000980257207 11.814958829178376 1.8779252643627853 2.7677287897658656 1.0390282960015849
Ni 4.207008730152679 1.2817448819787576 7.115231052847756 -2.329065423219711 1.7316336082506758 0.8027981657561142
Ni 0.45494705942602576 7.572634573864773 7.650106940440994 0.6442693441478646 0.6168246176733506 1.7604610740053295
Ni 7.4027945365697985 6.943214618872548 7.680455792588579 -0.17300773195071495 0.4396496417188235 0.7541940315951656
Ni 7.759787714733872 8.095243241175016 1.003202883109311 0.8193830666979888 1.6029810053765683 1.5338281005299907
Ni 1.454272410841611 2.5970221148886643 7.110883917364274 0.3275395165844295 1.2229377624664681 -1.2022128712142905
Ni 1.7822595396625427 9.376214879965822 2.5526766180596665 2.1939457245640215 -1.0855678343240207 0.6724278088599517
Ni 6.005713832251646 0.9423750476434866 10.113473970292306 1.604591801507114 3.8679431703584677 0.3165524214453065
Ni 0.19774374360553792 1.3331844135674582 3.0112296310841375 -0.01665303517564874 0.38065079458711215 1.1933363946602673
Ni 6.354785982636709 2.348282983037749 7.547438161691536 -0.7543876356632104 0.004694063041559658 0.24896737530648091
Ni 3.0914734144035156 5.8617208629831845 1.433488199737183 2.3356415337753327 -1.4469644086672113 1.8529570244532219
Ni 7.8285309201017235 2.749530189019563 13.18754186913094 0.7967894976681891 1.4551901390111133 0.30219615272363437
Ni 4.783885867544126 0.3919588579314257 4.089206073447821 -1.853775406589459 -0.6918946593353117 0.10986503785395918
P 8.95953109960991 4.764752813539824 12.978780353076594 -0.8880685449898447 0.6363824852006201 -0.060070225819019135
P 5.549952981519277 6.433939681656975 3.760924735023669 -1.8424828643947753 0.5558089972219266 -1.1882150142733021
P 4.148855184541769 2.0558650408625696 10.236114111819344 -0.9758719750580742 -0.2143256168628954 0.9374931181695595
P 0.9147136870637811 9.925707892749829 7.690918150113356 -0.7645602053208381 -1.6811641387462142 0.6505279234630666
P 3.1027797385785574 1.6806346392168185 2.843886603498547 -1.4594519996112607 -2.157230114310543 0.13803841496438163
P 3.118923547575781 4.446450084158231 13.118576120601679 -0.7019903530084168 1.6521518106742643 0.6898084662302443
P 8.883677828830898 6.828303137307029 6.013736701816388 -0.9010497877408611 -1.8621086090455028 -1.674723525327193
P 4.078574922592991 0.30487470133717276 0.140262542376346 1.0648833093914758 0.745145291129336 -0.6202899505141318
Ni 4.163999435271641 -0.022044031713089877 9.20519989021696 -1.4395709444166176 0.11547827027567853 -0.8729594572625481
Ni 1.1296328592368092 8.514746530228457 0.4379253365166282 -0.6278883316866799 -1.379793824357985 -0.34099255676554174
Ni 5.0979734785718875 5.433928784146706 13.241187972743793 0.4443197935009832 0.4721003060483612 -0.02401744596051993
Ni 4.1042711138999035 7.057843206588816 9.95453666194744 -1.2259266698914628 -0.14074887191700922 -0.7214168371641447
Ni 1.8097662516046582 2.571259915016927 4.685125738811811 0.2047559708965893 -1.6894160943423613 -1.6201678015685002
Ni 2.4650615640083204 5.255931974198345 7.708058688439438 -0.3567454487244243 1.085734184698556 1.8060683303214828
Ni 2.847816942044133 7.909193386317992 7.669511572540578 0.43790309134136196 0.7528812263210131 -0.0522018788145359
Ni 5.8289523254450115 1.6740997912991338 12.794517444367337 -1.124583553465586 -0.795191814163766 0.21394020849901865
Ni 7.723162391050918 6.204012990781212 3.9182061713709198 -0.49587915363551366 0.5479154534064627 0.6650687973917191
Ni 3.782799973406706 6.446952798722495 6.058039764567998 0.9235592816972868 0.4566068383984523 -0.6980835617548429
Ni 4.039148949802458 3.402373754729722 2.9778575866675636 1.8533789424819886 0.893695404258319 1.561589329803659
Ni 6.794704777811055 8.352629495018018 3.3438307585863436 -0.2350530792182339 0.49591000687344916 0.6893212421811806
Ni 4.499539829867558 3.380374043053015 0.5307277207837295 0.5218236414154175 -0.764536036951122 1.248152828279515
Ni 6.368298878835904 6.813404061246507 5.569578270821275 -0.9794131554421132 0.8803920022811935 1.7848958100089258
Ni 5.452316884347983 9.147372615512186 6.398963629115151 1.081375393509228 -1.9062670487302722 -0.06891790601763614
Ni 3.069228528057458 5.449610533190155 3.814984806635926 1.3094952359427383 0.5090624850950071 -1.0786186566996971
Ni 7.909353692832568 8.634203172971933 5.778076695595817 -0.517591605611941 0.3794729722289271 0.9692380146813242
Ni 3.092689857955292 2.436941915392829 12.672153595833064 1.1832494427379106 -1.888969952212721 -2.223173768191203
Ni 7.418976064746921 5.121331080724997 1.0600192837927644 2.0282167856629068 -0.6376250993584696 -1.772187104193006
Ni 1.965480456027062 5.483105164941404 11.629770857582068 -2.1430350537570835 1.8727452628237427 -0.8051401836257294
Ni 9.397017007680702 8.097336655659468 3.2528238072824855 -2.3638761031409934 0.6240424755780285 0.7811628468745256
Ni 9.24977075914586 2.600633726364095 9.006348145701859 -1.5711384069446748 -0.45803431487359825 -1.150432910428522
Ni 5.958140516602701 0.4295083015219308 1.6460999010798252 -0.8872661036932074 0.648958779203734 -0.7868344433380062
Ni 3.605906449470421 4.260711412535383 10.904186796414152 3.2685125797918486 -1.3154661088141926 0.13535726858779268
P 6.731364844963887 3.065437750477502 9.786461882271789 -0.024378685954680596 -0.12388243517897375 1.7483956582003632
P 9.431209444260103 0.9489391279255938 0.7787869644169464 -0.3351178431523196 0.42500926609782935 -0.5261834610460099
P 6.129112129294677 6.850755479142537 0.7706688539229569 -0.8167998793518448 -0.7565432485536325 0.12722332662674862
P 5.157098293065225 6.64527081684201 7.814578595456693 -0.2848476341428578 0.24139804759965525 0.11968999436418097
P 1.0584944859453047 5.987240863895594 9.466254334305244 1.1818204236008678 -0.6132335578879826 -0.7639565102985681
P 8.127049939625737 0.6712552403988734 4.350702774920433 -0.26464082017767976 1.1563320495217762 -1.3893161620261234
P 1.3230851031492181 4.565520105307731 4.638449196664991 -2.2633022607809727 -0.3646377069883075 -0.29107098934475034
P 7.502656065355195 8.39228178288795 11.745703585943382 0.05779891328633916 1.0390421799586558 -1.3554555047229366
Ni 1.8657603741662905 3.6952726164486274 9.634797774791155 0.11277475530158641 1.5510735178739996 -0.6824975343911278
Ni 0.9648849112283422 3.2750998119519603 13.340131039498623 -0.1796488914163164 -0.5564517730122481 -0.05266930536925768
Ni 8.658701780317019 0.025073824838561826 9.33254644241603 0.20676245980365682 -0.6203051200227833 0.031289297031584826
Ni 3.116518949857152 4.162915008849515 5.792707022499551 1.2541650959118658 -0.6105243864869356 -0.1595228100904027
Ni 6.330664567090624 8.297766947853388 9.786020567866958 1.3152599063406576 -1.4421255925176713 -2.0330669146663567
Ni 5.045930440104787 2.6132507920406636 5.319744339773761 -0.8286585784626438 -0.35025855544850004 0.7211129327704806
Ni 2.041116841521648 3.4921454028918544 1.8906616337568094 -1.1505915474935733 0.08206472781223931 -0.21274695952186587
Ni 9.28610375918459 4.3330096506088145 10.73854207490356 -0.5145487050205589 0.1361010887323527 0.8598717708406546
Ni 8.706803164484564 1.0037922452952495 11.949495600045895 -0.9456843957311002 -1.1806287172856118 0.04832414102668452
Ni 3.6591753612842743 7.826871276186121 3.0373011282310562 0.47241500907530254 -0.7324466126157451 -0.46757670714639477
Ni 6.122096361833266 4.767044253718752 6.697350631509514 -1.6425317710859968 -0.5242502485790391 0.12762261894769633
Ni 7.376607995924185 4.589019154385466 8.534987585142323 4.111655467913597 0.5511154484009992 0.9429258591493568
Ni 8.745323876957494 1.428217887325648 6.363148324820552 -1.2741775344780506 0.7652479754164822 0.8688804020971682
Ni 1.4439939343188457 5.885578244269969 13.919460866563073 -2.953340069413204 0.11336430925646926 -1.1175911813081527
Ni 5.500521996260254 5.047316619966113 9.398075030676898 -2.2235028693958485 0.47603229411291564 1.0471735508165383
Ni 1.215887193873261 0.4042260782144212 5.6157031699620585 1.2915882737553304 -1.815031710162358 -1.464309070593246
Ni 8.476961341763575 3.2117315897198675 4.283640901996627 0.3672872287960126 0.018713774359419386 0.5389037368261558
Ni 5.806443404839654 8.492907125066324 13.165431828853023 2.392558301567034 -0.5923047781551154 2.5158195582222413
Ni 5.62729615990434 4.902805011974026 2.3012415078253947 -1.291749224813227 0.6953419944539637 -0.8228656259299506
Ni 1.347904323523455 6.67902948285256 4.849707722428718 -0.23915193187795586 1.3202918123376102 0.810823864274068
Ni 7.032693943390455 4.764931979644349 11.644635043401184 0.10256259065527498 -0.9025731663639229 -0.37882582556323147
Ni 1.6526941567058524 8.611779120521348 9.852654328098899 -0.31188844031073387 -0.5094005851607162 -2.9140818952435295
Ni 6.218525445247759 4.334452409239991 4.464412900606135 0.4947776930412189 -0.042871602552545525 -0.5385625514366531
Ni 8.128964188005664 6.773440590142399 13.005058362733468 -0.6753542384781273 -1.7276581685426957 -0.02209966011251678
P 2.3919900827469385 7.690129819253444 11.536114133890232 1.9348785418193772 -0.7440448589763057 1.5737506477565413
P 7.17268867958951 0.361519479752081 7.779357368245519 -0.6732117382138276 -1.3273209512702495 -0.16659642910773242
P 0.7068027385161831 2.244724974622147 10.940499050903934 0.9918004733628726 -0.055601134304071986 0.49476483752541245
P 8.129643133243865 3.3730376625624543 7.054325893063137 1.4881072014541081 0.9203209772656473 -2.3869687232943986
P 6.533292001513721 2.8359542599655656 1.1579033845719007 -0.8594930473449972 -0.5321767025149673 0.15890574533169405
P 1.4259264471467192 6.956708655481792 2.426683241439512 1.6544411209290735 -0.5612070283090465 -1.4580453490717211
P 3.0845236555069304 8.373016711754 5.053845810006813 0.18875111082790072 0.8906134228988856 1.0613177035274044
P 3.6376188499713926 3.4186401510616213 7.7670467709056386 -0.10528616023402512 -0.9608032536504097 0.23518112015566595
