# total energy = -381164.25916123646 ev
CRYSTAL
PRIMVEC
9.35800821853550 0.00000000000000 0.00000000000000

0.00000000000000 9.35800821853550 0.00000000000000

0.00000000000000 0.00000000000000 13.69639094980144

PRIMCOORD
 96 1
Ni 3.306886212151886 3.597751828695515 0.6591884042697198 -1.7519136986559505 0.7488705624997232 -0.3084989550132106
Ni 7.810540042311463 3.516075131533402 10.166707815054847 -0.7498753496151537 -1.6597486491849158 0.2787464063411264
Ni 8.112073788411099 1.191845305598518 11.32744990819258 0.65731640713981 0.5841867770336713 -0.9877625558480732
Ni 2.8956766078098184 1.7190661398579454 12.922134079635056 -1.9999068829746205 0.04146109535826408 0.7965570699424088
Ni 4.762318539859161 5.299112616693845 7.243705822768244 0.22324374528813162 -0.22949666817637895 0.8000090330467513
Ni 6.675020589166974 4.685957191458287 5.339154598761555 -1.902264355328782 -1.6214404976333363 -1.6222995031995224
Ni 7.881848066185811 1.5816812187950466 3.405566410544929 0.2797185404464086 -1.3929000227226398 -0.22340186813255075
Ni 3.139340430072318 8.519427893299591 5.820706480512899 -1.4631744427681705 -0.9704919416930835 -0.6634245769200767
Ni 1.7564607413542563 6.8982278051054156 12.420996822140062 0.24569590364406071 -0.5968278628364495 1.1955079483902895
Ni 6.459355927984795 8.438396898715869 4.050173166153099 0.03490246830413989 0.5153398334632867 -0.7586410116229256
Ni 8.745040117392326 6.470295439783891 2.5871664664610603 1.1409283133721964 2.2505724719191305 -1.9511911629364718
Ni 4.1703590036098745 3.798593404599876 4.991335207401434 0.00709418784262004 1.3483263498773232 0.7719395285040448
Ni 3.102348222936452 5.195191933606624 2.2502351178539324 1.2359179767762198 0.9685322468635514 3.1949592318847295
Ni 7.607265384227663 6.623308234845498 4.876380496630455 1.4392014768923407 1.3028088250614982 0.8743144286285459
Ni 9.151879531819784 8.182577023564553 0.8138631816200519 -1.6676403932281667 -0.43537415427192117 -0.7856651056202534
Ni 3.706398306015878 0.5245659672813233 11.29709814380491 0.21662212620655596 -0.5129865027397618 -0.42458014898021074
Ni 1.5017731852172187 7.107210848302517 7.591402624218555 -0.42212988766750525 1.4699829810495717 0.8762769516715554
Ni 8.53212671067459 6.4723074115861206 12.962346377455326 1.6228340355467534 2.1669751095124488 -0.2105988028306115
Ni 0.787020670375803 2.7739195607456284 7.19376961843776 -0.15205504095844782 -0.3073118766836449 1.5825607898490035
Ni 2.4632617564730954 8.41421580505559 9.879001462141135 0.7216590350819377 0.9742259548142189 -0.9728714976688536
Ni 9.333930226892166 4.737706977813291 9.067476846815861 1.1192621412526724 0.8513603909355338 -1.2014258565366212
Ni 7.736958022400179 8.265133373514617 10.644547374880869 0.11545281635438182 0.17300053286186334 -2.698398221690843
Ni -0.04109943701492711 9.105959784687052 8.731312854896094 -0.08419642944326146 -1.9466176846331764 -0.044858551075587255
Ni 3.0623240210846703 1.8286297019997897 5.8668629852577086 -1.073519644910235 -0.2422287710310667 -0.49028906114224596
P 9.02923347395926 1.7900934234808183 9.027866268934583 0.07630571384127503 1.1477342805504362 0.27771539397345074
Ni 2.496267452038033 3.093364534889291 3.258522153229655 -0.5797703931335305 -0.9041366541963008 0.11649719845849614
P 2.969118257595366 6.7699763002237985 3.974706443353587 0.14619806795703855 0.16311772653051262 -0.1590600115213712
Ni 6.956603061395202 2.8603033361241184 12.95796402212982 0.22147354076158632 -0.37843527499303214 -0.5671280217791717
P 6.3212504402764464 8.915786338338695 6.061132431875067 -0.024092265062513347 0.7466591566707013 1.1117424358368595
P 6.248145678792668 3.8925571667681598 8.632945213983026 -0.15985062574346662 -0.1956133851653728 -0.48586264993977607
P 6.717131626888045 3.280515344530113 3.6702904306721553 -0.5758312059801244 0.6562576268579924 0.15732965909382585
Ni 4.12325078941257 7.58800660297656 12.599022637807145 -0.815950386867356 -0.5243284101151422 -0.9931004231212187
Ni 9.21287503045666 8.508965639928002 3.8751203897491213 -0.8045557718771692 0.5494102927844344 0.8165494539039356
Ni 2.2975875760700193 4.594435869477825 11.378359345394841 1.055202334658286 -0.02465456532388657 0.022561173129967593
Ni 1.1572487486085625 4.664826808530691 13.515777121592349 -0.14958472504108433 0.8226668796555832 0.819805241837072
Ni 3.8037964572605243 7.798936111917214 1.2095609512673537 0.20226174371982586 0.20192801452949094 -0.553074371899583
Ni 8.995816026025496 4.766847815916273 3.9122230213838995 0.8233963016224399 -1.7316827163210562 3.0747555311089236
Ni 4.740355294185528 4.4025966976373905 10.130138589897868 -1.0655829065616618 -1.551482323276644 -1.8743259770473009
Ni 1.4091476182476272 0.9330430331757125 10.471973534897405 -1.2074568932220495 1.1792079256786852 0.6577712352890414
Ni 7.409717827273927 4.9959786511608115 0.2508470294968761 -1.1059337995748824 -0.49558347677196596 1.785883370733176
Ni 0.7018253620618851 0.45764310613499715 2.2238006157751586 0.8338722614530993 1.2415718326278875 -0.3147325946277483
Ni 1.4870343220148436 9.089527121967452 13.41731309319294 1.5346670514915182 0.5621657926778898 -0.06007665357692234
Ni 6.745467676270135 0.9899837067804683 8.514772284129318 0.5201922764595814 0.43501317138807666 0.23740075351480408
Ni 1.651024060909077 7.076441716740987 1.6627421590055937 -0.4405238167936607 -0.2871037771668862 0.31650511314713875
Ni 0.5888077590260745 1.9533251636960725 4.752154806954971 -0.7499828217272955 -0.5177227318731664 -0.08218145589576169
Ni 5.203717079243046 5.378767984045346 1.033059555165771 0.33505973622087454 -0.04753378391490523 -0.24084526041997875
Ni 6.22818504691288 7.761242054152664 0.9570856283119294 1.0789585565376192 -0.27151312181748083 0.4287412223364358
Ni 1.5469817237128842 6.491968587197669 10.156065887922312 -0.8789138750737702 -0.8746910952416742 -1.256019118401469
Ni 7.217934803483787 5.649551314600217 7.139983529458731 0.010621227159272032 0.4427799598176891 2.5146538200489146
Ni 4.975288094627192 6.930569082075198 3.0191910888482347 -0.1695873934152563 -0.6694646124665696 -1.2483991399623662
Ni 5.372760142663807 0.6639703465531569 2.6123675830350255 1.1435796349521143 0.6088115175608869 -1.0129753076682748
Ni 2.2883792958216786 2.8838293691976236 9.777114274275425 -1.3851815710324595 1.4390389831725474 0.1936133240162085
Ni 4.815818273781686 3.3147562972015345 2.6087928238329257 0.37645064046283555 0.5495231642132149 1.6513100314992593
Ni 6.327052405473573 7.731605241605411 7.960110026089164 -0.08104631385005397 0.3635056502663933 -0.5124776814241432
Ni 3.531057302953721 8.840145556583268 3.3318524427154514 -0.6093259953034603 -0.2841367241187623 0.935000690765009
Ni 0.06009806563299788 5.334757270622636 6.869822506461295 1.2458414065375187 -0.11121820944774395 -1.5955651725284714
P 3.274619799249163 3.3963955623301176 7.3330748028207395 -0.21165141246484195 0.25752297818597586 -0.13816439901928462
Ni 8.178543721951712 0.710486198819852 6.578801546978518 -0.28070173029528434 0.2814432364469992 -0.4077939306608073
P 8.563373100663625 2.0869668814059867 0.6110480017478296 -0.46838429064935466 -0.6109743295401607 -0.9759082276126482
Ni 1.1849858854541746 2.6348314821571215 1.1982892301706802 -0.08309059797359239 -0.07395469711059521 -0.374278058291549
P 7.266764891223465 4.8171939010139075 11.82645073237386 -1.5085526137926535 0.493700143706324 0.2212912495474511
P 3.9783794616437023 7.48918603445778 8.111482362281325 -0.8823912920994094 0.4255031750151123 -1.7019764475058752
P 1.0396747312913321 4.888005950443985 2.238031339122366 -1.5306802989296282 -0.8940998387855892 -0.3053154150789064
Ni 6.285867810582365 2.7431878612176286 6.800614419667973 -0.2493080464753513 0.30135668754147454 1.6136431130761049
Ni 4.908247322575246 6.7891508593994585 5.250429449685773 1.1324385307336304 0.20476162732354414 1.3206818486871772
Ni 0.3482872917792433 8.503238538797936 11.384029362673774 1.3987464542010877 -0.5390204649096781 0.7749392345623171
Ni 8.324528652718092 3.721829661838555 2.0285448350742876 -0.010933359083052138 -0.6489636642997404 -0.8745188313298681
Ni 6.8642395186603204 5.50932155898905 3.005139103461132 -2.375933805636476 -1.5203370080220913 -0.689821835966683
Ni 4.298367200273548 3.2743390589976893 12.246819955320682 0.852958588660589 -0.6290643542726521 -1.1436724517762367
Ni 4.818288787994656 5.4455280158458175 12.029005759613051 0.3129783309408029 0.5801164636190396 1.8221842620467392
Ni 1.6464854268435836 3.9687313550013856 5.405993237832439 0.02582313171069101 0.6903139451117531 -0.17078192794398975
Ni 4.897803785220421 0.11374472028712768 13.508983207506683 -0.5269447646920667 1.2301641050115781 0.28896319897312817
Ni 5.723704173022831 1.7773665320806724 10.795933748085606 0.3402693054462721 0.8867405702070406 0.18574960499741558
Ni 5.390315766389303 1.8120753851712177 5.01612550740741 0.41947702342569043 -1.5444979215390109 -1.545239941911358
Ni 4.451492291435745 0.4053327750778826 6.99984173912636 2.4577694481570447 0.11695151238709536 1.8400549716795729
Ni 0.7845520277645099 8.906278601822116 6.066802449154 0.23828469878165415 0.2600642565505908 -0.06269789324985331
Ni 2.0231920542795208 0.7772256430018819 8.060860215936408 0.5818393598474172 0.10899677631639293 -0.27174426399168033
Ni 0.8866151461878126 6.699491781087108 4.7200091123603825 0.12488105164681718 -0.44149158002356864 0.6727204003997059
Ni 9.317460132139034 5.198776050817107 11.261816580601357 0.31430707705455546 -0.08566375801740729 0.9271043187360678
Ni 4.124504762535819 2.132512308203421 9.00191183268583 1.8590212283694305 -0.6463825338361255 -1.2243744949129947
Ni 4.201886133850382 6.839113266153414 10.04582387017274 0.3431178306386607 -1.3575607239913976 1.3212888861435568
Ni 8.322030064479975 3.0152438809125126 5.729871100546872 -0.8633198772902551 1.2743037756432698 0.21991879467995676
Ni 2.5024156635453094 5.101031653262309 8.386998973476043 -0.007084417650607154 -0.49190834191322386 0.4611399503821154
Ni 5.019233301991225 9.09157652580321 9.534811106431732 -0.30345367927981937 -0.1963322656092683 -0.2199650745368599
Ni 6.486550300344224 7.126048519176409 12.018679197363006 -1.0329334959577565 -1.6856126614358713 1.604761751426075
Ni 3.2874683447582806 0.9350203803469264 1.4278898374360185 -1.3600917179433674 0.3051372376298293 0.538586205585737
Ni 6.597339761584172 5.849915632077073 9.63810948196152 0.47342776661053304 0.09200281286155769 0.7395076332275844
Ni 0.545493281427019 2.8956859658182004 11.910929217245684 -0.018263317085562097 -0.44891049819545914 0.17778149919027447
P 7.7638435804829875 8.871176712379507 2.2793806349611048 -0.8097236892313538 0.28748378621412424 -0.3073828391308964
Ni 5.005879424029454 2.389988550838432 0.6675731797804041 2.7577107434082313 -2.208914944279344 -1.5387288802657177
P 2.09264719249414 0.8921288847267582 4.053227620089134 1.5246837150265613 -1.4847696524404428 -1.1091548776153413
Ni 2.7636444675416865 5.979430468090322 5.998375756060613 0.3725921859486938 -0.6612378536814032 0.11973370311792284
P 6.071213814305493 9.139180714444786 11.553741523693882 -1.8943114190302923 1.438066077736317 0.13093959913607128
P 8.385542867371733 6.979539539940613 9.031688079557979 1.0611840061630178 -0.7320210950425522 -1.3334651164947746
P 3.2114719586843212 5.747492230331045 0.25804427374382627 -0.5103644917358823 1.8125606229140458 -3.13405159776608
Ni 7.16591363488569 0.34760977197235315 13.322383584559585 1.7425250583521992 0.13421852699765915 1.3590691902161238
