# total energy = -340856.06648812536 ev
CRYSTAL
PRIMVEC
9.39398754913264 0.00000000000000 0.00000000000000
0.00000000000000 9.39398754913264 0.00000000000000
0.00000000000000 0.00000000000000 13.74905033696351
PRIMCOORD
 96 1
Ni 5.032312224898543 6.145922493242653 9.705427482656786 -2.4540305499399024 -0.8819310646335391 -0.16286524420007434
Ni 0.32189813909643256 0.12941908933251617 4.601669284533804 1.6884223629705242 1.29969727601571 -1.7776273013719708
Ni 2.275533815275201 4.244786056556633 5.888787444542197 -0.8511721861841277 2.1672044519144356 5.467662217154313
Ni 3.1793951269228042 0.8474569914804222 12.810416590840322 0.18268279314663377 0.3787646333079928 2.2444203362748056
Ni 3.5400115256000464 6.3697718254318785 5.156801349501825 -0.7029174928083766 -0.4156288533241939 0.7414853257792455
Ni 2.0785982577606203 1.7923164835163525 4.730168702473423 -0.39665102667011043 -1.487042764745336 1.2967672468531084
Ni 7.395181943542044 9.440018209616563 5.800436051106765 0.64978256065661 0.3420238262435335 0.676751633046286
Ni 8.403325912314688 7.415980232243498 1.5039398500216672 -2.233208526719386 -1.4823119349285696 -0.43777864994835575
Ni 5.842327599722513 8.460394387410142 1.785410023781344 2.2706430174167602 -1.1714683909425825 -0.5179034804254048
Ni 0.7381889450988947 3.3527987453239505 7.449084644792695 0.7691689077374431 -0.6596411986182446 -0.4486366757087822
Ni 2.3883368192169616 2.989082330715598 12.856943132972464 -0.6813253684598976 0.5491845499268735 -0.8705233370172298
Ni 3.628484101476421 8.839206940204237 11.151800036837722 1.454879806859546 -1.8843797617388771 -0.2775436442822769
Ni 1.9653161604476879 6.817141700241878 7.628495718308828 1.8322483311509605 1.2276781053649308 2.0543800743218363
Ni 2.572346249697576 8.233153825672034 1.1622523364995423 0.16562532344371475 1.2148606418852883 -2.2319340308823366
Ni 0.45500718678573776 8.13978698221957 6.240007037353105 -2.449251897604337 -3.4186295231873185 0.6176486562365426
Ni 3.9501530272737044 9.288577734387955 2.7989076261271406 -1.1315306742073803 0.3757255893713529 0.5661191208986831
Ni 4.0927819420678215 3.5150141244100874 8.48550169825584 -3.090150011287123 2.3949733387664303 3.192423352836754
Ni 0.11541641131156437 3.6720909922407166 13.422428311751629 1.0605240039815154 0.5517973049593723 -0.0025749598160278234
Ni 7.9398077726999 2.5675928919365387 12.350180710517446 -1.0008193890320312 -0.4326297587575646 -1.5242258015535362
Ni 1.418060014742222 5.073316981078238 12.016422661987594 1.0634756304106718 0.8924954704129467 -0.8907147243634402
Ni 5.891739974866888 1.670908586868841 13.387931710229733 -0.17928302343646543 -0.24101829566273328 0.1723166194209613
Ni 8.0104975299169 2.050613568491591 7.234970302025925 0.5255095749074369 -0.4526985044829816 -1.069492526028713
Ni -0.12169253447391368 3.0749527720073733 3.2887458403958285 2.1366985700160943 -0.47775699011350625 0.17248271268518037
Ni -0.07502602192548875 0.2231504195065754 10.340454473359673 0.03594967862173163 0.7303722465852195 1.6744481601786194
P 7.3484562488712974 9.32933824688823 0.1828746367700742 -0.46936053851969484 -0.6942927272538431 2.5074459894465657
P 1.80566533999547 8.5557057863103 12.438188284004152 -0.2689690152393884 -0.011803163282515156 0.3790767652317729
P 4.070245765647412 1.3011518381886562 1.0537752638798317 -1.0657346016481775 -0.7770691364211262 -0.6571446574486359
P 2.0926892392656704 5.702648397056786 3.1479271470257264 -0.24704136192836162 0.879383358511021 -0.43703740090695703
P 4.098747124238293 6.852989157190726 0.9798070049659887 0.7725920744863791 -0.6809327610071692 -0.7649769811432826
P 7.581323809223755 0.20296367940244062 8.131064664667944 -0.19944432887568878 -0.16529750779065083 0.697971975877643
P 3.280493222227704 5.038155285229304 10.794200987000092 0.4151516565774592 -0.027530601320100972 -0.035779985813086765
P 7.954330877637772 5.847588232817731 3.3227332877860087 -0.6373494770995798 0.613684272272156 -0.35733088891424913
Ni 7.544443013631204 5.499616141544354 8.99123266086469 -0.47930967931260676 -0.06502705560366219 0.0830026662454764
Ni 6.284521387326325 4.409011749004156 13.385814305408907 0.3917165654829705 -0.31417800767585896 0.6543300708179762
Ni 7.776436933130349 6.908958535728784 7.028225542586297 1.9467634661824211 -1.0501444605194044 -2.2928275239335996
Ni 2.37098612399041 8.747953743977533 9.37953314120552 -1.148935242837073 0.761328842867734 -1.6591169291381878
Ni 7.657180259659276 0.13030776056610133 11.960079402740268 -1.97523329148734 1.376626996594229 -1.433343732559983
Ni 8.974113997133587 4.787504906217472 1.7631509699972 -0.010095179452472935 1.250418227274924 -0.44104677917666624
Ni 4.119817838582178 7.769494776242195 8.051609377556035 -1.0075880752144324 -1.9412147684500503 0.04159787804644449
Ni 6.978041921054211 7.078952136605709 13.200312170287525 -0.2804227656022848 -0.40659116860195776 -0.04258312477784924
Ni 0.18570316645752127 5.276123780886589 4.692193507317313 1.1487498662991442 0.9124161205962737 -2.0667794764274534
Ni 0.9657676903931237 7.525326248722687 2.438173802604023 0.7484818117017368 -0.4766614430564823 2.553963159171498
Ni 4.167032020611766 3.365208203036065 0.42806335135054796 0.9490198878622366 0.489705420724634 0.738241107810335
Ni 7.073259380077669 2.726727043066905 3.600560473127247 -0.9481115171153544 0.6883606780401242 0.34757535218938207
Ni 8.374758795810116 4.081734612567862 6.192008457353069 -1.0522041712619103 0.7079643112036645 -0.1041592457184335
Ni 3.0681797068972787 2.274528658594507 10.50129081505585 -0.4549281651444488 -0.4887091182496357 -0.10877283323104493
Ni 9.051548637497673 7.921057373310513 12.43473787233295 2.994011321880321 -1.4493717325571231 1.5423659627976727
Ni 1.638330237629165 0.6976651610879046 2.540879209199265 -0.5700320827998441 0.5979717466329056 -0.3231352168691467
Ni 2.523375391973692 8.687090097863386 5.853864355980081 1.9688777815829577 1.1009846830997232 3.4065011153549003
Ni 0.03804095306980026 9.339615269399246 0.8060163542728368 0.9982251459422938 0.23445786883639624 -0.035948135959834863
Ni 2.415804839164139 3.8514128228739835 4.000134678070885 -0.36340871967721283 -0.11166198185338187 -5.565814594557034
Ni 5.5886053867425804 5.894135441722747 7.576826907326111 0.11626991293903846 -1.4844402941254822 -2.6371812838618904
Ni 6.424548167535842 5.553020961448494 11.394484314305362 1.967061554309825 -1.789776020919363 -0.35474101669988584
Ni 5.568474071165699 7.830424180270031 6.0654620494500495 0.25294332923509344 -0.7434445063881454 -0.454832520106849
Ni 0.03556469791997945 8.335661019127437 8.596277479658408 -0.11207053014571022 -0.9690521239227634 -1.357907565807855
Ni 2.1674559871314663 4.979358316402564 0.7448370701729773 0.04580703103178563 0.344676176264716 0.8126917707207424
P 0.5401580486219886 2.8548892168491706 11.197928273892654 0.5522714163823134 -0.6518597549006129 0.09120422821966227
P 2.8059183591252865 1.2332051253713048 7.7472732984087305 0.9095861073466465 -0.29138337837884654 0.9648697104102995
P 0.6535726011610687 6.426511510958879 10.339918076663714 -0.7419620083053481 0.30705656613972926 -0.5862637141673581
P 6.609647300586181 3.55211098171905 9.956718531627713 -0.8499257153715363 1.7240290564305403 0.9335552165677341
P 3.5093965197834076 5.304625139477471 7.466573431637997 -0.5160551143627565 0.24804434927157928 -0.5826793392502094
P 0.06099234374522586 5.823633564259146 13.578974419278902 -0.765959656771526 1.3856957916647166 0.5576661050353234
P 2.689555033856583 8.215126763333238 4.004961308935748 -0.865227121615297 -1.7795684842587416 -2.80943825368951
P 6.14523673214274 3.4535868390357396 1.6122684976361914 0.3763632229553518 0.2778676032805989 -0.07229145047555936
Ni 4.619465254775914 3.8690171557676263 3.1980562834293256 2.224964284432723 3.3095198754421458 -2.07734593908939
Ni 6.214301329492825 5.587947807605678 4.655496833883094 0.7463040873241277 -1.014881523552052 0.9928767371461867
Ni 4.683081339277381 3.5995318314773783 11.49221278623302 1.6402170069098916 0.27057364072234696 0.6837298641363322
Ni 4.436075827481522 6.549901539004768 12.182016119039876 -0.8772969082956374 -0.5193852071772538 0.44095627634538903
Ni 8.175136557821906 2.513577462833847 1.1378232715636205 -1.2755510177868097 -0.9049522081190609 0.17799464364234507
Ni 8.273247365047736 0.6323168252600843 2.678892857851095 -0.6782318171362384 -0.4385934325401672 0.8996361952227862
Ni 5.956023032492927 6.066176931911738 1.6195967474175845 0.9955398858006468 -1.762533897373958 -0.21081914637153368
Ni 1.7951910437433827 4.541410611225607 9.167701537442568 0.11451410659019634 0.7429819649294301 0.8064216214413144
Ni 0.7175456571939962 1.1119381385388436 12.707312879167873 -0.40523388324311493 0.5909436361415306 -1.0687679891578625
Ni 6.824440828661495 1.4674254199482473 10.087251747897895 -0.20862445271306004 -0.9960325091663492 -0.08573266358212978
Ni 8.406106532665019 7.9141058224346885 4.103706210329304 -1.430181018561285 -2.505993059050123 -0.49357698786489834
Ni 5.102767132423793 8.549843938004198 13.394888897498161 -0.8707825042158873 0.7424903700049923 -0.9447246029209924
Ni 5.756767160023848 2.4217324453839306 8.057466528868302 3.2844945570424016 -0.32355662067728147 -0.5747513426523844
Ni 8.532568394679007 3.3131373293810698 9.13383809068963 0.7792340052829289 -1.1942987585735365 -0.39407169597870845
Ni 4.9113176637085125 7.03427433124703 3.4765025325580186 -0.3394270120506348 1.390687074231721 -0.0004435152953218168
Ni 0.9477969919803498 0.8232778066165232 6.82469916332242 -0.6734032853993435 1.7194280673234195 0.9529806722821976
Ni 6.52789142589388 7.7551125811193735 8.540800346074258 -1.1407761040650481 2.0932361279570855 1.6561966701675992
Ni 4.821764779250084 0.543369853006373 5.444060098463776 -0.12719350183007772 0.6409076267644833 -1.3597124802270777
Ni 8.067030547715161 7.620703405536535 10.427541436054717 -0.3103686612320977 -1.4648942536727547 -0.5734521642249866
Ni 3.9109237347636454 2.665506425421297 6.449088081526271 0.5443899567517075 -1.001723388903539 -1.5694715607652132
Ni 4.9743043510360865 0.3131476395817964 7.8250799406845495 0.3188579296500315 0.9581897272869626 -0.327002670244353
Ni 8.731241839912544 4.6507848096678055 10.904481705252449 -0.10586028756994026 1.006788976351905 1.1436138306241594
Ni 1.1531025925089298 1.7566005423948856 9.315339326462347 0.23382923411346182 0.897800427565628 -1.2102442261591997
Ni 5.712878449629452 1.1598568696436837 2.4709926379280516 1.6331127917649424 3.1037717158356157 0.5150133033618033
P 4.060194198840476 2.283546886757739 4.111653523898152 -0.18470599422424963 -3.3278595542915976 2.1506881994269667
P 6.412157497799068 8.846600008500554 3.9803913341847754 -1.0863417363755679 -0.10993137231552035 -0.29267330083486365
P 5.949043299654092 7.5885947556803615 10.839696069286065 -0.2962322218307156 1.9191233358676496 1.4143221971521578
P 9.122858397900895 2.0220746339500293 5.0936521461875595 -1.2625155247590902 0.8976657017599767 2.0711513802429042
P 4.77860879989395 1.2493627841637622 11.420635297181203 1.6680491986308112 0.591142382415898 -0.8994533897880187
P 0.5264973117522259 5.92600924188717 6.677295284595625 -3.1694423185605483 -1.8196995479516727 -1.025884302420459
P 1.093535316693248 2.716525172457249 1.4189984741104582 0.03892907296502973 -0.12156844233381645 -0.21268036794998857
P 6.222812282321875 4.011946678167185 6.550405056743882 0.029936639658432313 -0.019649141689495192 -0.3807857775030797
