# total energy = -340887.7942804756 ev
CRYSTAL
PRIMVEC
9.10736696091478 0.00000000000000 0.00000000000000
0.00000000000000 9.10736696091478 0.00000000000000
0.00000000000000 0.00000000000000 13.32955213406185
PRIMCOORD
 96 1
Ni 6.433708001933028 2.4454008374274467 11.444460072342265 -0.5338391778190548 -1.1433806315674309 -0.7709275422997626
Ni 4.918788612947667 0.8193779489708265 5.949685155216467 -1.3280606576497516 -1.5029041572576245 1.0711652857454455
Ni 3.0399115256214255 1.9775918357764781 4.694188198017262 -0.949598386073526 -0.5431200889003485 0.6453126978107144
Ni 3.4650342992083414 4.551388329966674 4.713836431092871 0.23194898637161346 1.3567027468664765 -0.3866594626750373
Ni 3.811678893314154 3.163270808558823 2.6674165816677347 -1.4254360476771322 0.48405439308644377 -0.1512294597333589
Ni 5.219577615352497 5.01007175011131 2.616937179856209 0.011762796962882969 -0.15991850286692458 -0.05754591673526864
Ni 5.488982631858305 3.250683314844031 0.4032177350250096 -0.33010856286318635 -0.14280935399046374 -0.5344364450834216
Ni 5.78851481764849 8.092651289063241 12.561756381711138 -1.4403926689869644 0.34551024213023723 0.4000130011638079
Ni 2.3763669972897223 5.719790627981042 11.435742500867352 0.45542824470931886 -0.14949499354075543 1.4465679445597408
Ni 0.7631244766253542 0.05078176638838209 -0.0058460187314518675 0.4650953354854377 1.6092521830972608 -0.4825598108187883
Ni 8.373048897263802 0.2429572233976343 6.755483109592392 0.393137099979581 0.006022294934679951 1.262636623717987
Ni 8.54967716845523 2.3476059330212613 1.4203967614606388 1.8520710223038426 1.8918285047074386 -0.03302504877576893
Ni 0.7389608111037961 0.48221139146545344 4.866433093580947 -0.30262295584840787 0.12501294923899117 -0.07363716587017641
Ni 2.049922542685951 6.713832389130406 0.4607189166183538 0.2826560258081777 0.4909418642348964 -0.7758334642418122
Ni 7.622173828947846 3.9451564607361176 3.7227837077183366 0.653185672800888 0.8963176723725143 0.5856088541921787
Ni 7.800149990421645 4.026494353383877 12.367371477522807 0.47468040807071155 1.067491179327968 1.47797782632959
Ni 8.154016726378279 7.577183437090278 8.667474582504486 -0.5580484280754067 1.021839185816808 0.7259725748556272
Ni 7.178481134511216 0.875164213400855 0.48593721521220057 -1.6873378716570941 -0.7290769248125637 -1.7162789801714764
Ni 1.9344866688408777 7.009229830405746 9.380632402067622 0.8981408416241822 -0.7191077294149937 -2.2223723553358306
Ni 0.24225686689280698 4.989252309668719 1.2243606916764023 -0.9647812644615512 -0.5299390714337002 1.3066932477175688
Ni 6.5288162331412405 2.327906698691723 7.0314317691244455 0.8039461633176284 0.4712191889949885 -0.5605670807322023
Ni 3.4686499238171375 4.728954659935698 0.518353976503258 0.15902041653268742 -1.1900284133329568 0.335410434692074
Ni 5.873431905437955 5.82740327376829 4.821765102507136 -0.10441609892424598 1.0848073020089124 -0.23753445087919092
Ni 5.498818587972915 3.66192646146922 9.028625390405994 -0.21967376854868617 -1.239910899985697 0.35301554936834684
P 0.1320030847414496 6.06926761315319 12.74283815525446 1.2251980192555545 0.12431566606165041 -1.351651300485498
P 4.199871294637419 6.444828096762601 12.827574006445147 -0.9645894601657193 1.1461072864699746 -1.1587267750061978
P 1.9946590411086804 8.543256474880415 1.6999710637049397 1.6160195837280815 0.9708639803205213 -1.5086287184462275
P 6.600973900082031 8.226301896453887 6.220155733634691 -1.6017872421787833 0.09177449890083549 0.25190228956508876
P 4.948906674865273 1.2194764108761567 12.628404091754392 -0.19191819570197272 0.339073485365958 0.24868532528968784
P 3.942096385500461 6.965496255162824 8.052315672363246 -0.5344403017381635 -1.3812639811456082 1.250076784775105
P 4.974525697597121 1.2991567627712686 3.672878070013496 -0.42385201256493454 -0.5476688846132955 1.2931296501005212
P 0.21378723836107535 5.866974782396049 3.787418689704804 0.30380463486133485 -0.3171923690221505 -0.2916674852781686
Ni 0.8797816483546579 7.9103673431059125 3.283322295884344 -0.7951622464774112 -0.46272683525326114 0.5121979454001953
Ni 2.170094247252873 6.790079263752177 4.92506905307418 -0.8073757578244676 -0.12570637576158994 0.026968558169043873
Ni 6.051262349043391 5.974259562979478 8.970828219392533 0.4288538366549001 0.8698275965017859 0.9830911185143327
Ni 8.738354485887054 2.7241317975085875 10.20146570824874 0.3668210877928715 -0.09616105800430536 0.21929530216334492
Ni 2.309710179879695 5.490503562109359 7.019955576254057 1.4584081317277784 0.6973276574254248 0.5488400221032613
Ni 0.7658557759205129 0.28301506541105986 9.058643271289098 -0.07026310719162092 -0.23920052572770417 0.27966968948634413
Ni 1.5123875410225265 1.4982073709572976 11.385743057284753 0.2291562541178247 -0.8858214008268809 -0.4086781330379736
Ni 4.349641941215899 7.541719350877047 1.6955722055536837 -0.17781338086947443 -0.16821905231281997 -0.9378137347337719
Ni 5.632205081727149 8.442310421570845 8.431781394844826 -0.5706923420916623 -0.6869884802829459 -1.9767139897979245
Ni 7.001014985576692 1.007976032311728 4.950235439677423 0.31470894047866443 0.21378362831649633 -1.5008866126069635
Ni 1.0828568019175815 7.5338688007189045 7.008705246079634 -0.6262878199687795 1.4942477671342071 -0.3518423549958521
Ni 4.8473959648157905 5.2050149358828115 7.052732989269317 0.43310824105587986 0.537616642583616 -0.4727268838887665
Ni 0.7435017441767076 7.671216999019302 11.181601431072735 0.28173917042086316 -0.2876709625242659 0.9406380915564445
Ni 4.54938470927666 0.6609261603845267 10.331855878334729 0.49426835750496817 -0.10250808326825571 1.024828350352119
Ni 8.153051345500362 7.5361547497788735 5.021535192668216 1.2893521853359602 0.13353589910833774 -1.055520637229653
Ni 7.487129794440963 6.143009961912446 6.785568384989616 -1.2571617166463447 0.3055126186913771 1.3513905906249435
Ni 2.3133440192220376 5.825763947749189 2.7196555267397624 -0.23160214455515593 -0.9952701770790277 -0.6779327978385808
Ni 3.405508549981407 4.936775662323921 9.44659979181295 0.9139132739670905 -0.0007201659954761792 -0.8122415705572011
Ni 1.159176535473535 3.715732784362845 3.9119965383164006 -0.16478894358534846 0.30911833376476444 -0.74974010958887
Ni 1.6045449853963567 1.5304565566997357 2.7289587018981645 -0.23480548198380208 -0.20038201019860974 -0.9425437932195897
Ni 1.5563579078015415 3.6523728337245664 8.26036344818411 -1.6325718316598077 0.23180063371920723 0.07899534485829621
Ni 5.181244708605838 3.062424936283754 4.993690329497097 1.6065435259168461 0.4404258577632157 -0.7479534500020925
Ni 4.206811108118283 7.395537006807045 5.880584831301302 1.5941932318816092 0.7344255907189868 0.4921772793038943
Ni 8.94540136209959 7.460417887696378 1.1368270574131163 -1.1970935477098545 -0.7898734872746461 0.22767195626281436
P 0.23163221281567387 5.893495434438405 8.152260826064484 0.6205249493430732 -1.257958244405711 0.0047699105848175915
P 9.023906863681013 1.9812529972191382 7.9773101318326045 -0.6909839745955841 -0.013030607931713041 0.6656789201718922
P 2.028392727635083 3.6094953509582863 10.553858872261536 -0.06552584961695167 0.06860217454943024 -0.8303267101936862
P 4.108961559511462 6.610609494127639 3.7255559901639725 -0.0951992083116683 -0.016578473183971446 0.061093781987527046
P 7.111359841395777 4.391098674765625 10.236056397988463 0.04710029592191243 0.4394480672309786 0.7370170055952469
P 6.5809832300157645 8.279816783610782 10.260996011159062 0.2646662740989765 -0.9606865255668874 1.1666809968562681
P 2.626810476174587 8.919791446734514 5.769109751265714 0.029748692017342315 -0.286475656664584 -0.2620077534302068
P 7.079984962863528 4.209306526614027 1.567395125593482 0.3420731914242302 0.40530510280068266 -0.3142908791046394
Ni 2.7938122606871794 1.8710629666351903 0.460487589502325 -1.5684333493086857 0.6176638257451944 -1.6893060511270586
Ni 1.764397486992311 1.3603309453840777 6.938378159860174 -0.9534866653843387 2.56622809258178 -0.44941829106981307
Ni 7.232178169003568 1.0788222384372368 9.127544143871939 -0.15349691561129694 -0.17484298538724083 0.2725179089329113
Ni 2.9676445702793615 2.080259181406104 9.116093451628513 0.19557353306637285 0.3857261522274905 1.6831477448351466
Ni 6.385074663366346 2.274838072506695 2.460089198558597 1.1647747809724907 0.20978170624595485 0.757581974230792
Ni 4.254533710007686 7.2895454723053525 10.515669861909887 0.19662408581807428 -0.33466070101024303 0.19919570319999244
Ni 7.466273924531281 6.341841993295928 11.689470096210485 -1.1850844390641202 -0.9396739278709623 -1.355796175891807
Ni 8.006869001430362 3.901131449756466 8.13689123389873 -0.038191166357740676 1.5038878613271325 -0.16215047752123687
Ni 3.336110415172771 8.777680095611947 12.682282362845523 -0.2806371956059361 -0.32405001537393224 -0.3058396630134926
Ni 0.2200093913402433 5.142775191357586 10.415218338616079 -0.1514045518586425 0.13005462542795665 -0.6918018425111891
Ni 8.79664163323289 2.683030251263 5.813670275411605 -0.009698715345002652 0.34550921368897264 0.14113685138404725
Ni 3.9334534944330866 2.9838921126020135 11.453031015212133 -0.33518109229008725 -0.4440873657752029 0.21941691534287372
Ni 1.1473278513021394 3.5069737231970253 12.504812570964289 -0.37731504534565985 1.0412672126344327 1.3466255651361325
Ni 3.1817496557408074 9.194888567473312 8.047823919070906 1.7238850746535086 -2.801328994318814 0.18800471958017945
Ni 5.894442600582774 8.207695546137083 3.620466084972785 -1.7048933640423543 0.6636773163608312 0.7723727593867215
Ni 3.3097172662652348 8.818162340916984 3.576905549698546 0.020523573874648524 -0.02809701534653226 0.27317431156998756
Ni 4.084936325964851 3.068545086755067 7.150025167029645 -1.4542951380006695 -0.8242555642989418 -0.3961931131970854
Ni 5.386816191401182 4.8181704248419175 11.75386555445083 -0.05330205385725014 0.4226286816807947 -0.894257447409376
Ni 7.908855520221629 -0.02915177030301337 2.6607918830772093 1.261153868524873 1.4174969953357135 1.2614639435661241
Ni 4.510259461620768 1.2797762862787783 1.5851235257533887 1.1230537470846207 -3.0503346790623986 -0.5743286532926689
Ni 6.034313539479235 5.928531474413315 0.5369967562871526 1.0698879616949186 0.3563145318345928 0.1635347594632732
Ni 7.924775197340461 8.499814335374221 11.877017189425807 0.6278747048399251 2.9469092261861953 0.6555410604069419
Ni 0.2436530262190752 5.113795550286579 5.85312612048135 0.20116465400090516 -0.3003871245393536 -0.13371947587405358
Ni 7.336147868081702 6.5748995090115425 2.968064419887587 1.10564506468987 -1.70608841279172 -1.3223798052148903
P 8.606625532885465 1.9303792464263512 3.6638135078645417 0.4511327026577585 -0.08240514187079356 -0.24533749186337747
P 1.7784410465559484 3.5144781934178013 1.4472962799607418 0.7682178566780834 -0.5311670303035304 0.9035324449533987
P 5.084396970344023 1.461741474399059 8.350177567087302 -0.8561688680677707 0.8119608060919886 0.010477759602872278
P 8.504003724089703 1.9234030034783962 12.321851036919066 0.934552547483997 -1.109188044846122 0.36481254200327495
P 6.755489484749132 7.997971104093349 1.323240283465226 -1.3392056185229773 -1.0865525668347933 -0.7073976400669172
P 2.0705234063259947 3.5782206534605363 5.9865818302230585 -0.5901923597978029 -0.7768472502183073 0.3175543803472596
P 6.796745856229857 4.318458317385877 5.864696119229499 1.0625873142684474 -1.9683049397986234 1.3825096806272512
P 2.456265925987381 8.854300372271403 10.403075486497922 0.7812916591429061 0.5308476992908987 0.394652765293159
