# total energy = -381178.8132567013 ev
CRYSTAL
PRIMVEC
9.04618302801767 0.00000000000000 0.00000000000000

0.00000000000000 9.04618302801767 0.00000000000000

0.00000000000000 0.00000000000000 13.24000326370891

PRIMCOORD
 96 1
Ni 6.000839620746818 1.0002454755901757 7.21551038512071 0.3634015205883612 -1.5469486970723487 0.49102388242574146
Ni 7.73701015743088 8.224852702109205 6.064636015529398 -0.3766244470365384 -0.9093179412869242 -0.6406620864125805
Ni 2.779973382334801 8.244709073299846 6.611885747107979 -0.7289090317761319 0.19581701653574662 -0.5622197858442769
Ni 4.515438316762428 6.412070043505533 2.9809732312624653 0.8331220135506362 -0.42964830753173744 -0.19405838197342706
Ni 8.876910602698107 4.435831908344367 7.340548532670271 -0.04120552770403226 2.2858258958047855 -0.8954270422374451
Ni 7.644341061086036 5.504936927216166 3.8773350577219023 -1.8301708797966414 -0.2957599101799874 0.7537983388186438
Ni 5.830074828507302 6.308572666379279 12.748759150567105 -2.5333053737118307 2.6441942248446137 0.32856821495926
Ni 3.8525249968437913 5.597515561733262 0.877625372696313 -0.6635755006756443 0.9041528521462171 -0.893087595470991
Ni 3.739167280493026 1.7432989287105871 3.976926293126008 2.33608864861508 1.0946921652227921 1.8779476329602884
Ni 3.7838463772176634 3.947898901838295 2.518566743310267 -0.2169003195686071 -0.29638623091007665 -0.2977121488103518
Ni 5.8753057423812 7.233888610045953 4.811496358905757 -0.21569087264153822 1.1189577226383762 -0.6135238354348918
Ni 3.00019365580404 4.432005373030635 9.714798808319644 -0.06094980021049503 -0.9146403819411021 0.07078247003020066
Ni 0.4752050273419569 4.1163569174702435 4.4387511115257885 0.5890461620085017 0.9658140766014398 -0.6332799350158964
Ni 3.3558986086911564 7.189526129718432 12.073611773063854 0.6230374313522818 -0.4581101624168562 2.750820444046301
Ni 3.4891760195119867 2.2707818463079965 11.361709754946675 0.8347420656525623 0.5123074743948661 1.0722688032222694
Ni 1.6977604446223458 6.060508242329266 11.201955976380617 -0.06628021128447295 0.6818627290206063 -3.922691469743941
Ni 0.8452092813411671 2.504734225229351 6.103244218993881 1.2526406888475394 1.2217614827701797 -0.3564158332991475
Ni 1.8839670708584129 2.6897467553391476 2.9674021478637407 -1.4311405542610771 0.7800469881025276 -0.4667457266046671
Ni 5.245619051794329 4.958212778856801 8.84414985177924 0.4703522130090029 0.8223022972273129 -0.30572164937838964
Ni 7.051635165682464 2.749288730362748 0.7896114420073707 0.16737830157907949 -0.93824156629981 -0.3280002582709319
Ni 0.7288111429597983 3.997978569679476 10.559418278543895 -0.019912422653210866 -0.9463523683324024 -0.4893850612707378
Ni 7.935754792992792 2.5853718984837384 11.20907894069748 -0.1467580542255666 -1.1611348702270583 -0.45793404185030817
Ni 8.758224684692996 3.8004008916955105 2.1441253366600272 0.0531902108697342 0.5748901822230938 1.8711195542948613
Ni 0.6719576934568622 8.196239625992575 11.78607885356748 -0.42635960947813667 -1.0230170081749932 0.48707158264621275
P 6.403295246213997 2.6222712780220654 2.91208564481424 1.0502994980400298 -0.48302312360845195 0.3587614507131886
Ni 2.4446223406909393 6.098511256166116 8.14810941053936 0.8966195198836493 -0.5165230551381105 0.36437828267933375
P 6.718220007152406 6.8799476627999185 2.030645496841802 -0.7448223605722785 0.7917478214792235 0.25473076015281937
Ni 4.364710819369048 2.5491871673846194 8.88180458757926 0.5858579940885071 -0.6182567221341868 -1.780043109902315
P 8.51053115413675 5.944463809694392 5.799584669464906 -0.15835810035834016 0.7123860944204441 -0.11345301231553365
P 4.371947765588872 5.0521031098762395 11.292702758885824 0.2993607401573683 0.6847719322476014 1.2603627400821455
P 0.8795874897401629 0.11141369167246531 2.889140906824289 -1.9195105440037392 -1.7818464816596409 -1.2674800678532172
Ni 1.182489873770889 6.461435062907507 13.254566509617865 0.6783786271267478 -1.0122068049333666 2.0675814035034583
Ni 8.121255816972425 8.999359732737526 8.130460307945764 -0.660213526181947 0.459751297564705 1.3796508710222175
Ni 9.036865206521762 3.683099039654941 -0.0013487858517196658 1.3447095790603423 0.8007099157685177 -2.4053125159089097
Ni 2.7313230113720355 0.035994761260848766 10.96809767776012 0.5312547049213303 -0.6866686350496819 -0.8570186176625758
Ni 8.796535268744188 2.645773260870943 8.475878846399679 -0.1950562271103221 -2.690225198961748 2.397418714983129
Ni 6.7228426065503175 6.492843409501543 10.407701128754955 0.06094748621764988 -0.010781406886220141 1.0865016589921999
Ni 4.036678139589983 6.796369980143728 9.967802448164685 0.21430273404475994 0.18724393015475496 -1.5378423638957062
Ni 4.6866011410440365 3.64142327561153 0.06035884532816316 0.027580737831746048 -0.28153990992586353 -0.8886555278415663
Ni 0.08377941253206803 6.2232762089958795 2.4607869646911937 1.1127744766457996 -0.3506920434414928 -0.9039577054162755
Ni 5.425068179497636 2.748375065902495 6.030013560195484 -1.7049666404824508 0.879509342565924 -2.9340161722736116
Ni 5.473410980246059 4.243745263304692 3.9462090748959655 0.6057220800022859 0.0007674742936438395 1.5568029641586092
Ni 5.954088948166757 1.7595187344257674 12.25849494275997 -0.43940744380103036 -1.1883659380288694 0.1397962781957528
Ni 2.888690406922105 0.5802963418731286 2.301416744274788 -0.7134800988155712 -0.18072669786152745 -1.8783937193587714
Ni 2.116381598708055 9.063551445707361 0.12333384671479264 0.8345397198337693 -0.7492138047717549 0.2651959213502013
Ni 7.984287563579485 7.971270106566577 3.6337846788765065 -0.6856365942407417 0.45476258610086195 -1.33271229748915
Ni 0.13984765337015315 6.71518048974008 9.514147237428809 -0.48181881888770567 0.38930255672483927 1.5151572635933648
Ni 6.601750403927116 4.422913959341981 12.384434090113901 2.639603520150138 -2.0127695978699016 -1.5688730079492659
Ni 6.569120822658486 0.8143192810201267 4.489247808392887 -0.17150312238073043 0.7433041241555393 1.3177425635531952
Ni 2.8178407034300292 3.7019422383748073 5.040019218925688 0.44458358868533104 -0.3859426391136708 -1.2574388815671311
Ni 3.8348578018846466 0.17608213847453358 8.689559634341029 0.06989826765303446 -0.19413422951668502 -0.2856271926213597
Ni 1.6623265466935333 5.4908701130013835 6.0023023885015006 0.48728087044354146 0.4383967431483288 0.3560839038810254
Ni 8.986324183359068 8.226481015008664 1.0872263322062383 -0.10912918812919917 -0.04983106458951418 0.018340964401032927
Ni 0.9056766808626278 7.676328363377657 4.927015208321417 -0.07887424589939965 -1.2153404097351843 0.14558357430149121
Ni 0.4178866040443972 1.52444462884034 1.2610279280032497 0.9370040943482831 1.1221955128493835 -0.7725031143169987
Ni 3.445618649451422 1.661964699382542 6.519152422865434 -1.173013366832199 -0.1012371869756321 0.573942987818476
P 4.616547501636142 0.11433560870871919 5.551123117991082 0.08707169410852746 -0.6442418333440388 -0.4133541983574043
Ni 4.3332753342266885 7.899823355011367 0.9499251792871856 0.48831625368659126 1.0099534901228155 0.4796274676633418
P 4.2366621021920405 5.6012516352192465 5.218931003372173 -1.0742565230762597 0.15875019359043627 0.07432827839993006
Ni 7.4728887589556345 0.8085595764474244 2.1017313057042992 -1.70913671269974 -0.49789875516870374 0.571567545607764
P 8.204562114145373 1.3159029773333415 5.949991027369782 -0.964126661596688 -0.7482815227654727 1.0372663190051556
P 6.230087984625289 1.3074900273527963 9.467290724510281 0.2300124314705329 0.4922891222914102 0.19482277094327738
P 2.062294471897647 8.013796211790817 8.976880873160475 -0.7595421832809565 0.6087495539747 0.27932798987620927
Ni 4.897892832114569 7.275265850057795 6.996123265085028 0.07729481722742172 -0.2164290363591434 0.6168228179011377
Ni 2.791272064620501 2.3060257743985386 0.5220904880453631 -1.2029116970535283 0.33147664685530653 0.03550230667166789
Ni 2.1197377325174984 7.2897759272285425 1.9858017595906639 0.603287245308548 0.8935187694711386 -0.7526955926727682
Ni 6.6623779208836895 3.3476394438177817 7.646446107817726 0.5760104118704661 0.7601217099335104 2.0696025476985453
Ni 2.4159911722087615 4.340005694211125 12.34934756560364 0.847361811299102 -1.2938079071144686 0.9571818548477388
Ni 4.752394028365011 1.9375204728851092 1.6982950740243352 1.1579459309761155 -0.5756376019120796 -0.49298023482116393
Ni 5.349405906769377 8.339956331735502 11.406619529332069 -0.5719136160932731 0.15755617328233512 -0.44988006119758006
Ni 1.2138710818166003 1.697425735859679 11.840958425988958 -0.5701007312542505 1.4884478726229784 0.9463940202036152
Ni 2.237681863535077 1.8050662646967834 9.536389991635437 -0.5510509137116509 2.0311660980992183 -1.2138913359934838
Ni 7.376999221542969 6.206522678496987 7.948066647749267 -0.4446434953889891 0.99581396539764 0.21989179809676324
Ni 2.0487794748321257 5.749030077028049 3.6547700136774406 1.3281848419324418 -0.8997632077189537 0.21911815315553232
Ni 6.210475860369566 5.332833299925981 6.124997574712394 0.1496086363004843 -1.0970151569290139 0.5106673676882818
Ni 5.935435719285161 8.22567590474171 9.129272868184415 0.34367293181118236 -0.10089265915201978 -1.3074905468078837
Ni 7.978118066927086 6.081866279860522 0.3926432310113742 -0.6361366877384013 -0.33779564709479887 0.5212680260222635
Ni 0.4454421813946539 0.5358804890672374 10.048023997011432 0.161774839349373 -0.03390333761566419 -2.2474737783891485
Ni 1.1838015702732323 0.891596297373683 7.619793339508393 0.6416283069805918 -1.7668304678667828 0.2185694797409139
Ni 3.1259536887390285 8.042626396294041 3.9259917610126105 0.5384473660150275 -0.43177949494212736 1.9977432996643985
Ni 3.7536954500293223 4.191765897080808 7.080872428410553 0.0031945956778977242 0.5141915787914563 0.868898142708981
Ni 7.527156809421538 3.4314161424950176 5.286998101042727 -0.5103814610167468 -0.6169724561051245 0.35332742418181085
Ni 0.5830463814366617 7.214122700683059 7.367678034811836 -0.6278189119013252 1.0080272196343802 -1.3690975209864034
Ni 8.715924734038126 1.8680096044437013 3.8496636892321288 0.018283628800536255 0.08516290712158882 -0.42961308341842785
Ni 7.492989377081195 4.508499894574173 9.745013058787409 1.088883528960815 -0.9100028831690908 -0.5379727403714542
Ni 6.1765798135124665 4.67333943709621 1.6850550809151676 0.06966198327251229 1.2792472356914744 0.310405170896988
Ni 6.696246829192466 8.627941560370617 0.07051861320251834 0.3914347725764936 -0.42077003120550116 0.8293802871200169
Ni 1.7343251153980057 0.7712413586466254 4.548761740249886 0.5446869191668361 1.2921084079248584 3.1071781704140036
P 8.707367045133184 5.493692522027115 11.723400566975862 -0.7364727030560027 -0.16930534339846326 -1.3170193122339253
Ni 5.488092934889526 3.336024145134965 10.621328544217935 1.076440675211772 0.40216398606853965 -0.008961580068661986
P 8.440640346018801 0.7987146157336316 12.652795434455685 -0.929630170481715 0.1450189600472728 0.11969256546734226
Ni 5.042324186296702 0.04455878249373279 3.0185356959981835 1.2061178626956517 -1.8229689627315635 -0.4371911528760019
P 1.724238621604126 3.5055586565171124 8.038456106034866 0.8761316843429426 0.10744357289666012 0.017255444646338026
P 4.205054739576959 0.5131058193134518 12.726766975623336 -0.6372412336564895 0.6373769879034055 0.42313981698925834
P 2.047341131770936 4.549940457865438 1.376311576666766 -1.8605649187074667 -0.30599084387937625 0.12646433697353704
Ni 7.626221556988152 8.682318165029818 10.844316949616255 -1.0696683894849448 0.4531116807610003 -0.04906256185460582
