# total energy = -340865.4957899239 ev
CRYSTAL
PRIMVEC
9.24648227038311 0.00000000000000 0.00000000000000

0.00000000000000 9.24648227038311 0.00000000000000

0.00000000000000 0.00000000000000 13.53316145145290

PRIMCOORD
 96 1
Ni 4.698479709955339 1.468063973986561 11.931754905113012 -0.14037349085546147 0.2553208283283345 0.19039918795428498
Ni 8.250377137979068 0.16538905261387807 13.263337103690924 -0.14357554273252693 0.7635970700766204 -0.41203213711187103
Ni -0.023730171838754865 5.609489365665019 4.6541761152903565 0.6823635799164248 0.37966503363507514 -1.9769135074032407
Ni 6.436614935136707 2.9775614345728183 2.4274429025709723 -0.0060271800306863944 0.6550268397746849 -0.9654726341016212
Ni 5.106046151004527 0.8984473850347533 8.597617680060674 0.7136485060726355 0.12374539538047721 0.558739026384528
Ni 5.206647877004237 1.3879154665448814 3.6426266850115008 0.9156567390207586 -1.4834537618424968 -1.0301785589204386
Ni 6.815702211105095 2.712871636000423 13.344116221216538 1.123466409142007 0.33412539733206326 0.39642425537128506
Ni 1.6264747065074263 8.08846198871612 6.78383513495754 0.481457578893545 3.1189995885289643 -0.3842953333182349
Ni 1.5340746101917009 2.435061079230086 9.38180998352484 0.8988748915767293 -2.0939719776818455 -0.12345177539945835
Ni 7.076508487166473 9.3826828514416 7.091917749701262 -1.1102182858828493 -0.9167234897223759 -1.252161435218276
Ni 8.481326523116453 5.048422074126753 11.608678194883892 0.5799267162057367 -1.2978792489703648 -1.906979244305948
Ni 7.7406740548901025 4.884722353805168 1.8835315340492376 -0.14333205926315315 -0.11760148726626844 2.3460226198993404
Ni 6.09657555336839 5.229865793730824 9.73141207715243 3.0328753459353703 2.8669636015994886 -2.323330320508147
Ni 9.276255841675365 2.1888365055493653 12.104532821628212 -1.1061765117133078 -0.4306510377646389 1.9142073866232714
Ni 8.425699686387201 2.5963382212233697 9.851911308131807 0.02246784208521292 1.251052261314497 1.7243686991581464
Ni 3.4738201325879268 6.404178275687536 6.112847512689555 0.4351234717136957 1.8766417696646716 0.8895762398836228
Ni 3.4909076316364067 6.09605775036692 13.290795457140257 -0.3035400683460385 -1.3971626546537357 -0.6633111912706641
Ni 6.480785380458453 8.466439686824216 4.624524496270516 1.0487954026906776 0.5134048212241029 1.0111799063307487
Ni 6.883710087458759 1.3054183526322523 11.383458854746694 1.2247717303514132 -1.196778330462281 -0.6766086797105186
Ni 8.320354515034749 2.5217006171544685 3.838749195059003 -0.12888014550388124 0.5999507247361474 -0.25601862572630746
Ni 3.3971483024418245 2.3874232030949303 7.359103173811096 2.022118643184969 -0.172242057429284 2.2697513588404266
Ni 5.078473141176298 6.719113458366771 4.213725485055013 0.19697401295832528 -1.9398101747930396 -0.16676586480606118
Ni -0.06925522679827388 0.3410065638032045 10.763004182181009 0.0829648710290055 0.3411241972473996 -0.1247902917052238
Ni 3.2030091628195927 9.14571400641214 10.464936432274627 -1.5519803459589852 1.506533783590412 -0.9736834520471878
P 4.182424293616207 2.5609519339622593 9.644853908271138 -1.508599922090821 -0.6630437965418904 0.9605620841738811
P 4.582991147663393 0.47208746897688775 6.51785452747434 0.1532212933524071 -0.6773165044108206 0.5773826096276442
P 1.1084590359484472 3.700654833160064 11.332182487878 0.8672534080167064 1.1337834747972992 -1.6534144794367718
P 5.416108437580653 8.947053337009223 2.0644435809285855 1.0361887696702607 1.4089665892671994 1.1249465932319593
P 8.00656589614448 1.6730122512644607 1.2749114340117707 0.9434411082228784 0.6596111167112575 0.352555836123109
P 8.575446465115629 6.20041354812728 9.796560941219411 0.2978260486803967 -0.8406265494577975 0.1518267269977256
P 6.771393068550812 4.025872104011329 6.948236663275759 -0.6921363430324725 -0.3790937345126374 -0.3331632905291101
P 4.959184274712857 3.595115485682061 4.002499771032518 -1.3558293431225876 -0.023383411920946826 0.5829433915448735
Ni 5.7820749553511 7.7318251714542825 13.38437817852541 1.153849906529871 0.3794269494823401 -1.9747272983851993
Ni 6.999180156786365 4.355231798874347 4.441394218318804 -1.0493520465250958 0.5014597330470848 0.9309969689222547
Ni 5.340490706401827 8.546551208337219 10.748118270536988 2.0787829286462327 0.15559853533533202 0.3788145127093218
Ni 1.578827583890101 3.2634996491697854 5.128472568857441 0.6524184556175603 0.05989744768658072 -1.0269808779187475
Ni 2.314477705262972 5.559059051914797 11.210288887387527 -0.6427904456094929 -0.998109703410352 -0.007912055758225083
Ni 7.982913394755945 5.452937176060141 7.7886586741066 1.363506142941555 1.3899298843507222 0.9621571965751428
Ni 9.03811269341043 6.86590136280109 2.364202512423692 -1.2675183772903205 0.6071896656867478 -0.027189673040914464
Ni 3.1459306283897943 4.356137954126917 8.987209884421366 1.4252684117510164 0.830276316571725 -0.6020382033927953
Ni 3.6836505524511063 8.129812256976294 12.388797422952573 -0.5934293786778618 0.9210457712468136 0.3779922739183426
Ni 2.3675062805027083 8.032419060289259 3.237903537229308 -0.3365388918695623 -1.2757801030784803 -0.5050533639356141
Ni 0.8846562568795542 1.2863336134352485 3.3599589511577412 0.38856002213185986 -0.5808353440629351 0.7774015800598805
Ni 6.08741228953882 6.1629837883068 6.534081179032877 -0.583104599713086 -0.052395482882580724 -0.5129561637224586
Ni 3.7973083112735715 8.28290626224993 8.305747847152237 -0.9224681055156372 0.03840713902328869 -1.2124193794336473
Ni 8.165892030400085 7.409187669128194 11.802635178807394 -0.7018954793017653 0.49951057974051394 -2.151252042350237
Ni 7.5218375613942285 0.2886187697777862 2.802758538462589 0.20198123636492954 -0.3049670306005522 -0.28907684173285697
Ni 8.792442908659853 3.7561244796924407 5.946619804142941 -0.8594858482561456 -0.5590413881162952 2.1380980214667824
Ni 3.493626097394119 1.8560093798729385 5.013116231260514 -0.7714577037716197 0.0738089155613503 0.17732024328313975
Ni 1.843239987997424 6.646565559268085 8.648556550330197 1.3091977593069775 0.15725741109499367 0.8395675120656637
Ni 5.610016415148658 2.320376960886852 6.262497203355206 1.4608175125002196 0.45103140119320384 -0.5749901981360678
Ni 8.913590318039283 8.10168445821792 8.996615406083766 -1.1674759819537377 0.42878647375207446 -1.9881566844172276
Ni 3.9308829926882587 4.241638765427066 6.254404682160819 0.7980907329781158 0.009712342191757466 -1.4088794288700317
Ni 1.2857880709872722 7.564473090675907 10.730835670714741 -0.14056915180603533 0.5683711501576534 1.2745685992688822
Ni 6.870385906653099 5.097992465035249 13.209908155773265 -1.2523635239267528 1.4006428998928522 -0.5448576404167456
Ni 2.0751325143160546 4.1801404125204416 13.176968487694097 0.5793340769270603 -0.7012557888352373 0.5689571045681105
P 8.032234130645877 1.4406111684265301 5.60404133837099 -0.06940075919132564 -0.039018547355042475 0.4984255742064513
P 5.609285943057299 5.0647883475660445 1.4093839488450763 -1.3242649380527451 -1.4757070280175424 0.8870359899602724
P 2.0684935401186473 0.14777727802641064 4.898341497392022 -1.4177623331819582 0.90289146893529 1.098314849577044
P 6.614563484480861 3.450750159576045 11.373092623586928 0.78159556353657 0.4463203688707797 -1.041150227440594
P 2.4093558588000143 6.01875715943332 4.347812421581868 -0.778130487806105 -0.2247864071849032 -0.1810714827954559
P 8.05935406284782 7.374513360994103 0.3086309311363496 -0.21220317120325385 -0.39200247215450557 2.5299200021793657
P 1.1760323276401634 3.4207175854908374 2.923880057691944 0.4771424964579589 -0.2810406016919418 -0.2780982312341662
P 4.594993081518874 6.289216762879228 8.206103132057029 0.2386474814377116 -1.3319898175008285 -2.313598952152996
Ni 1.666428755960068 1.1819315832640434 7.095882641255369 -2.288322694084711 -0.6839977730857382 -0.6583196515933436
Ni 4.0180310871319405 6.629709222273832 10.12873249131005 -0.19290421376432582 0.7065468620308476 1.5493531927487834
Ni 1.012434318622438 6.11142540373195 6.603492671379809 -0.9668124359589673 -4.052853053063407 -0.46790169458598124
Ni 0.1758523718364213 8.249017905100212 4.330002772275982 -0.6371242484626511 0.10692009629302231 1.0211796978559382
Ni 1.5464464033339447 0.14265102831186666 12.883366788675389 -1.4378889287285042 -1.7530660670928389 -0.764158084786413
Ni 4.642751161922227 4.368463514858315 10.996911516964284 -2.5238763670884468 -2.0847530301867385 1.7593475292261767
Ni 3.5875796027142517 3.202981423373085 2.0570131078575042 -0.10302873165841611 1.0332955072828653 0.5513131662341022
Ni 3.9168190933090714 7.723928675681879 1.2379199574461057 5.182806355481338 2.6790645543592375 1.400940890749245
Ni 2.49798339039075 1.9137814004654183 11.694857257996253 -0.6672670905946185 1.1947823830781745 -0.18031455002477334
Ni 8.98094169415894 4.372245326065475 0.18499806734986915 1.7868519052940324 -2.261448752512002 -0.1707896412534736
Ni 2.843089844387729 1.0015881950380945 2.2629202453363386 1.9818495112522772 -1.3255571745016073 0.5759255654661436
Ni 5.185575144140878 1.6253928680936425 0.9107239394106553 -1.2528486910932872 -1.1999153334293657 0.22037773659424628
Ni 4.58333326750365 4.058401228282191 13.375242654142347 -0.09298625982074953 -1.3894447171841877 0.27875411965061025
Ni 0.8946535534007753 4.546301106416441 9.084580889551196 -3.2446311451885603 1.762097838277804 0.8099607449428244
Ni 0.519145590680042 8.945056096860698 1.6601938530334501 0.4145150514347248 0.10161102537528309 -0.5522181945468748
Ni 0.6790893899445424 6.413507976196149 13.178416486801776 1.2276871042259954 0.7283575301480358 0.15216456995311858
Ni 8.563379805884965 1.628296263494737 7.883729154472758 0.9748664166116954 0.23138925721340148 -0.8463428831162844
Ni 4.06940454206341 8.635456134393028 4.782349001821861 0.2646266791102927 0.007227885207006906 0.07910024586727668
Ni 6.227810874794296 3.085994930969747 9.073849422345749 0.2696179616772969 -1.1508620275461408 -1.1105144769670294
Ni 6.357400322394105 7.713248988776579 8.645308261144194 -0.07213512740335319 -1.4421430760191678 -0.09659120356318848
Ni 3.7523704079317897 5.688278640227843 2.528048327163549 -0.3223813694222577 -0.6341754502469723 -0.13270029058091987
Ni 6.414636047020777 6.935259225551441 1.9054688129954058 0.780283786703682 0.9367089317053675 1.7100905919725775
Ni 1.3439114579021776 5.283597101615411 1.8441775812893697 0.5645119243125633 -1.2134429356021554 -0.18077683437317252
Ni 1.370189960226734 2.1223358057892634 0.8673616366304866 -1.4879359659835665 0.8297680094767387 0.024065268479319845
P 3.2104525809657107 1.0341265657911254 0.16395122463658443 1.0603298856928385 0.5634302612126103 -0.6736632239289495
P 2.1342452748230527 7.243536941068931 1.1884374081182156 -6.498706723619472 -1.212120617246306 -0.8320331513618315
P 1.6162203577819045 9.070022303375962 8.947097720123633 0.501714015149736 0.5257479161704881 -0.182011478111222
P 8.677028318225261 7.721053019727292 6.68339244845114 -0.5699510930502637 -0.3762544652916294 -0.5865668472300736
P 5.705024019436067 6.177269603258045 11.653540277071889 -0.7630265422851311 2.3726183681099977 0.6411760499345215
P 7.336722988369028 6.472028961844325 4.035304440472019 -0.14165672844325927 0.7012419048781665 -0.5929624663437724
P 7.129231928494629 0.3533663365186283 9.401351498940995 0.9430191901941113 0.5925513469482827 0.6177653843200651
P 1.6349629771386518 3.7116304074947752 7.254017828607595 -0.07692354993093203 -0.05673499079819907 0.008872619899281493
