# total energy = -381178.4933119166 ev
CRYSTAL
PRIMVEC
9.08583839798182 0.00000000000000 0.00000000000000
0.00000000000000 9.08583839798182 0.00000000000000
0.00000000000000 0.00000000000000 13.29804290606596
PRIMCOORD
 96 1
Ni 8.286802382635093 6.121983302145842 11.013039951907627 -0.5780225572044884 -0.7112303835494461 0.908145775355694
Ni 2.25500511102247 4.99256817768163 8.10527642011009 0.8874869614547619 0.6565479044049015 -1.1536131079287164
Ni 7.0337108278245015 7.383433828152339 1.5844084639985758 -0.0942944371092118 -2.0978371170642065 -1.345598923643831
Ni 7.938106082030229 2.12457790285157 8.550042740103029 -1.0022774616347965 -0.06795837031784425 -0.9357110865684725
Ni 1.9757246146966512 6.102167088908591 1.1370926577908858 -0.5962172258356442 -0.7374584640080396 -1.1577420424954254
Ni 1.967774506222284 6.842035983967078 12.194571444610657 0.015748006862876106 -0.09930500294992575 -1.882469689200358
Ni 4.896712584076405 7.3739027838213556 2.472066695552155 -0.11430944677855796 1.3673558557049483 -0.7144200941313373
Ni 0.7714794349363955 -0.025064193414158508 12.076431015513915 1.6252606427103753 -0.44030912967969327 -0.17991705747603853
Ni 2.5920715386591167 6.237255332105034 5.1151588503563685 0.39900307184205475 -0.5339229957821128 -0.5545309018404515
Ni 9.022546307125165 7.054917174314983 13.410677277630844 -1.538113615279222 -1.2266599485130616 -0.9810216375798139
Ni 6.736322255853638 1.1625602624236293 6.418260676097945 -0.5006549777576023 -1.2757510496127578 0.524967843471354
Ni -0.026600608663319026 4.240397057623952 7.947189194535173 0.25450913106031653 0.2130269526561299 -1.086344564589045
Ni 5.311063151922156 3.0143176999496943 2.315707596413608 -1.053800569214753 0.4652156631133859 0.882546586730351
Ni 3.7049686091731573 7.447734305493019 6.678888855067159 -0.25377636665935005 -0.4185341998964469 1.0142120082888533
Ni 6.646935779086983 5.070969875996273 2.6873619931247914 -0.5193569250424798 -0.5857232682828557 -0.8439867241792819
Ni 1.8356209887826642 4.088045721740311 5.787827068502726 -0.9535167472913254 -1.136858771288513 0.4825569826053109
Ni 7.061458977859606 4.696151790404205 8.968944404331419 -0.3045543685431658 0.9357838487879366 1.4717796679386783
Ni 6.262695679223008 1.637168109585952 12.664271121946864 -0.5439294721755212 0.9891609788574963 -0.18619697694747933
Ni 2.098601491276467 1.4167093301321922 0.14038892123523844 0.9375568815279596 -0.5737493837504312 -0.39237219678909846
Ni 8.594467037673965 0.39524850149545343 5.041966063114131 -0.005522986700758231 0.15860312648961072 -0.1926854128853004
Ni 8.49328714285048 6.614989971777414 8.502555606455854 0.3306124990827984 -0.6889954834106456 -0.5469492328384515
Ni 2.469630782315609 2.085708686790608 2.2280601490892327 1.9336647240169345 0.2313416918049177 1.562283527657206
Ni 6.698752314663344 8.740685432734523 8.305957146847277 0.7633972953609885 1.383460474576295 -0.044173352083104564
Ni 6.935020452683274 5.387320592408283 6.086315026902615 -0.39314712728191004 -0.33910073905946764 0.886297569132351
P 7.1303205460050085 4.1072440979761256 11.994901063087585 0.38394412062640326 -0.38643243426589574 0.23503662415800167
Ni 4.417716277036232 8.331023157429085 8.837134331577891 -1.0692639549576748 0.10874506531690303 0.0010477245382240021
P 5.327590291710583 5.841067354933867 8.213894890714107 -0.03273939921455007 0.40979630580281684 -0.17911435906908507
Ni 1.0105905317467587 8.533083114413596 1.3450702212318024 1.6979089623047212 0.40363697106964036 0.533387949214249
P 4.411883168875611 1.6397394018125186 0.7378954509891925 -0.43477405879407705 0.19925535279333426 -0.42730140456611565
P 4.48075382285927 6.350074185734994 0.3606414521605776 -0.6336108359927539 -0.391713480159177 1.927614404057796
P 2.51540523545145 8.25049537296244 10.308802080155514 0.985294811033871 -0.06780976055512192 1.5572577923078406
Ni 0.35705890613607144 2.7084611267238485 4.002830553317179 0.2350960166410274 -0.7107074211664405 -0.35835110264864733
Ni 6.961351211950377 1.862760387654589 3.739941817789767 1.296797585870412 -0.5983689820713243 0.4209278969396041
Ni 0.6095243680157199 7.160476443178064 4.348140562003875 -1.4062077955751395 0.8437057026037534 -0.3727173986726484
Ni 7.207495656155035 6.741155921806053 4.0697995413537695 1.665011440245752 0.9968272371535025 0.46551108286661763
Ni 3.9962333261591936 5.224211624029043 2.484127237253726 0.03384343091200623 -1.0699254998010737 -0.10785932027784004
Ni 4.341767755050823 4.779650643980698 6.55362149444208 -0.04602814590365621 0.6081011217574238 0.2745917607428045
Ni 1.7205579331033694 3.158946073315378 9.172843334979028 -0.6137871163986075 -1.7733160755911266 0.6645283515072169
Ni 3.4985928790168477 1.7333144500153819 9.883397681487004 0.10835657162923275 -0.2147555053114624 -0.5176229730705085
Ni 6.34934731867448 2.710805272994005 10.267139877414527 -1.6671279723681225 -0.2858426510662755 0.34310651778475104
Ni 8.168959060449334 8.82244889120404 2.733252744990315 1.8926327457762888 0.9697270385026009 2.22479510584471
Ni 8.064844439869024 4.759034876976882 0.7824978309899552 0.24727713208825158 0.47668972519125646 -0.13092391540678744
Ni 2.8879427756411573 2.067364379350897 4.689700845242147 -0.5675833641490355 0.11355122845629476 0.7021083666435198
Ni 6.25979729681921 0.48222723112415616 1.8750244521331036 -1.3822880515347487 0.634004986107379 0.042997843717764654
Ni 1.064542239313377 1.5695422154434227 6.396438309773677 -0.3740348319324913 2.5360037464796004 -0.34797027363495553
Ni 6.265512289082498 3.466910561016713 7.3528599824194885 -1.845550190466189 -1.531963022296794 -0.19094631870700665
Ni 4.209268975757459 3.759183806049212 8.959742267345318 1.386074258050058 1.364805835589585 1.0832111611663862
Ni 1.704194338403558 7.507537292896771 8.529364280815244 0.9841820375856662 -1.6012722502155778 -1.9238765342819188
Ni 5.045693073966914 6.119648241713942 4.423181408747468 -0.7850588394948221 -0.1580004599086053 1.436152919874004
Ni 5.572326430985495 8.545894146355147 13.254319087076123 0.7153356639670713 -0.520741206984516 -0.25397948380909163
Ni 6.483636008104358 6.986237322934709 9.777652152939666 -1.1167056933794057 -0.39263779174565927 0.5345076646409892
Ni 8.053841489740499 2.8235332682414 6.111927096363637 2.0377913167252193 1.2811717064076968 -1.078595773881562
Ni 3.6233323524392294 6.05149536895254 9.619138801550523 -0.20656885573561198 1.0667021077677694 0.7165160574284176
Ni 8.238738298258633 7.546588225722862 6.372914165943981 0.5214248633151021 -1.2323577702287873 -1.458850875692152
Ni 5.175638732710224 2.651165830678868 4.90000983477966 0.05505143244818906 0.5963131279835601 0.8515941042128945
Ni 1.9022656123935004 8.671860207942146 5.784143669673574 0.21438989444192758 -0.8691938195725288 -0.3394061861150284
P 0.5228945345760636 1.1997213408923844 9.338470897722948 1.7318830052573206 1.5793420258013897 1.4045718026336134
Ni 5.902905570107057 0.16960715990023187 10.466277828815773 -0.8276892725708389 0.1435032947336948 0.8348870758708589
P 0.23591742466323182 1.4719512267312223 1.7160195568942878 -0.3050441636953907 -1.6473975838187305 1.302174533911609
Ni 4.325104327688549 1.1218284495201012 2.9830833137756017 0.21202910751923482 -2.603151447970691 1.7548504126867714
P 3.9074646863939764 8.281723399049755 4.442318001283139 -0.46608315332000383 -0.20425152045634504 0.042763873330087646
P 8.886676681838669 6.337526643102879 2.435882344695965 0.249325529976848 -0.26649252867443785 -0.5282722252542386
P 1.0903096766085822 6.038838796261348 6.69351614607617 -1.7461112330415605 0.761886772253733 -0.28913931953967625
Ni 6.375650820426815 6.135203196808932 12.670827462832696 2.022647519105246 1.5570209937066861 0.40126487129303795
Ni 3.2629062346453286 8.160191226531888 0.2108486883299451 -0.8714497054862411 0.724424770752533 1.7841445336651982
Ni 0.10975238321841793 8.2698300367721 9.918145561314855 -0.4003575289874202 -0.47975730837298664 1.9882081064804533
Ni 4.417243813446898 7.181646446315521 11.680987168495948 -0.2153859398066097 0.1145616719986801 -1.890012277434306
Ni 3.370827821455078 2.6150223660948315 7.25658189733534 -0.5962797036424634 -0.21062657074475336 -1.6766711359718671
Ni 3.1170331014385155 3.9653505619256237 0.5839804423416225 -0.23432340014106096 -0.242795185057498 -0.42279426072438153
Ni 1.1901902965614006 5.36137143834795 10.33428149637799 1.3065952886871237 -0.1761071968116451 -1.524253055247046
Ni 7.943239580645106 0.9038273893147026 10.97412984957451 1.0959283516227385 1.32905361769064 0.4813369941552807
Ni 4.3000910149686264 2.914391650805594 11.9639964928422 -0.1918426052690309 -0.5066554183154113 0.02498983717611825
Ni 2.467659155413966 7.219425361785713 2.95055601281762 1.165115195031045 1.6135765215042275 0.7272635257529089
Ni 0.9572112319902948 3.310688658035838 1.4769075515000987 -2.179506923430872 3.777239535924308 -1.43217773727634
Ni 8.983141026607075 -0.010261545726800051 7.766681754478714 0.27145810020982925 0.5970253235592362 -1.439768148029088
Ni 8.111373017580148 0.39583272089534116 0.2541227187776193 -0.8779168012678236 -0.8983835537626077 -0.2903423387088419
Ni 4.5028414956606255 0.5896754457607462 6.216861259554675 -0.9446729237474505 -0.09881032270169433 -0.10759218265938243
Ni 0.8505807427967825 4.682304972901421 12.529030236667714 0.5711497413440552 -0.02497389633651828 0.5414586420375256
Ni 7.360828262570367 2.515178089495039 1.4870400783236577 0.7151957959550973 0.6713723710122437 0.07359217156485391
Ni 1.570178224121372 0.4491011734250767 3.568941798884826 -0.6648677371245065 -0.710954247069924 -0.09390851452470278
Ni 5.378207496637095 5.018099383182168 10.988291945664791 -0.6750104819854633 -1.20908131619935 -1.113576660832121
Ni 8.847971010866324 4.947665965018405 4.777122055193937 1.4984353228529936 0.6717017293272045 0.0740850520408724
Ni 1.4488277683686346 2.427254432687669 11.536716777157567 1.027771492140843 0.098221797188076 -1.689522795123555
Ni 8.57314257528615 3.4390988101138134 10.383031561542808 1.004386280447683 0.6730495016043505 0.9149113762143017
Ni 6.184330324261391 8.727074847026406 4.5910695280495855 -0.708890936782992 0.6746793238982897 -0.795825591093023
Ni 3.860772563594237 0.4622056779423104 11.64674536985898 -0.7528881682995485 -0.3114035302545153 1.1374241568736798
Ni 5.941456781829045 7.456629341146054 6.65214650732704 -0.24806466098655341 -0.710034563469132 -0.14210641438616817
Ni 2.4194769551401736 0.6091291340515658 7.936976712334957 0.18314944837040717 -0.48575852026174404 1.0808940829974354
P 7.064239244366069 3.953675259766125 4.457410487210877 -0.9523085859158373 -1.0416683047275932 -0.23531713151289796
Ni 8.681000561228105 2.6565264752501556 12.875151610710708 -0.5805499516120324 -0.05861909519478937 -0.9748373631459727
P 3.0695505107104677 4.491293395236716 11.231447149083087 -0.8939489150300217 0.11821469537023513 -0.38245622322696715
Ni 5.508443902204609 4.302816766445552 0.4886527359390959 0.3950636275783325 -0.09494415487806875 -0.7020695429857844
P 3.6235958417486653 4.168482647824392 4.615112473243723 -0.07433264927530424 0.4129281665635792 -1.8155405314779762
P 4.976131896275767 1.5158812547010097 8.292726349178277 1.0797103471019793 -0.41029947069148054 -0.1584861412957722
P 7.377364488197051 7.9562505010283 11.771175016196818 0.13734730243462798 0.7436409386696676 0.14301041425767627
Ni 1.6918375983748277 4.8354286050368565 3.093138255407958 -0.2344946356116026 -0.14037811884115178 1.1304035025814725
