# total energy = -381168.8510551885 ev
CRYSTAL
PRIMVEC
9.20800712423331 0.00000000000000 0.00000000000000

0.00000000000000 9.20800712423331 0.00000000000000

0.00000000000000 0.00000000000000 13.47684918594474

PRIMCOORD
 96 1
Ni 3.13345725397576 7.633078924330804 4.857838015236848 -0.7318061508182687 1.2006493833819127 -0.36639916976410447
Ni 0.5246759381200551 3.2839713410041136 11.759224740136643 -0.707895148528626 -0.5406921961851462 1.1502166806526577
Ni 6.91679724588662 1.3036236309212783 3.89803032660936 -0.5594741047783397 0.8741745606165718 1.2467893722730852
Ni 3.7216187191009347 3.636509107795228 2.2868592524758573 -0.12252720670265997 0.6422032056474553 -0.7933938417230787
Ni 1.1311024064894148 0.34847795638056767 6.108355384961055 -0.7414750413666004 -0.4726980875333601 0.23071768506767362
Ni 7.153967889444024 6.103656538845151 0.9684761066825769 -0.11971673383705833 1.2373469959132624 -0.9718407424114941
Ni 7.829310767513312 -0.05168362407203279 8.55518442714295 1.2270060189985705 1.120169226447974 -0.13058941488550416
Ni 2.363308732933028 -0.015062458311573561 0.8704679187765207 1.565076002800679 -3.2883699808374076 -2.1969408026366035
Ni 8.682276106048581 4.463581529854068 0.8984989345437858 0.9211519578073749 1.8478778101581015 0.002757508140479122
Ni 3.537421741435745 6.964135611322371 12.159622045575658 1.0907558062828635 -0.32082688045094426 -0.4743381942399444
Ni 7.416285600888032 4.883936270275663 2.9476838654639255 0.1002254578816661 -0.4107355297876346 0.8243789772506834
Ni 6.928390127054411 3.4692088234921474 5.273208461316802 0.15742607546237403 -0.5051868041896848 -0.14838273431318316
Ni 6.201482408207027 3.7333773443997975 1.0395020708507654 0.3648498229991136 0.6682183987642943 0.49032171415239423
Ni 0.7423624382691628 6.8952044688107925 0.6250238806764175 -0.16207180176450153 0.42505606017536474 0.10058386966234935
Ni 5.513496936139823 5.543772864082393 4.8678922383878485 -0.973578293927891 0.3238229869647907 -0.5993578283471548
Ni 0.22723980770397856 0.4504336170083328 1.4342198773983639 -0.17357311753588173 -0.5417962278826024 -0.5788026299036225
Ni 5.849432665801848 1.7102492324857046 9.504467363447336 1.7697183309375393 0.22635529433391985 -0.6405319885926194
Ni 4.396630108908076 2.456797630865175 7.6886234658560975 1.1051976927398062 0.6104089439549939 -0.6850334134391041
Ni 5.213877587197232 7.726936142554224 0.8250687596743186 0.08801426052745487 0.7542289985981591 -1.3251455408854855
Ni 0.6153112745955714 0.22084668824822265 10.302067716599307 0.8077354551567315 1.018490066838917 -0.04786879865682078
Ni 6.164420178897769 8.982567639522744 7.067893278975185 -1.6328047736062206 1.554413123770194 0.9125397906583317
Ni 0.956859284695854 5.304070018522493 5.414418777787622 0.36492258521857796 -0.5083973407071826 0.6238879522780353
Ni 4.50342457736243 7.137771004635333 6.716133588799383 0.9860316891998955 -0.7992019637644235 0.19608723947799778
Ni 7.937385148979835 8.586098469990146 4.978105639945935 -1.4857047626602025 1.2718609705297321 -0.7019178478992686
P 5.444906489897673 2.2039641669214247 2.404431693453561 1.6804984801377572 -0.9042721513329007 3.6177606916979625
Ni 8.348283265923017 4.466951660519207 7.924400937911765 2.287857324412518 -0.9169980835400013 -1.3220625310847876
P 1.9590311732254615 6.9213460014838315 2.652944760380689 -1.6415403537070052 0.4388502857459797 0.7313358960500695
Ni -0.08561328930402097 0.7349905076393513 12.463012994300875 0.6369578980881159 1.4502610771406121 -0.06320131524883309
P 5.412521928287571 5.450799614558027 2.047740194577625 -0.7133965379628295 -0.02361943919115287 0.11796966923896457
P 0.4717391042569689 6.115111299903714 8.669145487664728 -0.05602768031852932 0.8232420354327629 -1.1761591115500325
P 3.287295431632845 3.386309133934074 13.261314076806993 -2.7801032521708184 0.7722447184492894 -0.4816774082138349
Ni 8.605508949340187 7.553162629132035 2.5027989936436073 0.5205162354579036 0.35155619121400106 0.23906065771573023
Ni 1.0935705688087851 2.8555043461672507 0.6002626282949206 1.403877604780066 -1.305261657477365 -0.3664099683973819
Ni 2.8419593674557184 5.414501649853158 4.1201688982792195 1.021919147125124 -1.155501583200681 -0.278979605397855
Ni 5.529445204751908 6.336692787133024 10.342431016519091 0.1832918874855424 0.5487991415629968 0.5521179215235845
Ni 1.6521467065375266 4.1769546791861 7.575269213014189 0.29649781678727644 0.6270488665045201 0.583654301568969
Ni 3.371023841846281 5.244319259270873 10.331716579245986 0.8852313326513658 -0.6384848762556036 0.3060952306677244
Ni 6.61029030749724 0.5323554161930789 13.030995111467979 0.26837920417418937 0.2813403923205477 0.32267781761675396
Ni 4.172755827865598 6.977910790215948 2.7465552040089563 -0.4929954043298154 1.0731802592929451 2.905169423245248
Ni 5.152699586816932 1.480012218411499 5.600358831231257 0.6524871040719666 -0.11903899104374338 0.501306238188356
Ni 7.925617315673691 5.630797740902715 5.323194128846071 0.045007417948625714 -0.5013103519534141 -1.6852848457828071
Ni 0.6201528448243436 7.663400892309783 4.558274835138675 3.00327526368075 -1.1993206372681604 -1.4644299124418263
Ni 4.750889773060888 1.584173196783256 12.056496968023103 0.8316248601798194 1.6678453101501212 -4.121565013717825
Ni 3.1648565588067084 6.111860873333237 1.0667623764085434 0.46204035070919774 -0.02885986165448578 -2.8513500634319473
Ni 7.5409343954618 9.899712788812183 10.662654202555448 -0.04829534467127811 -0.4108373454728215 1.5281667884791552
Ni 0.1388898986358057 1.890348646910492 7.99214885148763 1.6172588554518212 -1.336933791769665 -0.8436810200134051
Ni 4.611821239083816 4.9941929494679735 12.985887846196611 -0.09014030573152218 0.4711081173384209 -0.3619663308037315
Ni 4.326925493784827 5.059965745481892 7.911692046261419 -0.9602710352960238 -0.556573386191777 1.2522208277013014
Ni 0.21743604235104277 2.76291783294872 5.899369530892522 -0.12611363850233767 1.3271700275146823 -1.3856435982705426
Ni 7.982016360274734 2.603223362660408 13.61552585932194 -1.0859257318840718 -2.0927756433808993 -2.984795716819324
Ni 0.33215676347357165 0.847657843138038 3.87925704136322 0.21192009274519635 0.22008488794417583 -0.10411013764805296
Ni 6.748576160855359 4.663910936276976 12.269485542857037 1.6755745604735788 0.3341873609182503 0.7620073569919973
Ni 2.515903829607069 1.2803089564837526 8.469674267520483 -0.947403435304736 -0.33645533101682057 0.809587934984438
Ni 5.522520783275991 4.100086234397607 10.394033610127044 -1.0638996053219676 -1.3779840248427557 0.14805080489506117
Ni 0.9360123562098519 8.56323498790943 8.236766931334557 -0.17732435704819782 0.19050640295611063 0.23234570758939982
Ni 8.895146818389305 5.917010231243001 12.049394832006648 0.40295100074620926 -0.34957541333854636 0.1355902105342052
P 6.813207163966336 7.20965791748437 6.149419414234983 -1.3962740814011954 -1.320579775891674 -0.26180643605267817
Ni 2.2815784602997433 1.4024071330404622 12.262369594829659 -0.24609468174437615 1.7457613059013095 -0.37059418168205854
P 4.938401633347528 9.121120525092037 8.920636424146792 -0.5452785300042481 -0.8462593222635426 -0.3155424921235533
Ni 4.619049524800031 2.1125378626204014 0.6121455616920876 -0.8036980518625643 -2.510661925280702 0.531982327115974
P 2.746177675710402 0.7525952967614308 4.592182401153186 -0.25229746812097836 0.027830906169339163 -0.8787097294827639
P 9.05869023572141 3.9870947770426013 3.9672883533794425 0.31516119752473465 -0.8803020136705485 0.49254237595279693
P 3.603387905602583 4.343094754571673 6.064852154558175 -0.7554492441585055 0.0011991625144237412 -0.33737064374223835
Ni 7.601329715223148 1.4490733139446406 6.438038877678734 0.1780982590997449 -0.6138547364117494 -0.533200001573159
Ni 8.46799656859374 2.295160271040403 2.2659432639352417 0.052959325805850735 1.8950673233597106 2.221217158685465
Ni 6.424629256674243 5.164062267802676 7.092865394723435 -1.056058254900678 -0.4510745957263135 -0.16828795787754242
Ni 5.4738472567843806 8.4700407462103 4.990477518529766 -0.7493963530962062 -0.5131639088578904 -2.4783063917681316
Ni 5.575816729423067 8.517056831391187 11.28758876556123 -0.41827271870494415 0.4065009228809967 -0.9961366388443812
Ni 1.6191912484759532 4.76351395104424 1.7961949308525984 -1.035863525120358 -0.24428051135377288 1.6530771507020112
Ni 2.5022391468008736 2.320712491247406 6.241101701138441 0.7986617749902374 0.39768975234726994 -0.33967460928506665
Ni 3.5354512278774393 9.354690837802254 6.610273733084133 0.2714539864447712 -0.8235716508580396 0.7526063753930716
Ni 7.422740413992576 4.964929902326403 9.845283336968714 1.4335512205850987 1.5566163020690997 1.0184820964191168
Ni 1.1337635205938559 5.002544612072569 10.356675803784041 -1.1152458210044276 -1.1353919569349995 -0.8600396638770866
Ni 7.091905920364671 0.2530655057272518 1.9615550880214037 -0.569371823508026 -0.9820948160393345 -1.1483639437146351
Ni 2.3250586706844176 1.3743963748892172 2.3224518838229393 0.1599670967166729 2.6568101138364115 3.246724794492795
Ni 1.9445653937857488 7.144575722016585 10.023191245660433 -1.9460438144075773 0.4623961913867198 0.8937545396310285
Ni 1.8015834567139097 5.177791406659845 12.714854755860378 1.2573314094549894 -0.8102037141915659 0.3448175869385868
Ni 2.1181087070258924 7.04987136712324 7.06430860174038 0.3409195374357612 -1.0942553347956896 -0.48070835943234635
Ni 1.7063818694273472 8.268928659168438 12.207936459783278 -1.5908723950384924 -0.2973383104107008 -0.09833981082317902
Ni 6.422345670868357 7.14312085686606 3.153596086701792 0.6122657946580745 0.8555384335726234 0.3907146065810174
Ni 3.3926902829803636 -0.16197621449274252 10.523828759970614 -0.9339604224259529 0.7901336829145682 -0.8886215892798374
Ni 3.8071426907343224 7.224860337506627 8.949382902079854 1.5459853047178147 0.3801890244593452 -0.8552509842391915
Ni 8.944087377092089 7.283579799942685 6.607079475358075 0.3863691851281281 -0.3182994860434002 2.456396479068918
Ni 6.963454218783517 7.0185457263505455 12.269471730846112 -0.5241299209510909 0.9420624827077968 0.2181233933424308
Ni 8.565131837409481 2.7574206526014833 9.757252024952493 -1.1039126553797955 0.7230505161128257 1.4970363856229378
Ni 6.74684505548638 7.136003067237226 8.354473809218574 -0.9261211288871921 -0.9811213963824716 0.4487878565746658
Ni 8.247787074449418 7.3773357300860045 10.066532415135152 1.041470072673858 -0.31391421249151097 0.7845862707337777
Ni 4.556471907312898 0.09682680057180082 2.7494796671216566 0.1795218789201489 0.8763173179911876 0.28839395673321944
P 8.255908536871969 8.39313546939268 -0.03445544244777913 -0.10835682873954887 -2.267730471755656 1.5752724837177066
Ni 3.9171783777518696 2.6502302398340136 9.92687180628986 -3.126251642105687 0.5803139243418264 0.7755426724742708
P 1.6831132350262306 2.569144527710455 10.110211518477113 -0.09062418734647618 -0.2378267853086291 -0.2643826814202866
Ni 1.876269603776615 3.0294436037205115 4.0696178591028485 -0.11563947844389115 0.7532820613038574 -0.7313402669254437
P 6.670630379214897 2.951074253745085 7.586509427503086 -0.42493804654026174 0.338755697015223 0.3001472406144056
P 6.947542782200562 2.704741642942288 11.530697653014668 0.482057417261073 -1.2352916560461307 -0.47595541812839315
P 3.8169860505185698 9.107520298336814 12.677712416887767 0.27165247560882244 -2.3215444322523178 1.4735118201384365
Ni 4.61322085619065 3.2197178661916914 4.414032321869956 -0.5344888955879118 1.0982531431011733 -0.25262528377404236
