# total energy = -340854.3209069665 ev
CRYSTAL
PRIMVEC
9.47391468186242 0.00000000000000 0.00000000000000
0.00000000000000 9.47391468186242 0.00000000000000
0.00000000000000 0.00000000000000 13.86603177487160
PRIMCOORD
 96 1
Ni 4.0786244464590835 3.974809290320684 9.235165316034207 -0.2683236683459056 0.7063725412365126 -0.11271999080425103
Ni 6.025788639374687 5.202647569737446 1.038287038362715 -0.4333738360124407 1.511160483729146 -0.6731047803223181
Ni 2.9342039850564294 8.231647544237282 12.698026051613148 -1.682495455963128 0.32377130779124885 -0.8870365041809045
Ni 7.606956563633722 0.3413195633094516 13.629546809440939 0.5895696386121394 1.9995541276208917 0.012645456678152414
Ni 7.760917149726543 9.17668947297589 4.9290551270889 0.41586539481503215 0.8897711295032482 -0.4016996448376114
Ni 4.228785992799076 3.262219330099304 11.74895202482266 -0.2858040845188562 -0.04956444119168883 -1.1211935539474303
Ni 0.6554925717367195 3.8355995892531856 10.64000189966587 0.9881528493079562 -1.28088194308142 0.6324047314997947
Ni 7.103143259355208 6.941622489415111 4.087636981413862 0.8939046920556475 -0.8740845720059269 0.5426143529085236
Ni 0.6470503664405953 8.747199028699724 5.547314267073519 0.9019198490506403 2.220713479576169 -0.9336799150710565
Ni 2.382301090290735 5.389899491719147 0.1891590209897912 0.22203352703011436 0.48360599269511556 -1.2241153277143368
Ni 6.635169773991784 3.945942272547942 2.6539580121874047 0.5002212326542934 -1.6497311170479139 1.3404490040117754
Ni 5.4287425415610375 9.105701430911184 0.17133669285258024 -0.9179175100304772 -0.23628720873565112 0.8747204058177129
Ni 8.892329926389461 6.5400895671105115 8.257097321015396 1.996718972164942 0.6951586747985641 0.7235811918053151
Ni 5.609874314713991 0.6657566108095743 6.969455903105474 -1.1962067742295268 0.14593992919964544 0.891388353391697
Ni 2.458935585454407 2.6157857154988813 7.5131847043581 -0.08008909214310724 -0.4653848417013985 -0.7597501855267044
Ni 2.445643683276804 1.9059621383394116 9.686865458296797 -0.3157001007473401 -0.032517255901414965 0.5240129357572524
Ni 7.231334797748042 5.65850391833312 6.208446660168988 0.8487219248714223 3.4523755092895128 -2.2044849335324486
Ni 1.806618669890127 2.2988074809598613 11.899745481266178 0.8887036074706824 0.3800391291450423 1.9378813332014435
Ni 9.327173132412131 1.9931505743625628 13.790849679345337 -0.6784308205209219 -0.8660071943144312 1.30492792828703
Ni 2.6909043843272595 4.947562419251371 7.2233568142671025 0.16633006282022322 -0.06343400008492947 0.041853445700676305
Ni 3.6355010390798745 6.229060950937518 2.2384908562956216 1.3177376784571886 -0.8597419301310095 0.8343664274806986
Ni 9.336173351277935 3.8674793118673225 12.756734952970518 0.18665720441334951 1.98965280934678 -0.4814982023234933
Ni 4.950234063167326 1.851619764219147 9.746142794529902 0.6321748748771757 -1.107690120144357 -0.386522937097173
Ni 2.4039489851416427 5.022927409859236 11.438145098251203 3.2005770922921397 -0.7333066466231951 0.989739991289418
P 0.8786809465623856 4.647665652728188 8.772996498143495 3.3167117652048947 1.3632811714149424 -2.8148424554242166
P 1.7395149328096118 7.203225693142947 1.8222875772397618 -2.775477837583665 -1.638359127765546 0.014968962605006476
P 3.2157024094349906 8.423740636577325 4.293172611173578 1.647686318703743 -2.3791579690007283 0.7874813328933856
P 8.391605118269107 4.304387831271829 0.9156547930545679 -0.8081620011711889 0.4946506805450513 0.09319760450060724
P 5.38734153477834 5.466713991260135 3.7352736758603386 -0.37029233417092355 0.3519266871795423 -0.30389488058229597
P 6.298950018909134 3.6915771395711308 9.491354177570669 -0.893363731950513 -0.0513636991839567 1.6005806234651918
P 7.8349747401202166 6.06582540245562 10.89312689722212 -0.7585389388274226 -0.65449719252346 0.22766321451206598
P 3.386602354824715 0.8013851721599421 13.249686414165195 1.4778109617344226 0.7706280087814729 -0.10857074452256786
Ni 0.7076000494038861 2.7020457078916653 2.966942991724386 0.8237773391109426 -0.3388659973408422 -0.027573795853210577
Ni 8.477220884469391 4.099997597786719 9.238964355787035 -3.760733310739168 0.046912091170506307 -0.7895089048463757
Ni 3.7996081877045653 3.82812467063727 2.3316004889410125 0.615781521120817 0.344208235489362 0.957400141506132
Ni 5.4598075075199555 8.617207446533728 4.856258514727898 -0.21117241594589437 0.6275101224116547 1.0851274043524926
Ni 9.520526255393387 6.6007510422660305 14.065009609478158 0.22903669782082492 0.045410824034631474 -0.728023800957701
Ni 1.4502857941210547 0.40421972448390664 0.25364132590170857 1.9380800794758106 0.018390072471413492 -0.10730833287037649
Ni 5.433659503236146 7.7673120420785615 2.803669547584107 -0.5613890624128653 -0.7455800646739095 -2.668733861857191
Ni 3.4178473251609476 3.1497639638497326 14.051975397777557 2.973198498900028 -0.18129568299112003 -2.579527380793848
Ni 3.906815005268184 8.096047404630701 6.513970931961949 -0.33943755357359606 -0.884668003948728 0.16754285218140175
Ni 1.6285943407245247 4.905431921044813 2.311259046912836 -0.5873497481426853 0.5198271798106789 -1.6745476618709614
Ni 2.808181973105983 0.2971057512833248 6.2422240078766205 -2.3607686678602633 3.751144638609469 -0.11510546031729209
Ni 2.846636592449455 2.576118435087175 4.768417325989112 -0.1797846456632323 1.6445781120920646 0.8559500671887452
Ni 9.145027650397449 1.7207281601665707 10.17862415364389 -0.3386122294588233 0.7040356655732198 0.17398835069642937
Ni 0.6197787558857498 6.155780221540683 11.137570946834437 -1.8691562599209033 1.491022061108058 -0.28657927212198386
Ni 3.418273651317749 6.182837721625668 4.897371514506891 0.7016494247292302 0.060185925461277 0.09482099903664315
Ni 9.193808836650108 -0.08228094826263938 1.6492398954112193 0.17138150920120163 -2.29793064948812 0.35558973785342635
Ni 7.28646350677974 5.064328416641933 12.76902072541807 -0.09504442790135889 0.5263739797902613 0.22767658424850468
Ni 1.0791357159244905 0.23772704416404805 11.36400319001763 0.797245097148369 -0.9994451343923239 -1.5353201116944848
Ni 5.305183747405443 1.1011720412738168 12.106376295553144 -0.9185006362274568 0.2497037392518732 0.5840998737468199
Ni 3.5138275539288 9.222448480472556 8.596620630117524 -3.4189668519220797 4.358026800358127 -0.7602224971774326
Ni 1.6862715327824347 7.2462277914922995 7.090326000298843 -0.1456689349264459 0.280577031791962 0.4980404229528906
Ni 3.352638370999549 8.22884326551699 1.187314557125616 0.9263155042861854 2.471582957001369 -0.055068915949685805
Ni 3.039923398028542 1.2611011935618557 1.8436133589944195 0.38014403015402276 0.16199801110377263 -0.010851598002523246
Ni 5.2702250025477415 2.045531848161542 1.322359525336896 0.5761273970643045 -0.9968935716150638 1.5712656765511586
P 9.387332490094083 0.7769945790336135 3.8077368064275756 -1.1033637248548611 -1.0781021220745948 -0.049173633511173376
P 9.756237250531495 8.672032990298367 12.947005264142371 -1.739278269280127 -2.1746814770177707 1.1314237163158707
P 1.1393613910086124 4.432162517422459 4.168101780248528 -0.27370164482836734 0.04172694742514104 3.6431351659070095
P 8.174368256592386 3.5358259836197448 6.176485461889329 1.424471626881334 -0.20067742995184149 0.47544505415087795
P 7.36972974216032 8.06541823874318 1.4659442801646347 -0.6218056158277098 0.1347155212387357 0.4665773193476028
P 4.441901701626718 2.1355908803071553 3.5150250567336823 1.7272984712104316 -0.8913168767238134 -0.8062814963190243
P 0.4645723500236093 1.4212008763126147 7.581835531692074 1.631472170837726 -0.164558058521465 0.9115283186746819
P 4.826286838513313 4.72779602237763 13.237872442664504 -0.5135426323535478 -0.5342883495413314 -0.5410889174029326
Ni 1.118622991958881 6.778273253958066 4.177086840850979 1.2952459251125756 -0.4304227238039168 0.8935845897120676
Ni 6.65778400813144 2.3175279362007335 5.4538294674101415 -0.9793164819632489 -0.4851735942925515 -0.9994834438294271
Ni 7.928633859812152 1.0772977764929474 7.256815838444322 -0.41787111239115127 0.739840591086971 -1.110031880903656
Ni 7.1027832506005755 0.2697744550665271 10.980163750611743 0.318159103810794 0.7766621307906947 0.46435100112024547
Ni 4.467936018935381 6.770855178829724 13.464457215872686 0.8519432600221973 0.08104014320246689 0.9144066686637413
Ni 2.056351058629698 0.5377441294025955 3.945911956021236 -0.8876944494798776 1.2832265320541965 -0.9898526056078824
Ni 4.918240653578042 4.211619259551879 5.902464798301062 -0.8808213765091282 1.4756502066376778 -1.6413866017379604
Ni 0.5569723864657911 2.1130240157404763 5.417791643680004 -0.6853684281810197 0.27093205250303015 1.1205952582417993
Ni 6.086052210117191 2.931077593239887 13.352045429630254 1.5184385054477978 0.5552161008329342 -0.7365184686922734
Ni 6.840194759754797 6.243878153365009 8.874454544330515 -2.1262177250894285 -0.5779950464006626 0.9510952823340265
Ni 7.0439597148766 8.100661201038749 6.9317677234527855 -1.113121061351941 -0.13509424473439313 1.2014785641514276
Ni 4.750201830396184 7.765966746205989 9.010632592727427 2.8733929021646 -4.072861377864534 0.8240509044873033
Ni 5.206181339881599 8.28782785778909 11.574517361897325 -0.1941707391815753 -0.04250856278617195 -0.33824456170675943
Ni 8.208417505648912 1.72933047461936 2.2317520608437835 -1.7668744337308409 2.3728299699001716 -0.35439468910406063
Ni 0.3591030483968207 5.312886039971652 6.4470528836075065 0.07520528168824467 -1.5323569153011027 -1.31161768160238
Ni 7.268491490791919 7.7306669404228465 13.063466201482955 -1.019422348845199 -2.418209169365919 0.4111826446273822
Ni 8.648897690855954 9.242542653329787 8.992190670575665 0.8470753904069347 -1.077728797895576 -0.06445524226059222
Ni 5.271181867921896 5.855390811458528 11.410607270696222 0.5283257041999934 -0.5737581255011797 -1.3561954682127548
Ni 2.500317644407914 6.359734654954396 9.206614727008956 -0.906464273888213 -0.4268686879040713 -0.8274375615713492
Ni 9.098690734110452 6.686376282380911 2.574422604374565 -1.7014645408664633 0.3631608653324649 -1.4264624320591175
Ni 6.633019195378585 4.17629103202495 7.473125203882136 -1.178155573154771 -3.0571627577278253 2.5070248427487467
Ni 8.322151850368886 4.465482275055125 4.284312606243788 0.7174719935837838 0.23329084511148854 -0.7014344805049468
Ni 8.596431151825614 8.050203131902673 11.241386102972836 1.146246126040684 0.09086124305794675 -1.3795027754801275
Ni 6.34121315192003 9.911893667336924 2.900551693021459 -0.3581654690004025 0.30465515578708824 0.1073219597171313
P 0.8622010721233688 7.868218706436117 9.512042364873043 -0.07080535284833613 0.2955220831375685 0.30250185688951126
P 7.746118895128242 2.0949288388629124 12.031222573240761 0.5670550024493912 0.26074971265338964 0.6593815171989547
P 4.7617126366298175 2.78961310049864 7.439237011373735 -0.31720676719985375 -1.4612242610203352 0.22966173299933348
P 6.4497936871000086 9.182534878281363 9.100040766940323 -0.9873239256487577 0.048251893027852384 -1.6621387466836473
P 5.063286286036419 6.611447091844443 6.880962909042511 2.9366520672345615 -3.610152797443718 0.8621327989606894
P 1.6658362989997617 2.78002549892791 0.9080652400720463 -3.4692226627538383 0.3968518298270069 1.507517744770236
P 3.396635230381437 6.984046678974132 10.937692191479742 1.4559429580167376 0.5965877218011854 1.3184853552564906
P 8.910633529388129 7.315567372417371 6.252151722981332 -0.6764916945166801 -1.0700311721410025 -0.8016756221158968
