# total energy = -340871.7280016058 ev
CRYSTAL
PRIMVEC
9.22636256325867 0.00000000000000 0.00000000000000
0.00000000000000 9.22636256325867 0.00000000000000
0.00000000000000 0.00000000000000 13.50371422634767
PRIMCOORD
 96 1
Ni 3.4361187615768944 7.171771375952196 5.4183519615629505 -0.3911066998131135 0.9332263724734057 1.3944064320648373
Ni 2.6279355539417044 7.040304939219576 2.8897538828383915 0.17127403708905986 -0.4495283342851161 -0.16943055612241786
Ni 7.6432661697164646 1.5556292721016785 5.69258528360073 -1.2677068391520425 -0.19953611725854667 0.18058168764323093
Ni 8.453110122569695 5.659081594099209 7.575583420991421 0.07877808664116756 0.022010699943136283 1.0619471095812871
Ni 3.829161796513353 4.053011799180686 7.4224378007097345 0.6968807996959934 -2.0493142297631546 -0.5720956501970922
Ni 2.9036377128612174 8.979566356688812 1.5090269160109728 -0.7674041025275363 -0.4247274731913524 -1.3037742742985612
Ni 6.0663147742876 5.1157042114807165 0.9068582300375829 -0.4290744373061385 0.03765740534145773 -0.8778777204997721
Ni 5.565166452018969 1.6781276846568745 7.745973112453769 0.45313610624103257 -0.01559219801130218 -0.8486429920043708
Ni 6.3725377397697835 5.902657559411945 8.862028036518167 0.3359225984418021 1.2276014864907245 0.3516335814191557
Ni 5.79036350358538 0.9197068622078297 11.698254255706619 0.16673192624433222 -0.9383117574161132 0.9860954525582953
Ni 7.6028085709325115 3.454294695352125 2.447345196295653 1.0972452706619489 1.6559837828258446 0.9355347088916081
Ni 6.797199518385286 6.3622780248672175 2.7007564638441215 0.8174555106579728 0.12089352775397891 0.9217767358755674
Ni 5.015635085731401 3.1295082888771666 11.552548774001759 1.011096345478007 0.8189976583341121 -0.7111895030091816
Ni 1.8074905107799752 6.441707778101207 10.319349495437885 -0.5754200865846348 0.8550612368258887 -1.1086776808686067
Ni 2.7340018152006134 3.5433659972130775 12.685686307906176 -1.1623905970110302 -0.62466134010895 0.7114031616818846
Ni 0.4632897897509122 0.7399597940780505 1.6994691833449385 -0.28545338604765674 -2.517529341824497 -2.300661418155722
Ni 3.1033423253306927 3.450152058669344 10.20760625344197 -1.3293009578147559 -0.5305581930749378 -0.02352122305039175
Ni 7.468205171010259 8.611222293689558 4.235615349085497 -0.5598042344242488 -0.8589898824563335 0.7801043237030243
Ni 4.633986608263171 7.944045581428402 13.016756789758956 -0.06740198359374198 0.4761320529155736 -1.8090757496892393
Ni 2.382717296135573 8.989946014301571 6.80795099839964 0.8710887226023967 0.2557764278085143 -0.27687207213654896
Ni 2.3141192922681415 8.175507333011758 12.587337898729999 -0.8613110743903425 1.4218832973288673 0.527441244712511
Ni 8.129735349530073 1.359984259054082 8.299449671270418 0.5037341309035582 2.1178256443709915 -2.3382612307863666
Ni 0.9215558252172491 1.3631027695190707 12.569904687121726 1.0486179965725488 -0.7380017381060192 -0.548273865187146
Ni 3.338596111828576 4.526111979989062 1.6134914807707041 -1.80585467164878 -0.4045723383997161 -1.544959948777094
P 5.476824032781491 5.340227738597588 7.030438267351945 1.1279720103218445 0.09859306448456569 -1.2841459585446724
P 6.374964273060589 9.03818143652335 6.490965481268315 1.7779479179361832 0.5410254111548488 -0.9964474852165807
P 6.979078798847784 2.275802209542998 10.273868142369357 0.12161189397724217 1.3255638593698267 -0.7326782690105769
P 5.414878236148548 8.14530022276805 10.762986210805742 -0.7777414798978025 -0.319812580253817 -0.03759724152748364
P 1.643851748628965 7.093780935240508 0.9033273011767805 -0.2670193477121853 -0.03937310248098381 -0.253364475932912
P 8.986467675706006 3.2097130565462426 7.08543938106478 -1.259505791398489 -0.5596337702846556 0.12564158396192557
P 3.3223761668657055 7.694084973388531 8.242140121704507 0.12440976843735348 -0.08102780190729271 0.24133711245473274
P 2.387312024572154 3.2280550648432773 3.9239903484635157 -0.7107508728098664 -0.5858366539322685 -0.11335325351287576
Ni 9.223280717436385 5.695248934403222 12.406010354734384 -2.664229032008302 0.764600057419838 -0.3182642619300906
Ni 3.5011646159501812 1.4329647850246778 11.855950317885737 -1.7220760464692277 -1.5304982648258094 0.801244191005433
Ni 3.4377702804326136 5.524884154119144 9.021277818112386 0.389384060695052 1.9643207583398943 -0.10200080461453401
Ni 0.7455509696454565 1.2197250990281654 6.275014167385234 -1.2168311353480978 -0.21703350271236171 0.27782955095381184
Ni 8.210309171692048 4.497657878586619 10.150242268338356 0.711690096794684 1.1373562797502217 0.8676562998820799
Ni 0.40552353525003965 7.712537698033435 3.2481288613482366 -0.40686267709578955 0.3530890829187597 -0.3289934754221366
Ni 1.7983748648053928 3.2327512832654057 6.4096184899437185 1.6007999385648493 0.9744496407892507 -1.087911651965849
Ni 2.1380526200687884 5.915417618503896 12.509975773292469 2.9412353157298696 -0.9609631762670419 1.5617068292181298
Ni 5.063316926213834 0.8254106713636727 5.1152881025399735 -0.07578455123048239 -0.2761400790665309 -0.5747382300262618
Ni 7.2611379214074665 4.1914072340174675 6.032230746595998 -0.7581239627771912 0.2718026280334416 -0.7038685438677361
Ni 5.314467734993301 5.350902639804665 4.768269853412836 0.18640806451702088 -0.7082417332347674 0.4648441387065801
Ni 6.715573890918552 6.898735635743872 5.94623920447828 0.4285159936995072 -0.48305269129480677 0.7220380156879113
Ni 8.837830978691303 8.422201808789481 13.221797007559505 0.1747260001934023 0.5872391907067499 0.900699603490294
Ni 4.310741004296062 3.1571227913082662 5.037412068721085 0.06638871183787921 0.1849790453799782 -0.6803231524476283
Ni 5.525428509496169 8.22107633652235 8.123591514859552 -1.8626799081679406 -1.730226443490504 0.6761430529280097
Ni 6.89146526223378 4.713850000526316 12.12694241883964 1.6263916709910249 -0.35556685503529084 2.218346522005889
Ni 6.7708767066793305 9.442535991667135 9.47608304507157 0.024230076191958272 -1.0376357865294326 1.75143290236479
Ni 1.1518836568711752 7.146675670435126 7.841485337852025 0.9257318638685734 -1.0539178115189074 0.7749914279564911
Ni 0.7429786598299568 2.730892531097947 2.5254371269928875 1.3083480097121725 1.7783508098015566 0.10512752316897378
Ni 6.914586526213845 1.081551096887123 0.3466777963574403 0.6193941781727398 -0.8158431718655306 0.07253287706240412
Ni 3.2523665295629387 8.411370059422923 10.380277624306661 0.24157288261462265 -1.224005284499034 -0.09507733802182335
Ni 6.8508323625657 7.228153676104701 13.570286861477076 0.030210205034793134 0.014279906957781857 0.954557529851014
Ni 8.714788210759082 3.2437214280668014 12.339275153419855 1.1895653576536094 -0.24681407640890396 -1.9209382775892014
Ni 0.7465732505907842 5.090359394180941 3.069137432292666 -0.23654766148588938 0.4211752370637198 0.3060306959783762
P 7.447224423089002 3.208412139458777 0.42006243699775964 -0.9988152141178088 0.7531002843103547 -0.5079147446438091
P 4.424714258065313 4.883873405404463 12.871591972886192 -0.2543204120882781 0.5584713745454382 0.6633849819313931
P 7.6797379799771175 8.810078080825367 1.9799413715851595 -0.17712509655319816 -1.4632186657425443 -0.7736079173454031
P 8.89802376648298 7.034962875434876 9.62433961595859 -1.1829709922655434 -1.3268404120894053 -2.6875134564575394
P 1.150656550682289 4.520299371725916 10.852637850856777 0.09893707808754573 -1.8754621475342732 0.7127987564778304
P 5.044338298916549 3.939370694455043 9.420636298058563 0.3257304884001487 0.09457802978790163 -0.058264540068848035
P 8.085753280338944 5.41153829298782 4.26702465433982 0.11187358364355571 0.03998528214368597 0.059433620676284736
P 1.8531702306384357 0.8117916379395012 10.439532091050147 -0.2405087030161664 0.6757501883649653 2.0715424450337356
Ni 5.216723652549244 3.7532288345995726 2.6832955731488815 0.2166288110747753 -0.8186739564461061 1.8105914150028173
Ni -0.10518237574841822 3.3003067081904 4.765919898929306 0.5092725442232842 0.2751406912677391 -0.37085874819735487
Ni 5.275643202340423 7.548751314085266 4.11271835767797 -0.04745587948911827 1.4205540369944827 0.1307915035939812
Ni 5.792171870600581 0.8106937008231294 2.5616681291969248 0.21230807221223433 0.7999151877813643 0.8313134995869876
Ni 2.7084078861181315 5.28751753064942 4.5025838334305766 -0.35889591940852383 -1.6038168710143024 0.4009401409637675
Ni 8.16546905080493 1.0323007748098738 11.409801264057478 0.3338572312723411 -1.920781697406679 1.0468634757752873
Ni 0.3072830745130344 2.407785322565675 10.06492517330641 0.985199423106587 0.37705562103668616 0.22647870728566158
Ni 1.078487944596069 4.209361735096959 8.58156968782143 0.5316743089572521 0.7551108869824801 -0.07183687943664402
Ni 5.1657295479930525 7.9946060469554405 1.7681087058428206 -0.10546845144816029 -1.2329925755993087 -0.1215923535932164
Ni 7.294011450362364 7.424435308152546 11.319339549394533 0.7495706738905413 -0.601455591416448 -0.7264973370108456
Ni 8.34243068014956 8.146748761652676 7.311315492898123 -0.7048861864989732 0.8917411087454254 -0.40067480311752285
Ni 4.489963092409694 1.0059410576546282 9.68641642693651 -0.27456836370403676 0.6025588517829559 -0.372246629683817
Ni 0.26307957262616644 4.206547694588611 0.7857474623756834 0.13899435111974773 0.5011895101048336 0.4544445406398109
Ni 0.37185100331801857 8.17224120074961 11.103091146644667 1.0167566290875778 1.979067834742082 0.7381583182885416
Ni 8.156417989366604 1.3149134791089034 3.257366295305476 0.10810511774005899 0.7603536234386583 0.707623125814162
Ni 1.6541206898938543 0.9320563481764319 3.746713177527457 0.09930963093561607 -0.7723444772519473 1.5012817911628533
Ni 2.2947347050286697 1.696155996634946 8.551429007386442 1.011871790191451 1.519124732881545 -1.5729597764241297
Ni 7.0502878632524695 3.703000518116143 8.379932152445399 -0.9953339404374277 -1.577759254695302 -0.3966651677374975
Ni 8.780341515060105 6.601111639946213 1.3534907452515401 0.14399334699623587 -0.4964088008867386 -0.5791543568160865
Ni 3.5280041039461945 1.773768156491413 2.3782332840468614 0.34964766133737846 1.939802461483556 0.8173565231862634
Ni 0.44169456609898083 6.4198874312086085 5.571605530283809 0.26659434435962476 0.4322260955612427 -0.8505335241588642
Ni 0.7115453660335949 0.10965439356611076 8.77888559508562 -0.3607512274497077 -1.6151065849955089 0.19819143030519415
Ni 5.347064473078525 5.501975096472496 10.969188027622687 -2.4292286604048745 2.417252718989921 -1.0520388493286397
Ni 5.1999593522093495 2.919626998766027 0.4767132242938477 -0.38824249089144103 -0.611954691175559 -0.49845488478249
P 0.3030435610258676 8.721034458051383 5.083540189788416 0.31178919572870817 0.0205755101585065 1.1292189953550682
P 2.222732173464254 5.4348717633013015 6.912146153379556 -0.4295657751202602 0.42596880179762125 -0.8590554455869464
P 6.387235334949451 2.5059907231258554 4.046239649236006 -0.5280184573722196 -0.1494937079891748 1.0315839239083975
P 4.613910043849516 0.7899325403251477 0.3907908798935482 0.4367468662497317 -0.7150021918870525 -0.03022023233712215
P 2.042181489176189 1.9141933910391336 0.7870696000964909 0.02599848094629071 0.9696956710440331 -0.28578917212052074
P 4.426891679573411 5.81553302000103 2.827826538930093 1.4750537107042594 0.6927397809444263 0.0061320810396668585
P 3.6818352429484387 1.909423361718426 6.694276678769636 -1.010819694777853 -1.4065736635549906 0.42574871536701514
P 3.681521546629475 8.900099698005532 3.6003194091933417 -0.3810529151215373 0.9029973983855353 0.24193232283657043
