# total energy = -340891.8106932514 ev
CRYSTAL
PRIMVEC
9.04726777534532 0.00000000000000 0.00000000000000
0.00000000000000 9.04726777534532 0.00000000000000
0.00000000000000 0.00000000000000 13.24159090106204
PRIMCOORD
 96 1
Ni 6.470949575146649 1.9647317712252026 11.460517649960034 -0.07945942897890831 -0.3236160131603072 -0.12979674378087971
Ni 4.558909090354288 0.6155588968829748 6.080922774152273 -0.02385546646135892 -1.3544702579915318 -0.013028808159500142
Ni 2.8517620746286543 1.675128735731501 4.747269582630599 -0.36600579098042774 -0.8791051651489699 -0.5560576228976231
Ni 3.4540205834304265 4.32195210495549 4.7629475926339415 -0.43678800390031225 1.1952608653764898 -0.3307487675503465
Ni 5.123006224469637 4.369884528637016 2.7590710087354937 1.9979836978099785 1.2892632251665797 -0.12156484278939063
Ni 7.258342320602829 6.33753856729316 2.7487951222089784 0.23735473076821703 -1.1321881052857212 -1.1708019610031772
Ni 5.207851499910435 4.442470756495996 11.645329803888306 0.7199628783264373 0.8508945070427086 -0.32216565386702584
Ni 5.640880868477603 7.999304488797101 12.413090883405165 -0.5740172926998371 0.037141384936987654 0.8593089563586491
Ni 1.9215853520977593 6.315635132462475 0.3129305102427476 1.028453348699216 0.7979812039834451 1.0565948441304385
Ni 2.7691152852117544 1.8151261543890935 0.3097458720517516 0.1432891218403597 0.1895764349426735 0.8090534026372067
Ni 0.42999310556461595 -0.1350621341883076 4.757121152307233 -0.7977654884282132 0.4757983237252386 -0.5871977959458532
Ni 8.582156608622492 2.2490964387854193 1.5032252231978669 0.13637568254997803 1.0355943306193713 0.34718557295013114
Ni 6.766134774742181 0.44136009256225067 4.814814672989513 -0.9493093940781973 0.9509335599451817 -0.625541171610742
Ni 0.4575176077477615 7.593073126825758 2.525462417071035 0.8844607730339284 -0.7099990822455063 -0.42621742747331753
Ni 7.765595472462415 3.874537580923312 3.903435458326324 -0.39806539051913375 -0.0518259835323559 -0.0768019367514032
Ni 7.53453730553103 3.9185977740771487 12.58405257538288 0.9938745822830819 -0.4736481101514553 0.9146064433793731
Ni 7.8727060734374215 8.802466621659265 6.665843099348294 0.6518620688934581 0.03199712173188683 1.8747561226061842
Ni 7.0318892128737644 0.7803838272557132 0.402884777690521 -0.7913194756925533 -0.3637671314578961 -0.14643615210977362
Ni 2.1693085859263452 6.5465304485772755 9.336327787495327 -0.6937615373407213 0.1369204993098545 -0.331597488703887
Ni 0.07744189637349073 4.782403741582058 1.3713386799329674 -0.038370372248082305 0.5808947365459608 0.4309040343157095
Ni 6.3871990190840044 1.7525823935528562 7.286436800644021 -0.5753421821588479 0.3754527953259405 -1.3519068681397297
Ni 3.7356439289114625 4.474407611081837 0.8512691688081391 -0.5310788414650983 -0.25068384377695535 -0.919536790801455
Ni 5.772301477461718 5.535082121302865 4.75783588644669 1.0451706614538967 0.42317889775730994 0.6518931792417095
Ni 5.187468006034543 2.4756943027958926 9.522861636445608 0.48773852680625024 0.10267314809121027 -1.46749261052755
P 0.21739317396638427 5.571415947936502 12.504642898308987 -0.04419237824649809 -0.7116145063617422 -0.43992269287455205
P 4.143748075273534 6.102970060537609 12.599506213150041 -0.7504767306445784 0.14689637957564378 -0.13827701333774894
P 2.204402936900418 8.38810176612626 1.3041681464521975 0.011187898296019442 0.17434547692553198 -0.48822935039973975
P 6.200391037925805 7.618595468691667 5.882523433760256 -0.4231007362212068 -0.8440445740004109 -0.675901626341165
P 4.746060867680834 1.1499710413151496 12.558628848733683 0.23557064228460076 0.25188557739454037 -0.21491954169315244
P 3.980544415252574 6.177818105293603 7.99588190746854 0.05809818969431285 0.6409899020656444 0.8390067544661874
P 4.74854886626755 0.9241602895848372 3.7382730648725513 -0.10238544164746238 0.03300807949490444 0.13677831730503542
P 0.14296944606026932 5.655247929407437 3.6979656783142403 0.27503836136191984 -0.9104978205276385 -1.0776431801603052
Ni 1.404579245778247 1.0938870295367848 2.654581401180748 -0.03971120254669289 0.5731423462940516 -0.28381379356170483
Ni 1.6766577239538825 6.4645622042294795 4.934557973697723 0.13960087435549504 -0.11867415150515691 -0.7514383232268994
Ni 5.843829175012895 5.707866837699576 8.900414150021087 0.9450038247243079 -0.7326731268042542 1.6233960786978106
Ni 8.565129651021769 2.3688370253133524 9.864428558058075 0.8160072082472205 0.041533086246780086 1.559401835234037
Ni 2.36424101337862 5.188336543722996 7.027100494139406 -0.0679964226446313 0.041468294447115674 -0.09520949272431346
Ni 0.6691051501028896 9.013901265192155 8.823428235934035 0.08503383774289226 0.14770807684366175 0.39222538679858904
Ni 1.259560593609283 1.017464760220468 11.337197964374266 -0.1088013724761352 1.2680130575385518 -0.3697084366429956
Ni 4.124929758690374 6.992814064160947 1.4397450701662655 0.025242833727188784 0.4722466018182383 -0.36638065782134316
Ni 5.544084152552982 7.892076273343451 7.930931573453879 -0.011754312322450725 0.7309072931530832 0.43024043258978156
Ni 5.131845404903169 2.8016583067259955 4.920032585585098 1.4954780399968826 -0.32887931844177554 0.5236632657273176
Ni 0.7676561312128347 7.458757392213465 6.8886067313549475 0.3601555028472378 0.1255878479058547 0.4775998957103517
Ni 4.939428117840374 4.521371977131441 6.885123533333546 1.2772340619161875 1.3727271473191907 -0.3118745563536629
Ni 8.441145895995037 7.168430575312719 9.451132184827218 -0.5585119979753865 -0.3425228773671391 -0.19508245236256724
Ni 4.563215589726204 0.05411894525823882 10.468510091278839 1.1892802223130228 2.0339549736982647 -0.8358563817626637
Ni 8.10063388578334 6.846592125402771 4.981248207539408 -0.150753805648521 1.222709705616062 0.40799036294232954
Ni 7.310897898021851 5.824187557079223 6.96260071405063 -0.6635107088759798 1.5737406204542124 0.25755228876201447
Ni 2.0695624607680183 5.459510295139825 2.6124066585922616 1.0572473901127728 0.8961852605597082 0.044394209844659034
Ni 2.237063572893304 5.123467635116628 11.48061796436042 1.2308063665812674 -0.08072801127868678 -0.01129742729069022
Ni 1.2542408002675056 3.5821479870124886 3.8915582054367235 -1.218305148790463 -0.526773272111209 -0.138613056520929
Ni 3.7027842530316395 2.7145512143881834 2.6927301096925484 -0.012189342977340298 -1.7710550474710918 0.02053694361108721
Ni 0.9927023888319564 3.356264857141472 8.005163499287127 0.16347870941435716 -0.18259640408041455 1.0381662051116056
Ni 3.8180102530331324 2.762827434238055 7.28017337729281 -1.7532972092670382 -2.073801673381557 0.15905641197694545
Ni 3.923546629447816 6.855503683977007 5.647763124931838 0.6175941488495235 0.9590093949747805 0.7607940534101866
Ni 0.9470046402446809 7.496737821548129 11.690100207547806 0.019713162158211214 0.2186941782442363 -1.1218905800144552
P 0.4143096672007193 5.714118499602923 8.083395222121055 -0.844490660398894 -0.9797797947529127 0.44023559612928054
P 8.536078874796518 1.6516963126784336 7.8417101346807385 0.7401972030954413 -0.6051718639257707 -0.36906411819077733
P 1.8406304017198258 3.1389675842115206 10.582864839411602 -0.7266510889798905 0.3319916388185121 -0.5570955772438342
P 4.026703574486842 6.187218216317595 3.5137090266158735 -0.72043159043274 -0.844218894794746 0.32356279132486854
P 6.939417090856234 3.845839648133995 10.377804900621259 -0.25736099868681483 1.3645584954654695 -0.6089611557648738
P 6.443174463651314 7.794139601702735 10.405771814189459 0.34562285644870155 -0.9537345197290865 -1.7731425261277398
P 2.3453503186547566 8.541127250110653 5.456727355629739 0.8671621338544807 0.21882504739514572 1.7539541261247469
P 7.089529354677275 4.231759894370151 1.7495850338009329 -1.446905530404818 -0.707409210031143 -0.6141552983713036
Ni 5.595581199664202 2.767296784426555 0.5670384008082255 -0.608903563054061 1.2291613747786765 -0.2632873914735788
Ni 1.5885282903786202 1.1656770978480164 6.828780769702163 0.12354150689978725 -0.09757207941921905 0.11147789086703382
Ni 7.200376477166148 0.5789310340527264 9.15095832188363 -1.287484793109918 -1.5555932601212241 0.9304652647885008
Ni 2.531009296829273 1.520139994680498 9.229534745612664 0.45396297301770205 0.38701067536686895 -0.119326183266859
Ni 6.307610206111868 2.0184544461630844 2.687089138351395 0.7682818771467994 0.5314850757645814 0.6461742744800614
Ni 4.354051810357916 6.810520669529188 10.462140814896847 -0.36044578039414693 -1.0891406392769438 0.47013701167440325
Ni 8.084231189646191 7.325084013599924 0.15840679874577082 0.8014208257926133 0.2738638814378445 0.780975670564384
Ni 7.3415048042722475 3.8561987695223205 8.195577721305925 0.8256131067681006 -0.687968584808028 0.8273231474806719
Ni 3.125939518884719 8.758171199548139 12.395068726369754 -0.40989169373010054 -1.2855371824652442 1.138622548057155
Ni 9.21572771054653 4.743835239854172 10.267278051405 -0.0886889179969763 0.012925964033048706 -0.770346215874996
Ni 8.78680580146434 2.2177838456631545 5.664050920770617 -0.5448833514483583 0.24114402260732018 0.9434814745425106
Ni 3.843505453096277 2.7447509935971173 11.371652673529862 -1.46346934830077 -0.9993705724006465 0.49102568219795434
Ni 1.0062371011436895 3.2297931035280243 12.909822967786598 0.08331865482399844 0.656176894218728 -0.8319989556897864
Ni 3.0185755944172477 8.429891095115494 7.802077674284496 -1.0225061299768454 -1.655960385787077 -0.35010891724451315
Ni 5.493672777552328 7.829894403210735 3.405605035659699 -0.5119084391842345 0.48850831509273934 0.7867465116098902
Ni 2.9244749642338674 8.35661727491982 3.3353186232216023 1.04730030620239 -0.439750686073062 0.5406950243986237
Ni 3.4716627552271375 4.2304480405698826 9.290842649696371 -0.08099823422093792 0.4269458209989099 0.18145406294585523
Ni 7.444354142213279 5.9775206481616125 11.423202194793094 -1.088980973770628 0.7108768568647693 -1.2302029286693135
Ni 0.5646725403339488 9.309457402758799 0.20412716550201643 0.14137313576456942 -0.4651213036273667 1.1653280823727994
Ni 4.630563449651699 0.5835406168888414 1.3871759218458608 -0.27042503095962456 -1.1953194865285672 0.8629488671040816
Ni 6.223633468359524 5.837550371306784 0.2676986959362571 -0.8939957091075571 -0.4596409972390858 1.4402885393089324
Ni 7.9506482837085315 8.927771277753854 11.458808621112649 0.4881828134325205 -0.38519779052784625 -0.4005629601300069
Ni 0.06944501655240723 4.553960234983622 6.14327744709592 0.032898550500233666 0.8116692429934989 -1.20008374068643
Ni 7.646289154778709 8.977259831460525 2.6536676271543542 1.0384497977902956 -0.04084068816544579 0.17792419541572582
P 8.466062070932546 1.6374740080300083 3.7044543786283946 -0.10302024701798387 0.13657134350055192 -1.4188509382604468
P 1.970350124397386 3.387595544798913 1.829312269967167 -1.404187422711001 -0.5022092096185997 -2.0845771667305066
P 4.431894500685558 0.7833024757796204 8.312752502745886 1.9219968007607031 2.1232594137920535 -0.2846517160819678
P 8.449351767697404 1.8136695443074164 12.354973045873002 0.4308816657182063 0.27271871208980775 0.2060330378368
P 6.335195324987854 7.988502051296962 1.3654199574768604 -0.6504250793366153 -1.6567353162798888 -0.7559341542147239
P 1.9280270066204557 3.2444134879503244 5.926975373600656 0.08161812719312396 -0.09001432167661917 1.314904836994084
P 6.86475903871959 3.733201166662687 6.052877149356055 -0.006340597506047146 0.37497919812363156 -0.7382807027990188
P 2.49307410383255 8.559945566693813 10.292927055017143 -1.5675985121122162 -1.1315355593033867 -0.685281267783852
