# total energy = -340854.17246315314 ev
CRYSTAL
PRIMVEC
9.51277915862175 0.00000000000000 0.00000000000000

0.00000000000000 9.51277915862175 0.00000000000000

0.00000000000000 0.00000000000000 13.92291386509229

PRIMCOORD
 96 1
Ni 5.51590877615656 3.2252886799133718 13.299097094106685 -0.6331189839579999 -0.07048550761507215 -0.30556661185776407
Ni 8.756170570148715 5.145509701896317 7.7681923732018445 -0.34569947532290785 -0.4262346538644982 -0.0812679429425568
Ni 7.692213807669919 4.490925869065806 13.244825738877415 -0.6214451471644974 0.7798114750529538 -0.049067189840296135
Ni 8.89928081678228 3.9178950902361955 4.907520900498471 0.980228709364873 -1.8150242539631904 1.8529768219475635
Ni 2.2909910946225227 5.171517639565565 11.847591619463433 -0.9881011701344146 -0.022209446217503686 -2.009595571017294
Ni 3.381536074286962 4.584598203458302 8.366960926778315 0.5835416872505047 -0.2147403358028108 -0.724020850445895
Ni 3.816155919287912 2.192343576835361 7.648983934976382 -0.7855200954019568 -0.3493720390784886 0.008533748502624013
Ni 2.6409567196824937 7.318818208038128 3.828383645359621 2.3103902154077116 -0.6993346605531247 2.391510062808178
Ni 6.535260118104595 1.3293632953873615 11.230374933655076 -0.4552896622489256 0.8965979226170945 -0.4600762850042915
Ni 2.8623285987977343 3.462955949382461 13.797203323312841 1.6423289110465715 2.5755064325599126 -2.2171116211575237
Ni 0.4829371518808491 2.877101944518415 0.5824522351089164 -0.9027186908028518 0.21872580281312007 0.5804903020186907
Ni 8.148275456440615 9.127168949483268 2.9175046193058436 -2.2511849086921485 -1.2352556606018725 1.6027346936937172
Ni 7.173063408854435 7.146950830616657 7.07910569109322 0.2434161064709485 -0.7146548358499628 0.2953441627988075
Ni 6.928718168557324 3.081445949300096 1.7564309451741142 0.5670611730969782 -0.8743388541085781 -0.3329907695069878
Ni 6.233980895748066 2.509756472303464 7.224362971937446 0.15815241210543732 -0.13117228397216765 -0.4366905590904995
Ni 0.9292310792181931 0.6870499961338671 13.104580741265789 1.4926354283417649 0.1084974680824712 0.6826284035420374
Ni 0.946122920812664 3.0897315797719003 12.293291949393842 0.02980551339720673 -0.26031442488818396 -0.9727306012156149
Ni 1.8792875341296993 2.8714513538177813 4.776589864763933 -0.8512338926599985 -2.0138625738237637 -0.17813322610273838
Ni 1.254554801667184 7.383571694400444 12.040103629778027 0.47216586917897396 0.6849033156191431 1.7161185433342123
Ni 6.004504128961209 9.192122204203688 7.279706417355204 -0.21502264292992002 0.8819981704260487 0.0016259656391971998
Ni 7.121123635747597 6.824496162301187 4.463324540921211 0.8020630873623026 0.0015665731561714956 -0.6309284040645843
Ni 4.601578513897076 1.8812091154790729 1.384233955690942 -0.16508616311079308 -0.6432828118648791 -0.6740648302427423
Ni 6.852282989635448 5.576010513608757 2.191452229447062 -0.487272128692793 -0.37703556643202807 0.3340539206641795
Ni 8.1846332976154 0.8690351652543183 0.9671870672578051 -0.523574305557937 0.6577092717028543 -0.9250178685206842
P 5.353154640976179 1.234130865245869 8.846146238638408 0.6249536745383882 0.3866592055647212 0.47803826879935085
P 0.45109217304340427 7.969977440444011 7.251652280932243 -0.10962078305363702 0.7544480565875007 -0.3483996478628903
P 7.526634377139222 7.477586488835402 1.5123625267446605 -1.5052808850199173 0.44170086782089735 0.6138503655363751
P 9.398549507577016 5.456530009905117 0.1253498883202924 1.3502145680389712 0.2365692587524442 -0.10053784691576234
P 7.618974922477696 3.608920029703214 11.08101003485709 0.36806575883325 0.09098362756842396 -0.2200820597306984
P 3.790804363366718 2.339753599557623 11.765543900956752 -0.601399541367532 1.1371634470131256 -0.4287803031044874
P 2.823858920694428 6.196662263898593 9.676675577229382 0.08163509647398845 0.15828173859444997 1.3054611750826808
P 7.114436152140619 7.330319157797499 9.540522977125184 2.264146611059139 -3.7373439852809507 -0.5937867620172806
Ni 2.342702561034385 3.332773569351862 2.261108602083968 -0.46414325598481354 -0.587921047265123 1.3179503086886268
Ni 8.722989997145667 1.3653691637407277 5.607968694515794 -0.3058064957827121 -1.1892560539433068 -0.6932064361681997
Ni 3.0158648511684953 9.287021687081674 1.127943518857154 0.578587428569023 -0.18959957487112505 -0.7561889505380074
Ni 0.1532784560610184 7.087924037186633 10.234719924089665 -0.4454186829921168 0.2104648483559085 -3.3701991956000734
Ni 5.800274277527016 8.74155894167031 9.750062861773339 -1.8266842067996218 2.5001108892377335 0.06904903227886172
Ni 1.0657451649227683 8.368058701469987 5.117644869774605 -0.9502946408096021 1.4047659209222905 0.33015175739629593
Ni 3.8149097452445067 3.62416901437176 5.70111306967616 0.9447456859669149 0.8317796405901288 1.164551094997459
Ni 9.485553383920447 5.174571241610857 11.575746837756569 1.1001773567070794 -2.825987673407759 0.026203140757929063
Ni 4.172238261217425 5.353896637734848 12.78814005180712 2.9499279584078617 0.12819468940108245 0.1797108550025034
Ni 4.926516017520401 5.28904802358296 4.209607310795372 0.9873262396416027 -0.31533320432622464 0.7668389740526859
Ni 8.262133907780495 2.2854070933745896 12.878277437539085 -0.405847605567714 -1.0587404297185314 -0.34529041280994727
Ni 3.6862874609629044 9.303887844172962 8.526531134841688 0.42980128816983393 0.20762429358331985 0.8522209391636162
Ni 1.3785253370386683 4.751823344748613 6.463462418924401 0.37396772613998175 -3.215417242628766 -0.6484008498177349
Ni 9.344231539730854 6.414733208715652 5.862563002861496 -0.7689002274570887 -0.10684476297039662 -0.884390067696993
Ni 4.692092605675749 9.082316196699617 3.2273729297829155 0.0868714051722633 -0.530134732384274 -1.5468152568182778
Ni 2.334673775594427 6.1421730660312 0.02863346466146165 -2.3385155128890176 0.18068170355620494 0.101838825115373
Ni 1.084323622226368 0.2309845422515884 8.366835358096079 -0.2502570406521819 -0.022198390473910156 0.891612039366729
Ni 2.4197085066936976 0.46610619207170484 10.476352119828157 2.3719956469243346 1.317182577284667 0.3290973479898526
Ni 8.166825375407344 0.7681492905785046 8.016131541389022 -0.3620288086105507 0.3288258394960208 -0.2582014923102392
Ni 6.021161004915435 8.918344425812702 0.9273408900393785 -0.6802388202639381 0.48742973731657985 0.4485130056467243
Ni 0.5683619069173692 0.24374498394490554 2.205723300438798 2.0133393543304425 1.0736168326097315 -1.6690133623162933
Ni 4.728754855777169 3.6619537723901403 10.141728704670514 -0.4737635526833969 -1.3210135209949831 0.7495045965392964
Ni 6.763462172511174 4.011890859113239 8.980140389197194 0.5743013995991593 0.49054000081078747 0.16268115321372628
Ni 5.8581214863663345 8.781940688344031 12.274761055985028 -0.3471349222178538 0.8459451334572334 -0.48113053457142946
P 1.5474722913202497 2.363706776972095 7.7990175821350665 0.43256830939200985 0.9929659544258833 0.9415364350009977
P 5.433670802070734 5.033059141842118 7.195751386667587 -0.23998548352284474 -1.2405523902244375 1.171249847173873
P 4.123685037419385 1.241712550074834 5.209536411946295 0.05232811997975504 0.3035259272786514 0.2796138965477442
P 0.4512358160056595 1.637567820824802 3.776074776429241 0.04033520928393699 -0.2998592770603416 0.8760159847006849
P 8.384677526308383 2.9979332628339916 6.980628452049394 -0.37742997365696934 0.8251263969396693 1.5164584989032917
P 3.032008037059027 8.375079132340472 12.731682659973464 0.5624781817119862 -0.07616250339519141 1.3569328605994113
P 0.5680841337718162 0.0739628076708739 11.00184468837447 -1.5607884311689184 -0.8628632493688108 0.655713067208432
P 1.7081906918037693 8.012299794025022 2.298283590971186 -2.0856202632830407 0.32385178332019715 -3.1931422332806494
Ni 4.619976228400486 7.014475870857349 7.399735808404682 -0.025781994060110433 -0.7548069825888162 0.5810271483587671
Ni 2.204101371626579 3.3780353716306775 10.361627054325268 0.8635289079772677 -0.554548128231632 -1.140093733286043
Ni 8.457402721436914 9.259834164821722 12.65610933882512 -1.4983445629114003 -0.47239521158096065 0.36134335250775185
Ni 8.037527683819771 6.6391111259813975 11.793208964720362 -2.6341625516402245 2.6870077204657146 0.24919234683309344
Ni 9.051903842373141 3.2536938378798586 2.717376678158037 0.5214253775357344 0.44591079213718693 -0.5343559695544733
Ni 1.1143174142787229 5.782304638076684 2.213868141782035 -0.3849010852230339 0.3868299268146306 -2.12496842606336
Ni 2.1714630270240955 4.952638108537136 4.262179683702869 -0.8059007159408379 0.5284426893938319 -1.9469843239439757
Ni 3.8492223389434743 8.023344130394443 10.722885299285446 -0.8768834749073027 -1.2402682833251155 0.36588932000722146
Ni 8.138401191882942 9.036245808209431 10.386479189351205 -0.7692763798495847 -1.5952221873667558 -0.5251089970349085
Ni 3.4081623425884344 5.365207331915072 2.081029793866559 0.32457966262515714 -1.1303451385397112 -0.0057677557217126465
Ni 8.789722141531099 1.6336866070102252 10.165829330158823 -0.2850080709801221 -0.22876313244446408 1.423314373348439
Ni 2.6635400569271153 0.4948271742995736 3.7609551655545137 -1.2927498981635994 0.42229135294603404 -0.004921605671333459
Ni 6.275722969812682 6.934188016457769 13.353772742441642 0.6424130076654162 -1.599163431402691 1.0938987227872194
Ni 9.465538496994295 3.439012284746946 9.35277306395661 0.9334084065772247 1.9507065099905696 -1.168958222926219
Ni 3.0826350466697576 8.458249358764112 6.594184173521879 -0.9701546129583226 -1.279468607673661 -1.5729350938337814
Ni 6.973399691319745 4.747314287522854 5.761523972444469 -0.850383114623929 -0.044625866239490886 0.4602416069375622
Ni 2.072130589152008 0.9198276972189058 6.249758790926637 -0.21418060664459887 0.7759401650230057 -0.6170778713347372
Ni 6.330478525490879 0.9543410105538722 4.130037671207067 -0.30641019080498194 1.035769936965287 0.32837949598722155
Ni 5.4598024058664265 5.790190731832282 10.678902965776386 0.8421571271697108 1.1422745429874457 0.0032578448156653575
Ni 4.312637365848159 6.917359910482312 0.6568887791718636 0.9767232673147759 2.076809092749314 0.20446517912904788
Ni 1.756192174422286 6.339116128784104 7.766312648079883 0.4694261016503077 2.398882186902533 1.7136343434597778
Ni 5.213849505925533 8.112469356445352 5.303641577781347 -0.5646967866298598 -0.347601320331311 -0.3018837636895382
Ni 9.251301202097027 7.700366259236322 0.508719636688809 2.207319060547134 -0.11341727398159178 -0.5448632968437003
Ni 4.710290551821057 2.8871759774341923 3.5744571340967215 -0.553494490156137 -0.4081297167336713 0.1903333677133561
P 7.266916486047119 8.887513509212106 5.240472920393318 0.6698345942114786 0.03044957473910885 0.6491410704178691
P 2.3575805473235962 1.8043934253989058 0.7625386535494914 -0.5415401460077384 -3.1160998983836654 1.0399500364849057
P 3.2793878538435157 6.083840705465059 5.534608997030813 0.8149502277376158 0.7283932684819778 3.0897630602613497
P 4.622382961476682 6.875589298080825 2.9056983093419433 1.7560688584749047 2.33622877373737 -0.7546534877300873
P 9.364807680615487 5.543980986859541 3.784707623332987 -1.0062104781406156 1.2906073978992998 0.4756119187460453
P 5.1542995096528585 4.128469965234905 1.7057934715065306 -1.119221260712408 -0.19272192255019066 -1.0498726949152564
P 6.813385236479064 3.1872756152000163 4.092598227064837 0.820958895825541 -0.037806786435128435 -0.4011463434373027
P 6.261986516998347 1.1681597431770196 13.573169768645348 0.7113787362018522 -0.15836889899161757 -0.051833696841839756
