# total energy = -340893.94855521654 ev
CRYSTAL
PRIMVEC
9.04396877428386 0.00000000000000 0.00000000000000
0.00000000000000 9.04396877428386 0.00000000000000
0.00000000000000 0.00000000000000 13.23676247954402
PRIMCOORD
 96 1
Ni 6.78516516342978 2.008186117338262 11.509775108779351 -1.5763600603549304 -0.17970134192080664 0.5883895022611092
Ni 4.463677882478265 0.44926276262784504 5.933510910344926 -0.4596132293249439 -1.7924147440937905 0.11898936875273054
Ni 2.813207859025893 1.6121959479252288 4.63407167911737 0.03092522882394674 -0.09857455254180443 0.06717649784649722
Ni 3.47445763033191 4.178232142452819 4.884113899280209 -0.6573071511684293 0.184732733697127 0.24528324158667433
Ni 4.95805738734966 4.473436324702695 2.6864539245420636 0.23901463496914319 1.011358083779826 -0.013995028727511382
Ni 7.125697716790725 6.064984892091896 2.7145815715876607 0.02164380352202079 0.3629279233860524 -0.43827384441721945
Ni 5.233654245463704 4.703623415987393 11.5520800811549 -0.2943524883094995 -0.5002348595010482 0.44870532416318853
Ni 5.3913448836705244 8.028077781505221 12.410510075587801 0.9622196743819622 -0.44965997476697395 0.4657126573544624
Ni 1.7652470301903143 6.398056171277536 0.5374414574269104 1.9691405483260407 0.7084163111394186 -0.9862425196591209
Ni 2.836233803329321 1.6491224721164683 0.3198281958221237 0.05395665672211353 -0.1948428255479354 0.5069436389797914
Ni 0.5810578052635722 -0.1746381311487663 4.564962192316646 0.44180628305051006 0.9550159575446713 -0.0824496219554838
Ni 8.629664491314886 2.5209610545400474 1.4952113084282659 1.154109845059477 0.18317001719569745 -0.2998322804771481
Ni 7.035719272220889 0.6147502062486427 4.794196049300645 -1.2576772228301822 0.2806184265528587 -0.31959455070573994
Ni 0.6055289757648348 7.4000374632558374 2.4533944687990896 1.0785713484015296 0.6125573577565644 -0.5834190456297114
Ni 7.71038124910506 3.903168878491919 3.8300836630518447 0.2594556764323145 0.22712533973072496 -0.13175078218345695
Ni 7.637712960621933 4.024529894441525 12.858958881032885 0.24265043194951763 -0.21366818578455457 -0.6343302306572817
Ni 7.829743547972554 8.80366140508301 6.970069103446898 0.04811099657461392 0.6825957505318889 0.367226036540774
Ni 7.113967689390275 0.6858547925439998 0.5378927514649077 0.2562911626614038 -0.2635244471850494 -1.2998222316293484
Ni 1.662787908818149 6.4763950281338944 9.068055499171658 0.8676357310567896 0.6700955611823491 0.055946433458632684
Ni -0.03942175515483547 4.982584630456847 1.5281838095050282 0.4719175006135937 -0.27821727331053375 0.07266760286805549
Ni 5.933811170105677 1.9917803581212874 6.798506826052097 1.647517911446679 0.8302030401316283 0.6355507333279442
Ni 3.5598960026156807 4.319905912096651 0.5200670891624505 -0.7410232985411626 0.9948150918194804 -0.9207737485323497
Ni 5.982214490573841 5.559237118567944 4.857084190034469 -0.35256200677069605 0.350760434785583 0.3538478154616551
Ni 5.508093475584486 2.7008817678049297 9.2084052317982 0.0004221751390831439 0.5052382262529106 0.41242165924080587
P 0.23447664563784687 5.663649737178735 12.534181825539578 -0.7998095154414354 -1.7788904843551108 -0.5587536816725474
P 3.8519709716962773 6.228328010734554 12.583051814792524 0.12208523406923491 -0.2653093069996141 0.16874150047519326
P 2.4784724895999437 8.33656755377149 1.4983088677071048 -0.15987119456875692 0.9389499052207442 -0.11491519868335692
P 6.169641697857515 7.800974683546316 5.913682008976007 -0.5041946154797445 -0.5037333595726099 0.4086359669461285
P 4.994640240730401 1.1858180436891332 12.567326162021589 -0.4981116425104582 -0.5291921659653467 -0.7699872898736804
P 3.9722467114022026 5.966667908383113 8.36818888592487 -0.8541173848553806 1.199799633787108 -1.0410134447524135
P 4.864506575144375 0.9345856372457243 3.7183653265273424 0.10344113660548637 0.39276223313866554 0.3427681606087258
P 0.15863573293569283 5.799996609259833 3.6667550147591017 -0.3159767514474945 -1.7017861858719399 0.582260506545236
Ni 1.636940246281151 1.1337247839924545 2.5450189156718417 -0.35218868259167735 -0.354227567398577 -0.5905926805600151
Ni 1.9790645381328271 6.345402185521622 4.78829305093189 -0.3349743755959199 -0.18745553194492875 -0.5048875277817111
Ni 5.9886899721611355 5.434728801511664 9.36177918374578 0.43453905996513553 0.6957700831303179 -0.5609036381360146
Ni 8.775362827029033 2.292031074904279 10.393506088769632 0.6880539454329827 0.8588122192278886 -1.2950255815716534
Ni 2.13069571731243 5.157485941094706 7.006893430791857 1.90696381768698 0.12311341822343312 0.2706055224015469
Ni 0.6127144088948715 0.06603725063423745 9.089657922802125 -1.8961525860040893 0.3371652125996516 -0.5699852887223087
Ni 1.8016490041971078 1.4992006030206624 11.381074007834984 -1.5809309675550645 -1.6631227078634712 1.0943643495697282
Ni 4.150666125863326 6.83790054490397 1.8719161189910913 -0.11610973321209037 0.6718840205413396 -1.2213850732673674
Ni 5.439901951606543 7.656352580107152 8.095563875924773 0.04047764839907223 0.5807803224552837 0.2359154272185292
Ni 5.457320635317619 3.042427245659976 4.603136784188117 0.021098729651828182 -1.5074647800451133 -0.13977879469425605
Ni 0.49490676824645047 7.239832601751155 6.581093436155522 0.22993169883126854 0.12711739717650364 0.9266435770495655
Ni 5.0881096572174105 4.526949487484856 7.147216031512306 -0.2239338293766208 -0.616313482364887 -0.24845881110117854
Ni 8.140349608914 7.283741069776742 9.039027977240675 -0.4644309624285615 -0.4517407685554026 0.2665825172850828
Ni 4.590148740741868 0.3144714531626892 10.38552388199736 0.3005146512561534 0.20239621241516115 0.1536414116089612
Ni 7.944185927868695 7.328572022609457 4.768557302440555 -0.3835625689172684 -1.172353621761013 -0.07853331762021314
Ni 7.134994916611591 5.999515602691852 7.046074616379343 0.3388066048578165 0.37118142164409623 -0.35817138253767344
Ni 2.367014619373925 5.211514610092615 2.4974856249923616 -0.08148314427715646 -0.12023403979310907 1.0727048623184234
Ni 2.300758504697212 5.3871484821949585 11.15009285609866 -0.3316864488732675 -0.6287051711610205 1.358655242607157
Ni 1.1119107314944703 3.457265045838266 3.6967629028968765 0.026430683387702866 -0.3581474712782735 0.09318320632290403
Ni 3.80504181812578 2.525682006200059 2.4960033185228676 -0.40634819935321637 -0.39850839159382334 0.19536501659999256
Ni 1.2047018503291789 3.246187860411047 8.130337031169175 -1.7133540932151976 0.013358680695093121 0.640105185467846
Ni 3.3492891035607237 2.835175658991732 7.217464153972025 2.0396949615058353 -0.8682702793169951 0.46884451811522476
Ni 3.925715492454388 6.708038198378865 6.1783646056661 0.9545850406548398 0.7754781377849225 0.14878973994361472
Ni 0.7516306724828841 7.2802410538908715 11.281851722859598 -0.6846567468259757 -0.17000956855433944 0.08063082357919016
P 0.14759666474371957 5.507568925400041 7.8612735360420904 -0.13086555136502623 0.5075337071553065 0.6500124172792289
P 8.360796345911664 1.6403046026365617 8.175659975899025 0.8747528017175451 0.6399689170002978 -1.1134301079519275
P 1.9283007418346576 3.3619687476743945 10.197548610210626 -0.7492695977103547 0.074010232938879 1.1380173103729885
P 4.019790854844119 6.063564989006414 3.925852056381718 -0.2551213107230187 0.3611602899626683 0.004193212145741166
P 7.084936549871813 3.9100242067645032 10.469206819956979 -0.09310427345585257 0.27067854173132744 0.1556173043884094
P 6.486460965294034 7.838489065702881 10.43927851874374 -1.204526606949132 -0.19411211802949796 -1.1083442087885877
P 2.2226186151521943 8.327812992072465 5.877148897423102 1.084768735461493 0.564581344097918 0.1558067946913962
P 6.872828352013098 3.9982119455322653 1.7984917547248664 0.37591739366718485 0.3126196620498035 -0.9445392263830636
Ni 5.373989507740329 2.9677150202512506 0.47989378020886597 0.8014532216924455 -0.4330678747362477 -0.21286703003949792
Ni 1.2770445559392019 1.0844622864980433 6.955879116560771 -0.21867720896337176 -0.16453697547554244 -0.7191185280482711
Ni 6.77275683837703 0.5824623336022691 9.100790143871679 -0.1294146778511126 -0.42874559321181 0.7523214971628011
Ni 2.6812834876377942 1.504030082305042 9.258784659426732 1.0902194741634192 0.08333382433265002 -1.2514196719562447
Ni 6.56457372293296 1.9432685100287554 2.546474994632113 -0.5680883288099119 -0.20026708188730025 0.9382276823427391
Ni 4.071468091980719 6.946274421804196 10.39035517007548 0.17523482150902078 0.13549456549660535 -0.1853513411177324
Ni 8.030555828928293 7.154213350093437 0.3003511048355322 0.2244591057524715 0.5809163338125156 0.6333385561679739
Ni 7.793287310153577 3.8914840709349554 8.157155111547397 -0.9262293723302824 -1.5219642592128693 -0.17337308570993368
Ni 3.0501507949275046 8.540147289148614 12.325729199828327 -0.278171764784579 -0.5949345024684787 0.33594548125993756
Ni -0.015449811725665978 5.038458269069014 10.017555545196165 -0.06128430073177833 -1.037055231435614 0.9415156090653914
Ni 8.477725817199573 2.3972576506978305 5.549367435528538 0.9579218183375567 -0.4845624430711139 1.205092506754931
Ni 3.8119785421166394 2.672565101813558 11.491984717954812 0.6966360306750389 0.7547846139913129 -0.17081920893982838
Ni 1.2047018503291789 3.5568120092898883 12.568054201501726 -0.48226901905124686 0.2344900076259123 0.4688753713531602
Ni 2.747829009312822 8.360959137348216 8.062657395819501 1.7206493413250301 -0.06581946959797051 -0.6089701546259383
Ni 5.622608207230207 7.762619212300896 3.672605558109411 -0.6122071735059973 0.7918817759539266 0.29247815410492206
Ni 3.1257674172059646 8.305845192106625 3.827185071084347 0.283900182627924 0.2515937571857344 -0.5449124049140809
Ni 3.750886533566108 4.267062002998093 9.569689171335192 0.09054628292068923 -0.5132639247708645 -0.5994676144521417
Ni 7.241487648022769 6.146760457053245 11.496670398136906 0.42772100860203754 -0.38239091720667046 -0.24520610849183577
Ni 0.7335644406130777 -0.20176913284391668 0.12011747025372164 0.11722867730788199 0.8205606319458578 0.23454117257882187
Ni 4.824215694597725 0.5180936951926908 1.3975237849408173 -0.9486046547016889 -1.3297542433020906 0.5472485092464253
Ni 5.912376964292981 5.583248855459383 0.5338754205695492 -0.3915746405884675 0.8062781538849148 -0.43183425943946274
Ni 8.142691996806612 8.890944746981038 11.330482951338935 -0.046493772686165086 0.872223093317156 0.2737078154759544
Ni 0.2258016708633583 4.873785687027846 5.728552874138326 -1.3997769523481312 -1.1020720026266309 -0.7729929094692236
Ni 7.748790984162663 8.624373769626942 2.668557719283767 -0.33408528812274724 0.6705470468974709 -0.3454048269006245
P 8.699637677126205 1.550814532376382 3.464814950906806 -0.6469047248881826 -0.09513878738737809 0.6204874112369185
P 1.882456864507841 3.276503243484531 1.5052184597918725 -0.3259675441116192 -0.21005887116674146 0.502068313165361
P 4.688881747010729 0.8993033065636614 8.198890313895012 -0.913744095379078 -0.04466006191153599 0.02258791260284497
P 8.756958350729947 1.7251460729863086 12.646812698505641 0.2826256867908745 -0.3992668670264027 -0.710786354033492
P 6.195751635486736 7.760050725190852 1.2858452418785835 0.2515297367170184 -0.5994676144521417 1.0396337907960675
P 1.7933104650581602 3.013558897578067 5.891431132789942 -1.682501112390083 1.1463667107789484 -0.8020276061386767
P 6.89913725695366 3.860110543523883 6.006352843027042 0.13176235214768275 1.0614413735894623 0.08014051420633295
P 2.128534208793766 8.507435254370336 10.269504233960404 2.900332663978237 0.2587784478596317 0.8645846029352917
