# total energy = -340886.82612855383 ev
CRYSTAL
PRIMVEC
9.13477314159545 0.00000000000000 0.00000000000000

0.00000000000000 9.13477314159545 0.00000000000000

0.00000000000000 0.00000000000000 13.36966384974089

PRIMCOORD
 96 1
Ni 0.3299671787409243 2.8401287691207253 2.933544610300396 0.8934652905253838 -0.4034258835000988 1.7858579168118793
Ni 3.3111267925761942 5.87977924705847 6.411528990899365 -0.7522901297042335 -0.6988538642619642 -0.6658650680407694
Ni 2.5675197426475855 8.692741201692343 1.9367161758175762 1.1818237660349775 -0.5227374114789385 0.21184218831940935
Ni 5.193182314551664 2.177939949696928 8.776849622804546 0.4374346363453757 0.2614259127848078 -1.7380590521610455
Ni 7.422158240219689 8.041441031518152 7.383904551912161 -0.09460991146710158 -0.541585654533693 -0.11605831114886464
Ni 2.256498996296432 8.580200800052124 6.32004058679324 0.934018786467714 -0.5236493817702466 -0.6411238565403474
Ni 1.5389351837928449 4.438841906512077 9.695625990581615 -1.1605759123997947 -0.03360946052432921 0.05400782167502312
Ni 2.902318302754379 3.2504353616916473 3.3555181347686305 -1.375856951197424 1.0818744446328334 -0.31659535886809986
Ni 6.996094164464564 3.701546984630009 8.361842276119658 -0.4902525514773557 1.3533060624801017 -1.3746760435154455
Ni 8.837381195164035 5.914938987798178 0.10969035250777279 -0.9287824777694391 0.7610025698765668 -1.0938668411080195
Ni 4.705595543581695 7.661717658483874 2.89632406480338 -0.5921556541717609 -0.32786861778907406 0.13692204197175128
Ni 5.793610934666247 8.79757185503838 0.7892233651616256 -0.1425293608561997 0.10147475690773491 0.11631362169278033
Ni 3.9038730687151744 1.6928287021721296 2.1186370042871627 2.169226881661103 -0.13229097095764314 -1.4576637973625863
Ni 0.5622032496029213 8.312798594109417 12.925937447661784 0.46667862081215755 0.19503205874060606 -0.6474425996695237
Ni 6.171023210166841 6.062456434720899 0.7148133323953185 3.1857443981546814 4.021906741193538 0.9888257070052647
Ni 4.987302803823801 7.512629030629164 7.157408772315643 -1.5041184892807 0.33285115860533 1.343127322174887
Ni 5.681700832353395 8.994380536315859 5.278329359338095 0.624411428881673 1.254217032195724 0.017151572078622074
Ni 7.058512067419728 4.111424242876492 13.016516941868298 0.09679046405818814 -1.6665245344561688 1.0112693807207616
Ni 2.865212855395404 5.983504592888397 10.917921629236869 0.9592518500028899 -1.7503797785099275 0.006444984294395352
Ni 9.077963707988587 3.1683776970866067 7.63524143282527 2.3921893482633902 -0.04983594968552062 -0.352058070551084
Ni 8.248078728393429 4.9632235425637665 6.228832620213931 -1.5876713716026916 -0.000852320697966274 0.4857513211728925
Ni 5.009874827561868 2.415955591347705 4.527396221575438 0.4625188330075131 0.11404179493946812 -0.5683881194385179
Ni 0.4313796000825959 7.1083605229189715 6.075509111661135 0.3291300010000009 0.05934851716164618 1.1353639319105413
Ni 1.7285456640563226 1.9347357570614396 5.225479217476921 -0.2301931800227713 0.6878734539910605 0.10548670628060543
P 7.802941246905774 7.849437240765247 0.8523857521049131 1.183858279966503 -0.026720446713979787 -0.3087630073078747
P 0.9655820304365103 5.386519782142188 2.838405950959252 1.5710535605403524 -1.9253711165495744 -0.6498316687269905
P 8.069119393285186 8.023664763531798 9.623897927127121 0.11107808432545387 0.17360782742855907 1.0385076476114246
P 4.0904782087075775 7.249958637028148 9.60681133449173 0.21792516128869563 0.7813147990713576 0.22838826560354858
P 1.1920421844188716 5.477017976870244 7.259179276753443 -0.3952078664656806 -1.2302342961278814 0.8864369229236927
P 5.617848770059147 0.4903482128056702 11.994045373011742 0.5923708555063605 1.0195082236907862 0.6501615412625834
P 3.779621888267912 3.498828105311847 9.875662315410098 -1.3824227773403999 0.8730283628272705 -0.0034787025772198155
P 7.858809517720026 8.18311222381021 5.215038172097475 0.1881805830364114 0.6754136309611529 -0.1654214349630248
Ni 7.002397157738246 3.628432262655308 3.803268161294363 -0.004480918589489057 -0.5359338555645544 1.4762068504720962
Ni 2.278294564341364 6.9901291577867175 8.473866563093264 -0.23907042790774313 -0.7377124890003747 -0.026667224878541167
Ni 1.971932552149019 1.9602217733419767 9.54753031253683 -0.7436769341139257 0.04230081765074005 -0.20378795055636517
Ni 6.839770796504411 2.1420585619012478 11.176865035510838 0.5192000877496413 -0.6722655722504745 0.026520671998347872
Ni 7.049934515703806 7.776633101067801 3.22314522777118 0.7555752282134084 1.424031968240754 -1.5658339640126258
Ni 8.501312901629644 6.066932473422499 8.592883518691513 -0.09304822340693651 -0.4079345700037297 -0.5159995785344726
Ni 5.457442158630392 4.3243283939340085 1.730863155931008 -1.0241891741062232 -2.3130677622398745 1.4601497970092336
Ni 5.136720283501486 2.4891890653695916 13.024539099394307 -0.14960940763143268 -0.03519017474788778 0.16364840222300203
Ni 3.8592222989735023 1.7715704442288418 6.578315327693828 -0.018645897235961436 -0.3028533266916591 0.1883819004139401
Ni 7.694721592828526 0.9722321450788869 8.804644909664193 0.2439367548611089 0.8005960158984728 -1.0308794416422054
Ni 1.0268489520112631 7.115741419390181 1.7115979199684086 -1.1989683961350641 0.04658427551744235 0.15226612852798938
Ni 9.007525474461985 0.9689344920762798 6.5051165658088115 -1.1491944100357305 -0.7641747969569612 -0.724188743482327
Ni 0.0008513608305899754 2.995365099110489 11.990168575409786 0.6074586030774183 -0.405212028866244 0.42352291136028997
Ni 4.104682780505511 1.55160511375023 10.64957854168954 -0.48966659706689863 -1.011624450067335 2.235321973517963
Ni 1.3944778857783613 4.260832587781317 0.9406093883907283 -0.01641803634670721 -0.2575736289182532 -0.4212667683362616
Ni 4.538356122053355 5.112668426560033 4.11900610435063 -0.24922937071861595 0.0750553863739417 -0.6949375599266935
Ni 4.356427985765481 5.455989729745586 13.061172278996398 -1.8815998850008953 -2.1246519232642056 -1.2898152410153076
Ni 6.723138016622729 2.1054737965953154 1.7720819915090245 0.23768948839981646 0.1618236903094374 -0.7912269159787471
Ni 6.1788425757353505 6.679501206668562 5.209127974056791 0.10029179234322727 -1.1722844590859745 0.6405047348991098
Ni 0.5879961942515678 6.78034909904746 10.617357457379024 -1.0570555858169408 0.03713290029655541 0.44499239408797553
Ni 0.5654543152639403 8.820116474457866 4.338321952478867 0.9530709180031587 -1.2252054754547221 -0.02391485894438462
Ni 6.189137464749029 6.616982821211934 9.83197069681877 0.479460088847542 -0.09483308322150119 -0.6657573388183116
Ni 2.7634606205033254 3.798877989457651 7.723253142380723 -0.5254452973284048 -0.8358227003112509 -0.8372308935126871
Ni 2.3369854799694822 6.69852893853679 4.032330812064654 -0.8805943480999867 0.6925163520797105 0.6009233730620618
P 3.982048454854541 7.320058883958915 0.7270822458241318 0.9775650464897812 1.1822274292312995 0.8686706000792073
P 6.547887399295812 5.679745990961267 3.29187891268203 -0.3072949074027804 -0.6425073671514354 -1.040076534760441
P 1.6138037821567444 1.0626207225326187 3.1807635356080337 1.077456518070796 0.9948731987509252 -0.48580737122180845
P 0.9978095090880277 4.981611840331767 11.974592874205504 0.43803730292638104 0.4852095897368095 -0.6452977854123789
P 5.757537716640497 0.3608628075093944 7.559649360450825 -0.6456865362103654 1.7178270413848866 -0.3994463300270605
P 3.199006590487553 3.75044542375177 5.396223651351799 0.9475828983053939 -0.12448792997345658 1.0287989049640927
P 1.7106871831142259 1.0858139108251932 12.024221181678811 0.048818307054283666 -0.2848682029681481 -0.44240226476329614
P 5.713224933494661 0.6761832914459415 3.110452275424191 -0.4436708470630746 -0.05853219190793791 -0.3160538845423331
Ni 3.544383217566699 0.4684448544409852 13.068498366830445 0.4437783191752164 -0.5431915655682322 -0.3632094591822132
Ni 0.990976698988443 4.60616354099616 4.908604908676819 1.961084510790784 -1.642571623184997 0.4895539827484343
Ni 4.690989041777903 7.686609914528485 11.916408024993853 -0.40223494851579117 -0.8054104065679807 -0.4677219744750074
Ni 5.7927339964716476 0.03259652347507798 9.739372417810104 -0.5087606375838721 -1.725169854903203 1.040904429978375
Ni 2.3842579295220907 8.224437936230695 10.769424021186227 -0.07247168480716551 2.334149265500522 0.6483378577902834
Ni 7.142908233877032 7.790052082399739 11.849973562411968 0.9966948253406964 0.22566983823112105 0.1281275836085729
Ni 3.6236456416764544 0.4532592080378438 4.16324672279087 -1.1677976269592145 -0.2177816937322959 0.3658247853178732
Ni 1.868289419274836 1.5403328040404871 0.9497825272971494 -1.4614646591659153 2.193095203638268 -0.9365533799641096
Ni 7.880778646449306 4.892346839939865 10.95159970981862 2.670274466871433 0.274284771025347 -1.1042720956017433
Ni 9.079808932106388 0.7934829097464337 10.775360710068206 0.48887264041069356 -0.8721834983284721 -0.5165495375006717
Ni 4.486342725386195 5.204116637665572 8.632670935362304 1.5940839599972544e-05 0.8050396534921233 -0.2096544366394712
Ni 7.81383903092824 1.1058921415723688 3.796931369361098 -0.7123531842999796 0.08142735133855654 1.2465618296433112
Ni 5.371958954202698 4.282408921277599 6.156422189226766 0.14275664637565738 -0.7276972708562177 0.7766384766416109
Ni 6.659130663189854 2.075886267300456 6.488257429017644 -0.0927134657753371 0.25989456374194597 -0.1532446903911748
Ni 0.664696314573979 8.731180325888937 8.321292105915022 -0.4609759140004255 -1.0350153181874495 1.156637496577337
Ni 8.187825766606181 4.596919150861428 2.0332981292706642 -0.7044652969114708 1.2054951415099884 -0.6485407178297089
Ni 3.410430908341684 0.11938508694452324 8.717501917007764 0.7574390208950246 -0.26480691344189883 -0.9150666708452434
Ni 2.2539686642140992 6.758854978506922 13.065463795286218 -0.562883901790837 -0.47418444227089945 -0.35148779986991074
Ni 8.060350011339196 0.7483141983835769 12.93236832775551 -1.778143578886757 1.3569117775534887 1.1125983560792516
Ni 9.109579156858457 0.2587031617477416 1.8123919171874305 -0.7908456213799283 0.2992748653117814 0.5264624257390095
Ni 8.720054172544963 6.187173488584041 4.087654650416426 -2.5928719204215542 1.213122833258575 -0.1396962622827788
Ni 3.2040855241979393 5.744785573727369 2.092205539015574 -0.06400118544230914 -1.0941558331033479 -1.14330298425196
Ni 2.6858059164170016 3.223844037895001 11.94548674744039 -0.3488830152572121 0.40822613310221956 0.29330553510222385
Ni 5.903739756271319 3.9916491011308293 10.258048474733185 -2.05040103506943 0.8714833869376539 1.4691345170063472
P 6.261868526263594 5.797949951774941 7.392367918967327 2.049093629111916 -0.796669427150557 0.580832772959774
P 8.78971595037843 2.7657351789455666 0.9818172622413124 -1.3595751833182648 -1.3644906183420114 -2.333531686521181
P 6.22074377884604 5.743789883485584 11.906834783036146 -0.9517470569854125 0.16254591318744266 -0.4107542988407119
P 8.56419667800069 2.8327844117409575 9.671561344958157 0.2680832702003254 -0.050846393227905975 1.6691552872107962
P 8.54359776520047 2.8118657818906243 5.407921641476837 -0.262841819295728 0.49536596144452105 -0.9456638269058101
P 3.872422045756791 7.597911270053928 5.1358223353293075 1.1650969401985998 0.1534586061741938 0.16141565623774137
P 3.4961607516366078 3.6023616209117053 0.7969038821826563 0.6017291567928088 -0.42833241693379137 0.43927246088506283
P 1.7944073763798605 1.15680936549628 7.432410195800924 1.1714295672848472 2.1363319307052953 0.8426014137959811
