# total energy = -381169.5032062075 ev
CRYSTAL
PRIMVEC
9.23090955933255 0.00000000000000 0.00000000000000

0.00000000000000 9.23090955933255 0.00000000000000

0.00000000000000 0.00000000000000 13.51036921471858

PRIMCOORD
 96 1
Ni 0.6924926798556075 1.3829471748842965 2.995789228826216 -0.8390478921167679 1.2462129309443248 -0.05727466535175297
Ni 2.6516433823647407 1.4178769365919943 4.265452835626683 0.7653467057778754 -0.5059416800778384 0.3898301470935351
Ni 6.732019250943107 6.9650627932455755 7.1390682073889735 0.6946583381233777 -1.7677763767198198 0.1917284482886698
Ni 6.790487831983423 5.6524089945251585 0.285938500161203 1.0740269235639566 -0.8571638849911882 -1.166768928584384
Ni 1.4765209049136132 1.8574620799012658 10.722909759328399 -1.7712126560948789 0.9279499545658147 -0.2164616893692917
Ni 3.007033399739574 4.923397913429639 7.618321338273955 -1.5238825592815046 2.5826677261950426 -1.1099514053747077
Ni 0.3146715522932197 5.119056272086185 5.18745454252105 0.3545561543825894 -0.06990520963156992 -0.05733611471730771
Ni 8.854906903820892 0.9574022449887168 12.70269246775531 0.12904469610620356 3.0773281769321064 -2.4942356614038785
Ni 6.452027302708991 2.1370478681155243 0.23712175813821418 -0.4538105066002378 -0.020029407847049374 -1.2890989316745733
Ni 7.935434466141088 1.236526487725865 8.722820896090548 0.25167551826626333 1.8094855835331483 1.5421181084529247
Ni 4.567832508773504 6.732794647344652 8.167504147486854 0.220681126767278 -0.8600815728586155 2.205665584104111
Ni -0.05995568056756573 4.111576342831014 9.94302344338198 0.9989622812186343 0.283006467169061 -1.5328659937270375
Ni 6.869679804945987 1.6275662777526883 2.537003793669162 0.10269654512997799 -0.6982308859659847 2.3271612642184634
Ni 3.768001889670201 2.0383232905616584 11.397982789786916 1.3800769028160427 1.7976572234396526 -0.4596448538938277
Ni 5.208319167359292 4.439845947970854 7.122518109670757 0.22638126247584883 1.131132153217381 -0.38646637282762475
Ni 5.794805005123189 8.397367641452034 2.165347067499057 1.278715017337088 -0.027858674083481055 -0.5486250778789777
Ni 8.770204077861631 7.514929612855552 6.266447251090624 -1.6379526363557466 -1.049550278578831 -2.6364739733822207
Ni 8.312194039106123 3.5424169222778326 2.9892094365045336 -0.3303654160689988 1.790722186882716 -0.1927481478024358
Ni 0.5588244942297302 0.30414923850606196 5.11099953423775 -0.28295195978204174 0.6403664095490327 0.3725114533094294
Ni 6.7313823181846955 0.05843996522073592 7.345465806206918 -0.8605153179619244 -0.45393520510356017 -0.2571666232878216
Ni 4.791672834262397 1.3822363948495469 1.8153885172988564 -1.5304779531108352 -0.7603978464130323 0.3224235355141028
Ni 3.0882561728014224 0.9319895510190306 9.439289940391074 0.5325582542241022 -0.6523024988649863 -1.5142594343694435
Ni 3.632196748485304 3.7662387859476403 2.857389278969005 1.5545725321661936 -0.8733623491279218 -0.2892519338581406
Ni 4.078243528474117 6.288815591093292 5.72631627177481 -1.0710305599397942 -2.098338482180657 -0.44115579395070476
P 5.962244473309219 3.169672794963657 4.053421612715132 0.5743525645520688 0.17282878317068945 -0.1129480476546571
Ni 5.021587098230058 8.141985298057433 6.427895858983763 -0.791490968273411 2.6799058193136105 -0.8679301223687568
P 5.524385510084339 3.154524872404901 12.02995670359288 -0.08753269290534603 0.24715886134283238 -0.012512530644713932
Ni 7.089763150251202 5.402879047780314 5.013643900568993 0.11232558357930979 -0.656158896496599 0.21703658803615525
P 8.850522221788344 7.0727782766935485 3.9217362264589206 -0.6559452378238961 -0.3830385780929984 -0.17687389977434054
P 3.270926641732087 8.261802503915234 5.1294548916854765 0.6697217227826983 1.6411883696842253 -0.09963976058152517
P 7.25669491841241 4.798476014595001 7.054007222139478 0.5893809196401011 0.31039385804307834 0.4439040461198032
Ni 2.7207736639263027 4.029633558824874 12.007097279202569 -0.693034943587342 -0.21957760929045408 0.04321510193489332
Ni 7.322769768915502 4.399765338738606 11.323540119783814 -1.349547623878934 0.6340299258080435 1.6767675523404155
Ni 4.7222194708668574 5.1753555893840835 11.834921431330436 0.6477177077077813 1.009672468547287 -0.016713456099938958
Ni 2.67928995644364 7.249328652597732 12.403897156783726 1.7804560290700175 -1.2792030127171001 -0.6819604309407352
Ni 8.508618563254672 2.277043842232582 1.147642059743988 1.8506872545824382 0.13581595339176608 -1.2304392130498358
Ni 6.516135969479595 5.880532462041632 9.22297557545194 -0.17182193917272987 0.15683729283843958 0.5017212142385875
Ni 6.991361654531313 3.8804989842610347 9.116621651161443 -0.08582933706099412 -3.6586342899838735 -1.7362713641330032
Ni 8.443826809177944 2.789728558206562 5.074440516995852 -0.27553124183793837 -0.21000822043446413 0.29931574585204584
Ni 6.2009650249801425 2.3381801561305955 7.102806425434336 0.7715950006804324 -0.035141580898139485 -0.3115701377393666
Ni 5.508711425681677 7.455168704479326 13.400448612231884 -1.6116170837850115 -0.11118375666538272 -0.0011174014338948498
Ni 4.951598342081072 0.43921129147281196 4.142293117423651 0.5714808994312288 0.6717716633331914 0.6944840173290427
Ni 1.7301493754951955 8.062036390512409 9.85145005145046 -0.5416424759135575 -0.43099196604382545 -0.2816944332258568
Ni 4.525056473954934 4.089708318125535 9.440559190453126 0.16157840706785076 1.0744717244108593 1.1109317670101062
Ni 4.40145459518483 2.5935071140679433 5.539886053387607 0.008563573299294927 0.44520322454720096 -1.457234937355284
Ni 8.94081897893018 4.695569835018516 0.35947561793821264 -0.6640994914999143 0.40973357088568146 0.9541587517506985
Ni 3.7279489731665802 8.031232845370075 3.038009562890346 -0.0505705138587 -0.30251496951563384 0.26102610624322786
Ni 6.113585235253644 3.8824743989030663 1.892032759227772 -0.8639963345319894 -0.45503075216058403 0.046910291398293405
Ni 8.366176398108928 8.962917776374214 2.7323778403118064 -1.3635732487340646 0.1253227671699261 1.5425289707380982
Ni 1.1307218025531292 0.8201340046413801 7.943029658512413 -0.4455642074310455 -0.08622811516130956 0.8828381498288409
Ni 8.466811773938032 7.476750570988998 1.101832748049849 0.28428147722674263 -1.4224132016904083 -1.1141333046665394
Ni 3.1472416847761027 0.6160432101180326 6.8163057628820125 0.9237711405977768 -0.11130511273459541 -0.90166351006546
Ni 7.2260482987322945 0.6611389725045592 5.198574096155588 -0.003113091707684961 0.32907420806140103 -0.9954010462299373
Ni 0.5349976705193946 5.63444564455603 2.298924790211421 -0.7896688274630077 1.7345448683601998 0.1321140790601467
Ni 8.658482379672344 9.160237698748356 10.526712315554589 0.7260941880351559 1.308163147394876 -1.031360752153998
Ni 1.420895444012295 7.360099567104173 5.304184009136984 1.5439906428852894 -1.0451043269923355 -0.6463933324694028
P 1.1741993864969074 6.6804553902403585 0.27799899486395374 -1.7990150230191275 -0.6454337967696111 0.9860381169577986
Ni 2.5271461053690425 5.959705973185112 3.5861649718711974 0.6451435192227019 -0.6184377277967413 0.725316429328867
P 8.673704149507437 1.356971395432536 6.7399449098760424 -0.5197374483103501 -0.0814278655591888 -1.4644103720578006
Ni 8.682048891733588 8.224952713022757 8.165869353406931 0.8941492039662859 0.5422109468225179 3.069626180302159
P 3.2541725409129874 6.414605195424898 10.249236713261679 0.9638060450324756 0.9173341267231815 0.2956220990505425
P 7.938212969913291 2.3447710255437286 10.589454807712947 0.5861228177141196 -0.21149843182674544 1.0281211621707775
P 2.468511367956966 4.341804457723111 5.22225784076802 0.8316569989693355 0.914613642468225 -0.7138750202611448
Ni 6.579118465286049 7.75279168993905 4.452598449503408 0.43744106410327893 -0.5943102386209184 -0.20669098313577303
Ni 2.745420192403986 0.12750563041550222 11.666447178184725 -1.3508892255084928 -0.6746847232149283 0.286839467761906
Ni 5.375186319153705 1.9340786291015546 9.38451833862241 0.7614633115630692 -0.17835048431986705 0.15582093575878325
Ni 1.5878825976307556 2.6329969450894897 6.148366379317713 0.22811881399224587 -0.48278272546287176 -0.2841356956774977
Ni 2.1898579016064703 4.696289845962808 9.85037003503402 -0.8713748863842476 -0.5173630345409025 -0.2312493892014275
Ni 1.4444711869830826 3.8257227670375995 3.1394987978521023 -0.7028609285388283 -1.932466332833459 1.1611852638490197
Ni 0.8306055484260557 5.983263254336816 7.921656410558396 -0.64395618378282 0.19058764981600726 0.23142088178228531
Ni 8.952671466782368 3.566472672544815 7.340791273614746 0.1071664079758735 0.05737211016156571 0.6593036127731677
Ni 4.684409665381992 0.48718155909078076 12.833323684141803 1.3352890570773905 0.21946833740609947 0.5469793147454386
Ni 2.6804438201364156 7.62660515649713 7.535367769672944 -1.745774161417116 0.2947250411575698 -0.3785697436883674
Ni 7.113191198669315 9.06486394135831 -0.1126050962324774 -0.32813472696626717 -0.4450857251327302 1.3219661147162394
Ni 0.10169139188073026 3.443535419261749 12.138769742185422 0.6587832214933235 -2.1941858655992856 0.21903407808215827
Ni 5.130954914486085 5.528345570277944 3.697679897686741 -1.384660408421667 -0.04437312679873648 -0.4148796338629952
Ni 3.0882377109823382 6.65800581823372 1.222026575016972 -0.030542648673547404 -0.45821660608773346 0.275604518278035
Ni 4.757832319880679 7.769490405300897 11.179938552399571 -0.12805867804385043 -0.0217769866657754 -0.33768149011443777
Ni 0.7146727093036139 0.26212644590613493 0.8735828170726466 0.7316570268349141 -0.7360695540803129 1.0759519085008116
Ni 6.4204022066174025 8.012909489928802 9.52037886526456 0.6554001639537036 2.1693328111113477 -0.1856930407278673
Ni 4.066871047918123 2.981491473036297 0.32181996864270207 0.7636248379907622 0.7792967402000643 -0.42463105682280416
Ni 8.571259515408062 6.929634562422599 10.14701639026418 0.7247268753739842 -2.1448834198197315 0.12651987280182084
Ni 2.0375663559791977 2.0190953059852483 13.26388561337357 -0.7787537232124008 -0.4707813301266215 0.375549725915121
Ni 6.559382780684818 0.6448787253459678 11.22726542562245 -0.7758522332948896 1.0269130007952894 -0.17324735876534678
Ni 3.0983363260215087 8.991967448703528 0.7314323486684385 -0.31414766865855576 0.27746676829775435 0.7964886785983186
Ni 0.5153164482844627 8.160133266217406 12.194540128366551 0.07040708896865294 -1.1413746568809955 0.9424157522821576
Ni 1.3910334516432667 8.042577633197444 2.7125175384317557 -0.5256191039021076 -0.05598217179257456 0.11754595143798466
Ni 2.1520757888502313 4.356324678432997 0.7477692123762303 -0.3295758302881679 0.3234260086366882 0.41039023063307384
P 7.330809891126761 7.554890220263751 11.759871367479457 -1.0727490852927977 0.33276734064227204 0.5583286783199868
Ni 0.8831432700855069 5.641461135808106 11.90362155250733 -0.28025204435237544 0.11551606549214945 -0.9873033568234674
P 1.6163230299302844 3.0494678909050834 8.420824305689727 -0.5901003143046288 0.09831512823283069 1.3086395728106623
Ni 3.562337225069908 2.857409586969998 7.6665666869962825 1.1172651654273016 -2.7624613707193393 0.9063138643532778
P 4.978377210663004 5.756339805060827 1.3832997956288087 0.5644856990603181 -0.29179424066402004 0.8903784240699439
P 2.580980769819173 1.5198231015760897 2.0746792277936263 0.3700586208935627 0.5232786286943891 -1.0890565642035697
P 4.844252095014787 9.219878605300533 8.619709790322226 -0.313698239825963 -0.6649849794286611 -0.9820593348157086
Ni 7.104061829132076 5.870452308821546 2.6743911127495927 2.0048637127592634 1.314864984895084 -0.4306646646113938
