# total energy = -381165.96656441555 ev
CRYSTAL
PRIMVEC
9.28387238525625 0.00000000000000 0.00000000000000

0.00000000000000 9.28387238525625 0.00000000000000

0.00000000000000 0.00000000000000 13.58788566402124

PRIMCOORD
 96 1
Ni 3.5022943843488363 0.30190409824786724 10.879656618449316 -0.8655490237310899 0.10210956227825639 -0.3337356180928123
Ni 2.9606082905805913 3.242838006770878 2.2498415303593085 -0.05837175507067366 0.4361362292489263 0.5734884167795606
Ni 5.63229319308362 1.3077262441632815 12.705733015110582 1.268341387412248 -0.7725846182872115 1.0288094464870539
Ni 3.799489702595002 5.140210828710266 11.242371936663947 0.5387654114760786 -0.7566733463735936 -0.5335067341803005
Ni 6.041971907427205 1.2346900212268017 8.248920091248936 0.956676633076546 1.3490827684273732 -0.6768303088030214
Ni 5.251403766565894 5.626397934209251 3.5279178717397963 0.42921944752443497 0.9058346107240143 -0.565871009443619
Ni 7.307270855439512 5.994447765414768 5.111817033841965 0.29534210591627846 0.011316196343767607 -1.395805626405209
Ni 2.055857805001375 0.7640450462499939 2.5346298817397934 0.07608357052813994 1.2423843012268538 0.9499544838613638
Ni 8.040771033622477 2.2825142619444554 5.06455841057568 -0.11907884314274331 -0.6439839516969619 -0.3377542523339022
Ni 1.4819009713161093 1.15024391930355 9.167121050933957 0.36276414411467844 -0.12650084663842728 1.4137239014465266
Ni 2.52477690812819 2.6695588957593586 10.980179601935946 1.3110808352623033 0.5259646601669845 -0.055642014844336424
Ni 7.49557563614634 1.9728321355313179 10.231256126795516 -0.6461012551502808 -0.36215916354082783 0.5140427119184179
Ni 6.590277402104781 8.013225784677195 8.423007550002678 1.084400553488797 0.02310213323510215 -0.4278493066497857
Ni 4.6557505234485 3.7776354673347416 13.25894967820476 -0.8508073466455411 -1.4250694083663327 -0.04637575905106207
Ni 6.617831934922306 2.6401011691319973 1.2460822608563116 -0.09292506756551093 -0.35696476382408204 -0.8555988544969136
Ni 1.690555999979816 2.3632468149704664 0.5148269229817278 -0.03166622075502933 -0.2551678476902379 -0.07127380784432241
Ni 7.758095691564522 4.79164784534302 0.4877375121635819 1.6639143505268312 -0.9436066872664652 -0.17391378870475208
Ni 7.176609637490101 3.8584701429554262 3.065263525602626 -0.4753964603011296 0.4524848458102788 0.9738490310907745
Ni 5.581463992552639 1.684140844259833 5.844652486772325 0.3661094064378276 -1.1570797263210784 1.3079595160245021
Ni 5.564288828902901 6.191275140840762 9.601389957687843 1.8173696142669156 -1.0679534636763672 3.1181125579383204
Ni 6.477961115707738 8.163457405315064 5.749360036907458 -0.22528134454345075 0.3427257374065646 0.6905263182328752
Ni 8.742334691289173 1.2476874423671438 2.804362577503641 -1.184165783904593 0.6093463070184345 -1.0681781780926636
Ni 5.377655145199831 2.982044751589913 11.156034709964775 -0.10547796452985705 0.49816203613241944 -1.513652139802748
Ni 1.1458062283713475 2.6455508021386978 4.085225008944284 0.6019021920355634 1.7221333820697244 0.2836626126958211
P 6.385521599783176 1.1265886128281275 3.191372860991245 0.6067219820217099 -0.09634592032160182 -0.7602672343724389
Ni 8.615322035131301 2.539185477849484 8.098393243473735 0.36643825053215595 0.5661828842570831 -0.3566703725121148
P 8.079150561475458 5.367842092238873 8.256230212253152 -0.2648009999046278 0.42941896512975075 -0.6812587768880203
Ni 6.226906642509786 8.027086605936146 2.662518935437414 0.9657788524881301 -0.6568448668200301 0.5794045251536796
P 3.582293511467642 1.573876293628516 12.586376768391595 -0.43413539676881363 1.767456017265924 0.451495485313816
P 3.6242937494954335 5.128550285172931 1.4392564325546464 0.3336991084279221 0.11537028394290454 1.0557607782649172
P 0.6352684543659327 4.309350682313895 12.072251706151446 -0.8868495849810791 -0.6342479553561207 -0.17504764519887916
Ni 0.6048619159953265 6.429211502559212 4.45925829581048 0.4669866389708796 -1.5415200698576097 1.1034835382621768
Ni 8.27832675657896 8.09535091853967 4.06321294785589 -0.43789974890725225 0.6427099700805448 -0.2993913362849876
Ni 0.7366501960350499 8.546333580492814 10.736889231094901 1.2120532543434803 -0.3551616491770722 -0.6753953761287077
Ni 1.68371378613665 6.703336398281271 6.82989600147368 0.5879061348667876 -2.2070470378326696 0.5397917958580638
Ni 8.417751949925858 6.038471887591554 2.772390778272848 -2.391785427956752 -1.0403225893329762 -0.9518694414958897
Ni 1.9383332662759527 3.342834594701324 8.528531755466668 0.11178642324638811 -1.4872582231902516 -0.14106768870900865
Ni 1.0382618523072595 4.177584683567556 6.519576073037441 0.03666907328625943 -0.05440737110628694 -0.9030429069114899
Ni 7.197062008041653 0.26641835337306025 1.18394901748213 -0.62244582051487 -0.34076115748102603 -0.6407888417984319
Ni 7.824484661974941 4.142807298144897 6.44791386319294 -0.1590777521331841 0.10179897301637308 0.2732149349999359
Ni 4.188548936686658 4.009379486267042 7.35240440034935 0.3832861753274302 -0.3735126408804342 -1.5884645569279483
Ni 8.146570041704862 3.212034118668267 12.262143100624622 -1.3392035616404483 -0.006017409838673508 0.3401757172912013
Ni 3.196223684238265 5.130249233793419 9.044558154742203 -0.24621218115884697 0.11959563487816179 0.6682027150350105
Ni 0.30603727817049603 2.874871730415549 10.371728540931437 0.28167617839341164 0.5097736522294188 -0.2183645628189594
Ni 8.192098151185032 4.947477640943479 10.322445105128931 -1.1716856491597112 -0.9295872330589215 1.8365744693301402
Ni 6.1721317962754885 5.797406860927181 7.203793743805126 0.774045261993138 -0.5016417671509037 -0.03749902538672252
Ni 2.775116523163423 0.992223129853719 4.850100961760035 1.3186748455594774 -3.4070099366705198 -0.8389275644888197
Ni 1.2694395550327306 5.704224635223171 2.0047565870136714 0.5009442268632469 -1.0939249480394644 1.8950069024354201
Ni 1.1535861133110668 1.5663285054948746 6.756616541084431 -2.1047173891238073 1.260853306565319 -0.8853208070413784
Ni 8.70861566730223 7.817540325537101 6.6174902884237605 0.07286737758368741 0.5454171124646413 -0.33797613853672115
Ni 6.085791784414643 5.498837529589036 12.09486257699952 1.7810772075937842 -0.9879116798314276 -1.0682254863908311
Ni 5.724110689567895 5.045951673826056 1.2036131872802436 0.0818785799433622 1.1135537780139853 1.2362213669492514
Ni 2.7284372135251083 0.31769967848228015 0.43480180102064125 0.23885676923504023 -1.704515154767329 -0.8117250359320989
Ni 4.251465738878157 6.283723940637568 13.06910006115668 0.3641314567758503 0.7152125081256456 1.2588277914948578
Ni 0.781849656437814 5.191207138941623 9.094969581022244 1.094741787513805 -0.7767652320274622 -0.8753904353015439
Ni 4.956984326120415 2.5583938095204606 3.9326334279822186 -1.2606347627966097 -0.18617280857776325 -2.8762514546593176
P 1.6005117230939743 8.088007375595378 5.242491249212516 0.634772717511339 1.209845190948568 0.4995841132909268
Ni 8.805372183819834 1.699431381844221 0.3369739256461833 -0.46916796289291457 0.6596658812085929 0.17061763445198355
P 3.035686965410554 2.7706602644867337 5.555732812243659 0.3994648419698217 3.8211367515278902 1.1963942076499845
Ni 4.431173653887874 1.520280499169091 1.522047220056953 0.9837477782617251 -0.19656109379062278 0.08346443637324334
P 8.51204824029904 7.819508506452639 1.6969637286020047 -1.1084653077474846 1.0926805341094021 -1.3617274537745774
P 7.507533263595455 0.6542948221409449 6.628985579035168 0.36426566836086943 0.11422665725676456 0.5235915319491176
P 4.221246734726861 3.109447330381995 9.26782135638043 -0.28719993642511826 -0.3720771939854882 0.5700318256895279
Ni 9.29399166384651 7.262940365478701 8.909006192895127 -1.2637550535931463 0.5556454750608688 -1.2286181006806969
Ni 6.502999719147383 3.7846912102394987 8.856475258581986 -0.623289656572404 -0.006860731675575282 -0.10131252029825778
Ni 2.1591315998336365 4.52491291192647 13.558658140667132 -0.12222767318437014 0.2693994179085877 -0.8536471300871815
Ni 8.575336397380264 0.33458425693080895 8.79049199338859 -0.4598207173500597 -0.8226727931928541 -0.6537238046925451
Ni 4.476608924645612 9.009459547339935 8.752704776584718 -2.487514026409329 -0.42270838587879456 0.05988613483267106
Ni 2.2578191617778054 7.224653676348152 9.269465530154683 1.1526890534525502 0.8630923346604813 0.831439740752207
Ni 9.232792378019985 6.48805268483599 13.11675232060607 0.5677533140679965 -0.6040416069760695 -0.4130970880412756
Ni 5.924289542873649 8.125774167880314 11.994039724439439 -0.09177707000399678 -0.8667687550708041 0.636348032418259
Ni 3.2632903773224307 4.580959648658073 4.279789904704636 -0.7165281416132756 -1.7389833637475276 0.6983008199719715
Ni 1.0001886922383 1.0682673273969636 12.180601922326236 0.6218503530227162 1.3179809048162463 -1.5391965639307554
Ni 1.5875700051870907 8.783016619458444 7.6266899070612135 0.3506023119411639 0.34303015602086084 -0.3692826619594866
Ni 5.37489783514363 4.190591388580141 5.312591911745727 1.3896558047537293 0.8613005328673813 1.6681944659594237
Ni 1.1330037685481105 7.880327153517197 2.595883942412553 0.40213236149965575 1.202223155626936 0.48223533759983395
Ni 4.301775042563524 6.848415469824219 8.080946062367275 -2.172990462468593 1.2238859853123503 -2.5741476045391734
Ni 4.122781985716527 8.82751421911963 6.5167361365182765 -0.37615470648897154 -0.8247715847034117 -0.2803906268127687
Ni 3.240971948450014 1.577543423164541 7.3846082963862205 2.3975141029104132 0.047319353911254 1.0517100052343111
Ni 0.3372812218174299 3.842882521459259 2.159440752779332 -1.4831372590433425 -2.874022565328799 -0.7429045747242754
Ni 7.875583094800971 7.2191576239802355 10.72759514659233 -1.2040362975762746 -0.2547708693621354 0.1488229071743953
Ni 3.0658874018173625 6.732469189380124 3.897685219310287 -0.7639410836796005 1.6226610003039992 -0.23077656333006705
Ni 6.977767661787352 7.019888590154304 0.11571696879969037 0.7341075452579356 -0.0058268910944222225 1.3730665329364806
Ni 2.3803569915145024 6.821594362913898 0.6915129375763146 0.7815940208746733 2.1381489293093754 -0.2338120077222812
Ni 0.543189152684403 8.745732588530148 13.61669162605876 -1.2864290981518942 -1.1087869527529615 1.3303080589230316
Ni 5.063516760110004 8.232455143825794 0.6998331438805823 -1.2057507091642201 1.0866741800143223 -0.46117877403985097
Ni 4.7001088650260385 8.33541328700179 4.308881846765619 -0.7932249202453823 0.3851509964503109 -0.6642321604230367
Ni 0.5239409003627806 0.5677969844519679 4.609350658364702 -0.411244351103253 -1.8871907488251112 1.282593783566204
P 4.497228404897541 6.418822849519182 5.985490685474623 -0.30668067085754924 0.4919219687599786 -1.9646801985618423
Ni 2.5260859341144672 7.86483237074346 12.371131118822511 0.20738955186469443 0.6522135386956057 -1.9357969398685888
P 3.42672366428999 8.204389998034898 2.1097906040232246 0.07706830303891242 0.6961958578138269 1.184723970400908
Ni 5.852200274905965 0.26457271957113165 10.341345212241437 1.35366678825363 1.1264663723105957 0.6547018523350983
P 8.942402138128012 4.421945484878231 4.233794816450637 0.20782715362274531 -1.1420122904649945 1.5424891186390985
P 4.14667867287027 7.481389879358881 10.798645549256012 -0.31931687156432104 -0.8081537736410727 -0.3901728751449345
P 8.288232648262348 8.971869148627615 11.762787750736022 -0.7609717166386314 1.474882475233718 1.5197700797750278
Ni 1.6089693307074397 5.939004480378965 11.275934063209982 -0.2903978745371257 0.8210560835250376 -0.4229333574054071
