# total energy = -340898.0345933521 ev
CRYSTAL
PRIMVEC
9.01136985359513 0.00000000000000 0.00000000000000

0.00000000000000 9.01136985359513 0.00000000000000

0.00000000000000 0.00000000000000 13.18905066396445

PRIMCOORD
 96 1
Ni 6.43866877450037 1.8590185543461601 11.415663630930307 -0.7220483001005564 0.5269352516103699 -0.010047614043989147
Ni 4.570053111323842 0.4281292777652153 5.986799944150438 0.22853738958690317 -0.5089434430186396 -0.09804310551836663
Ni 2.7901453723972223 1.6147473533463326 4.822932873887662 -0.16207565841924346 -0.6039955842294823 0.4474920205813777
Ni 3.4475247988530233 4.239371885371518 4.706116684977013 -0.596818863975385 0.8459358774858527 -0.04353443294752502
Ni 4.904609226287489 4.823651080060225 2.4980454250799613 -0.0022422590669574287 -1.1933759896489513 0.4113849904461754
Ni 7.103698853911086 6.250835782518949 2.728274208530151 0.7564977400276778 -1.0857406124564593 -0.7106840241276728
Ni 5.140743160363539 4.5565630907425625 11.415597847930814 -0.012082127975514676 -0.24509118018052628 0.2388660252064209
Ni 5.650651520144231 7.750949500718685 12.347668156399283 -1.393909952044393 -0.13605943686113986 0.30294948594989113
Ni 1.8138355462001778 6.3242694349684125 0.2751234277627707 0.5285540181607155 0.768654944215502 0.28525978197961194
Ni 2.5955448417006766 1.6407631779409577 0.268782126838892 0.6689326512224996 -0.5190563630829254 0.6950072368223643
Ni 0.609770557561335 0.04752235974444567 4.598098296396025 -0.259128889220515 -0.7302334070145101 0.8188189666644027
Ni 8.65615060787306 2.2363516417208515 1.341550556445471 0.07360142753623454 0.8669695582277004 0.6267400770148497
Ni 6.853543228435925 0.7500766841134142 4.809308583896454 -0.14708844098179183 -0.40607463397685545 0.0741830110713174
Ni 0.6754129796871011 7.336147137741482 2.368792644716925 0.4143422733022864 -0.8081758851282598 0.6707434791789932
Ni 7.540894470825817 3.951837097991782 3.7879743496617984 0.3399502315439565 -0.4842670233178821 0.013842562310047128
Ni 7.481167111832685 3.735393006915128 12.690689552147202 0.4328449600921643 0.10907108119775409 -0.14697017023637268
Ni 8.042476324917063 8.942495894440018 6.824173372004057 -0.4671846139142986 0.30517091908124216 -0.06613031597016998
Ni 6.739567423284273 0.5567260304072648 0.24067656558909084 0.6958456735632595 0.6698682756628915 1.022683278984658
Ni 2.0409490991126598 6.376814732235907 9.165242537550435 -0.3214051215519174 0.6137156397307237 -0.3910390797999717
Ni 0.06549012997625131 4.842223513205193 1.3762506381103556 -0.6792479171055785 -0.4183745343901311 0.39979728560857597
Ni 6.4312704398996825 1.945563749845564 6.985857171117906 0.21531060648398404 0.49346694464959534 0.29862771864608567
Ni 3.2283502627288563 4.1684974619434865 0.34925816478218924 0.6450905544975792 0.31425128411595554 -0.31385996221480783
Ni 5.81281111958319 5.572838341974993 4.837295195064978 5.0907842593460714e-05 0.5809374168584381 -0.1776380316338747
Ni 5.461755186527143 2.786252460646312 9.343254938730603 -0.978446677763786 0.09850487564613358 -0.873730788210934
P 0.14882096987021606 5.440145921761673 12.337525859696392 0.5202866359456007 0.28916734456413423 -0.07256887250666212
P 3.992072864120982 6.048025893940275 12.628054224121618 -0.2888259020643155 0.4188499313646528 -0.2320330614449875
P 2.386093573583991 8.362307861637683 1.4229664802582587 -0.04459706988408449 0.44854488732592424 -0.5256180754608432
P 6.274842071649562 7.757807153131747 5.889095969435404 -0.07207547781001135 0.23532972991838827 -0.188903577245365
P 4.655589033406343 1.0545645614861763 12.567200443904262 0.17188236009702013 -0.7680797884383224 -0.36801382254939197
P 4.092612716910117 6.112925779195034 8.194106138751998 -0.37760737977509806 0.22269944274888742 -0.06209368400695113
P 4.781802278737939 1.0009739453226034 3.7459543323134312 -0.10707667647554461 0.1542934433706633 1.3606324209381857
P 0.10620169643056274 5.5837150653160785 3.6493578549460524 0.6563962093183856 -0.14861104827390534 -0.35533391308887835
Ni 1.4737013933341847 1.101594900439882 2.688522352958876 0.2056334884055362 0.8323913060321987 -1.3291821728487043
Ni 1.8651012289569573 6.423187241194667 4.915743674804676 -0.17015457877263598 0.2637728157504296 -1.375722996722721
Ni 6.073600161415005 5.589266069109043 9.196579576008284 0.04008118429160194 0.18761751144408978 -0.3040126371070829
Ni 8.499325739352013 2.37460407709693 10.215314931194417 0.8862296920088931 -0.00985400997594432 0.017323578880112104
Ni 2.4203457901701255 5.2678305085651305 6.895380314977478 -0.261812092479633 -0.5652549731261749 0.6116065638075209
Ni 0.618493563521708 9.028221055288189 9.062895905117651 -0.39633812341538194 0.023310649701482434 -0.1254919457579387
Ni 1.3767750998323534 1.0694062875365218 11.282863074279463 -0.03778313228604461 0.10378180777435675 0.34681481987427365
Ni 4.119601769442469 6.9264632328071425 1.5455589572067168 -0.19467750361466474 0.4968183776203315 -0.12085598964782411
Ni 5.596213835220044 7.889274027053114 8.14332887223804 -0.785218505001138 -0.40048839813832965 -0.7113260285870459
Ni 5.23098301747839 2.8888198716390456 5.03900839993975 0.7279266132582044 -0.7708627505000982 -0.4976922955848525
Ni 0.7595620519583406 7.388737491857945 6.9423070231785555 0.12676849847751717 -0.28010394881028533 0.15316138664874912
Ni 5.00874461562434 4.4961508676451025 7.004849534095263 0.2697848262724644 0.3780706925647618 0.28611621644263624
Ni 7.927211893884901 7.343698665628665 8.659521761312911 0.889582667641526 0.16780690447606586 2.2770913441452656
Ni 4.554499487059788 0.24135782514550017 10.314536420582723 -0.19651507104403573 0.14585045480963268 0.17650160403658635
Ni 8.074007107825476 7.159650448960628 4.787466825790306 0.2237034585333696 0.44958387011339995 0.3032680456315745
Ni 7.180565838251977 6.057262547978894 7.00569389944494 -0.30667681420280735 -0.6805357826790667 -1.4257846892658026
Ni 2.2433264419412327 5.174004126272358 2.5776680863037877 0.1461060224638645 0.35556196993928446 0.18214877502003468
Ni 2.3889862232877928 5.258017126859711 11.245577630620744 -0.3120018259601466 -0.8838051417278004 0.6441148208478714
Ni 1.170441765664314 3.3198967684638045 3.8936056263844154 -0.641306919085431 0.4064674985399 -0.5192479102684412
Ni 3.6417108065390553 2.534763152441672 2.838613024833035 -0.09813232279806325 1.309234526082184 -1.4726736405078573
Ni 1.2271503157765327 3.355906202159725 8.19026819635683 -1.1069516993164354 0.14577383593542637 -0.23245369392217388
Ni 3.5647086516512583 2.686307358263566 7.173933470083759 0.48885361424730006 -0.47580757969661924 -0.4677016627600332
Ni 4.079329957834094 6.97655743749073 6.078542897746891 0.7205102661894752 -0.18921365228661607 -0.272065394776525
Ni 0.7114269190679182 7.3870793998158915 11.144272712536118 0.8073963266497579 -1.0933814168311686 0.318781053665509
P 0.2816179219731435 5.52538446864098 7.957837935266021 0.167713316320995 0.3787103830312897 0.5588976634495794
P 8.373184584978768 1.7344183442076493 8.065249858659888 1.1180321255003132 -0.34302707069706734 -0.20776776113971962
P 1.9367866756664283 3.0859616086174357 10.372871522942717 -1.0603900495068126 0.7801845421216563 0.2349242669498535
P 3.901310347558092 6.266037963361045 3.8412054121706 -0.2646924993512215 -0.15954749268075102 -0.3170087922564347
P 6.966194362227891 3.9813042772174225 10.346453791255291 0.21092353315988188 0.045705986677547085 1.0796463266332632
P 6.3439953234469835 7.828501349163902 10.284966511741432 0.5376855481483385 -1.2866075327112874 -0.2892701886905857
P 2.3741444972374475 8.418664968327946 5.8444248070937075 0.062400159503776406 0.524731816201148 -0.3158307127879335
P 6.790508696728477 3.7784132863106046 1.6884882935057632 0.21310022909622656 0.9584298683222269 -0.3759731866057847
Ni 5.181186187997996 2.7850088916147717 0.5860643470448542 0.054444137881493326 0.36669767484112975 -0.10281738697855841
Ni 1.4310686028398407 1.0702082994481679 6.871943544417832 -0.1101324325827329 0.29781704981933227 0.6186711839637862
Ni 6.854462388154889 0.6584436692284457 9.271163980380411 0.004236920899483025 0.448426359470189 -0.6655632205296343
Ni 2.6488741281402297 1.5280219304510534 9.044523524382104 0.6728425277998671 -0.33601824347940196 0.9246347741496527
Ni 6.479895791306887 1.7726445748728379 2.5972407814958647 0.22688108493040282 1.1415461494618533 -0.08674156446261834
Ni 4.318428632572295 6.65221120450343 10.377118581526524 -0.5357883311256256 1.1977836317983437 0.5830323517142539
Ni 8.043170200391183 7.039159423448078 0.39532969398983736 0.8717980899645954 0.47088648824591806 -0.07555700860070858
Ni 7.624024357173381 3.9302909128148684 8.192444442162026 0.7320581189280747 -0.7080265319001676 -0.21795807140916013
Ni 2.99726269573732 8.473544210372028 12.366291053215097 0.660725689931675 -0.7762949772592631 0.22867571493698036
Ni 0.10866991061707738 4.80546613581639 10.092393539248485 0.22468613416161307 0.24106663240216547 0.4465085736221858
Ni 8.683941672317058 2.3059374392683734 5.77133088328547 -0.2673885581261459 0.7382092261311352 0.4956369557177206
Ni 3.8362392462772514 2.6233178834050874 11.324053144469824 -0.5379367449271961 -0.1409617592587637 -0.08376062745742349
Ni 1.0491757623494997 3.2981162876722534 12.494291253176797 -0.5426066395990398 0.5788170280813256 -0.37739937752935004
Ni 3.091936146790708 8.423657267193695 7.989584089912507 0.39375982116524444 -0.6666137732813359 -0.11753309592217823
Ni 5.686156317131699 8.00070862592292 3.46754626026083 -0.9075989017132886 -0.11060448712314501 1.1061374309452563
Ni 2.902661335642282 8.407103380882532 3.5901648701816895 1.2902117051227777 -0.7011236341327474 0.17242306309183852
Ni 3.3876262238338084 4.218168132246768 9.117182199029303 0.7630990473942794 -0.032191240020563915 0.41282120867206973
Ni 7.221991105193955 6.057163422911162 11.535196747833778 0.27360574268045135 -0.2068745599014889 -1.4838078027478059
Ni 0.5310129878377106 9.02975298815313 0.4783613564066488 0.0826069734689545 -0.22972138259267535 -0.8978585344970732
Ni 4.682641165527253 0.46768017979008863 1.606426254478762 -1.2805060477992398 -0.8473317293921149 -0.5145116811350365
Ni 6.004546034685316 5.568494861734394 0.4509406592611744 -0.3168408992200027 -0.21530880671177113 0.24314331242553608
Ni 8.008097949153814 8.81632770595739 11.360454572751774 -0.44337002799320413 0.023153812408643993 -0.07956741531168231
Ni 0.06529368211474705 4.776287320424149 5.8216071176388935 0.17832528750888643 0.22810595847643944 0.09224655344124758
Ni 8.069429331970241 8.949389592332254 2.4960142623284445 -0.7146347812453048 -0.25722421599863443 0.1486897240306407
P 8.530315840072802 1.7658409906785386 3.6810769754831565 -0.4064237897861582 -0.5120889306261567 -0.5501083472927236
P 1.7679947080592506 3.2040646211346355 1.6006364493862624 -0.318948946701941 -0.2123589800548278 0.3906647271796885
P 4.790263954974294 0.9966574991913857 8.118453887059308 -0.3237047162193715 0.4648184276749672 0.776030924964599
P 8.47388664242419 1.6064028249172981 12.464892560361589 0.07705647596437051 0.33675846407953614 -0.6503841987963509
P 6.284358078151788 7.795312474213433 1.3849556213311411 -0.08722647451883687 -0.510153661276657 0.1819384587814415
P 1.8919460995726096 3.2534739617138975 5.98490124853489 -0.7113645951344653 0.051870720727362284 0.01674405222755826
P 6.937727445049359 4.01207810506316 6.0599866850675514 -0.3757685267941464 -0.42333470660888384 -0.8615758980159549
P 2.450011219531229 8.430587010565107 10.165197296949364 -0.35214086007287737 -0.4213279605915002 0.06602515785087339
