# total energy = -340862.43771746114 ev
CRYSTAL
PRIMVEC
9.31022790312304 0.00000000000000 0.00000000000000
0.00000000000000 9.31022790312304 0.00000000000000
0.00000000000000 0.00000000000000 13.62645962847990
PRIMCOORD
 96 1
Ni 7.583357530253698 3.371745590181479 3.131687880579468 -0.841063636995216 -0.5373590180468552 -1.5557002180127337
Ni 5.94259744452007 7.078193873869949 3.219837118468875 2.552362904563914 -1.4476287817240876 0.2122779903052473
Ni 1.3695345261440421 2.367227859632293 13.567580072754309 0.9947307596357899 1.2124785148063568 -0.6348459939514357
Ni 7.099626018527892 5.6029975711303335 1.5446003277470477 -0.18425810805355364 -0.3333388968750259 0.41486626412655647
Ni 2.9008063316094597 7.359139311401713 7.2155104253729965 -0.2953909568763429 1.055252471169931 0.6256417017443483
Ni 1.1347864395213645 5.1215191345597075 1.8741833269241495 -0.8685065636975171 -0.9658708979813043 0.730935061067225
Ni 0.8958934394313902 9.474367232086754 0.1773207388037675 -1.8120338038762986 -0.6036109471965541 1.044177701413008
Ni 4.039596169133828 2.243923201139759 6.837266588980774 0.6391212242880219 -0.748882389574265 1.90008483117896
Ni 5.944403628735378 2.404738767897652 5.31833921470648 0.9322436968451623 0.3739664405884011 0.3445139396552389
Ni 5.473064030363059 4.547552893891767 3.6431564233065536 -0.1468765820813019 0.17202737031531665 -0.3993766531313896
Ni 8.396605938538416 2.7015581440227248 0.458399312594702 2.01774931047268 1.6624585919169113 -0.6290090755546844
Ni 0.402494187039725 7.757766029765977 8.479473484132232 0.33607583619021475 -0.10629351845261692 1.4084210011763743
Ni 7.113693772905892 8.7030334698707 5.412770063369439 0.05102122824287342 1.355076524116963 1.3343140947586312
Ni 3.4213784151908184 9.301383197445311 2.0587669745236 0.5335129048278876 -1.0822863353592715 0.3916664289713254
Ni 5.680607631021134 1.7850220672604946 2.5372605520250096 -1.3479787367299172 -1.416728235490489 1.890528297838776
Ni 8.434591668427387 8.262790032731017 11.95407102412485 0.6968604879810192 -0.0876753891307974 0.5758646303212211
Ni 7.339252664577487 5.284122265077081 7.8262613765290086 0.0602309197665995 -0.7496467785441153 0.5124887371677368
Ni 8.953050330272278 1.424781418585502 11.934243962759274 -0.117086752413379 1.049958055540211 1.991364649831564
Ni 7.213341142269044 6.598558862426287 10.357825931116254 0.3885795625158856 0.7270534666246317 -2.192055192409528
Ni 8.020165493293128 1.0479499437678261 2.0548157137969136 0.09024700651271554 -1.0070455724474012 1.027779719670959
Ni 5.2333535922622385 4.4672521781338315 6.398631028201833 1.216749888488201 -0.7675465416426717 -0.9905642869629264
Ni 8.709541319182561 7.807231270672866 4.062974151425791 0.21647531621604651 -1.5477639938847925 -1.1887377195459914
Ni 1.6990141817912991 2.669195791793787 8.490742583999292 -0.6721876678246875 0.006298688524518184 0.265879063460155
Ni 8.833246317475394 1.5473505690728324 7.527133994904064 0.12655329714291755 -0.19779805152151742 0.5525822627545128
P 7.605925522717145 8.160275113170364 7.8833842798951315 -0.28655253264910646 -0.00524607889028774 -0.9849348565912908
P 4.4826047439639565 3.42765350880483 10.441533259267908 -0.8633926395097196 -0.7233230530479221 -0.4246395414632364
P 1.447973196319185 7.544710774182835 4.686057430476637 1.4924248549928554 -1.7482244227298214 -2.484556486442902
P 5.179493923779959 8.212794108833034 4.642738802038548 -2.1311678700058523 0.1792483135437881 2.130668818882247
P 4.6690979193085616 6.660974630361499 8.508837942972873 1.5014039185630144 1.1242207708095284 -0.6861600708443796
P 7.013506410323729 0.6246809141608829 12.265625697969353 -1.0846489220541773 1.1807153634621472 0.6583088529600662
P 7.306415490724938 3.08059614285601 7.077201403574319 -0.5495396192734471 0.37774056291885266 -0.13997291298293313
P 2.4135555537321753 0.5916612598412196 7.1180947176408225 0.7291486585907635 -0.9952547504600603 -0.2959324312021097
Ni 6.4096729585077945 1.9752207133148565 0.43403444614385933 0.12387472186948988 -0.16431688904493635 -1.9793234023963138
Ni 3.7522732254809985 1.7086502676822513 9.221597337291017 0.9866274138023652 0.5609617450674597 -0.7710314148674786
Ni 2.1692831039535134 2.0632489182413822 11.108275921098496 -1.0079341456999416 -0.6730908963652472 -0.559542753232746
Ni 6.406190933267972 6.439139829855488 5.9450748961679745 -1.2094402422006654 0.3045245437464949 -1.0824408586592649
Ni 1.1755093764170412 5.188692428958954 4.498925573497135 -0.27751021994118014 0.839663928434212 -0.35363672789211353
Ni 7.046418065999591 2.972718532016914 11.404406340357937 -0.22891225642781865 -0.20669252579766986 0.945341667679701
Ni 5.0493462477706625 4.941142778954577 13.359598891384275 0.8651906119504068 -0.16434568540034275 2.535668217517052
Ni 0.8400525544490195 8.44526118961679 6.341318196186265 -0.5195811252381438 2.2059373497082593 0.971514726530643
Ni 6.122526909185329 3.923385904311735 9.115842458416305 -2.2940187160282233 -2.163232611750881 -1.026068393406807
Ni 0.9322517414810008 9.264402972171048 10.74865998871653 1.2378751005025908 -1.6888761626784914 -0.8526027479830671
Ni 7.855914452434982 9.316000255270234 9.698496072750766 1.1305300008570078 -1.689025286661846 -0.08512382635353727
Ni 0.09205115440814927 4.2336399393166575 11.714898717197457 -0.0638255790963933 -0.7223210941459689 0.6722236632689454
Ni 0.36378598346463 4.783613722650313 9.224418336348949 -0.20293357297586984 -1.3248763463844988 -0.554537843818987
Ni 0.29987778599480985 6.616797598909741 0.221970729833554 -0.05641206024114156 1.1532852922756525 -1.0777971892396665
Ni 7.163084531989468 6.360580126717464 12.669282732475532 -0.19461554002847772 -0.5962282815792377 1.4030473955692868
Ni 3.1977188100136718 5.847819324355919 1.1306964563987603 0.32196716470297454 -0.043904414692434064 0.426880000757981
Ni 2.791541496811183 8.317441070585984 -0.060027694475280155 1.8374051927615516 -1.6006400159482177 -1.0720286621870054
Ni 2.8466487358339334 6.339669354822702 9.420679802820883 -2.0016302934236303 0.46753274128233674 1.113082751914838
Ni 2.646274010669609 8.950499327823852 8.977438472292906 -0.31566127708960473 0.17382508564568774 0.19496546716872873
Ni 4.978514033801226 7.36115032063113 1.2777738508468086 -1.7013305863917603 -0.44613396389158644 -1.905277431123493
Ni 3.1804297167774416 5.819153132608826 12.065385040086989 -0.35707943502507533 -0.4376979173090913 0.5731737137526194
Ni 3.5229064505925916 7.160514909085214 3.327949347051403 -0.14349455298294642 -0.6145702744215352 0.23344074042579152
Ni 3.6434273509388504 3.073660023060107 4.86348802996979 0.2810979372924385 1.2553385473946765 -1.490232218216911
Ni 3.3662153148005847 8.0275485040289 10.953152627687201 0.4180508325021252 0.5036161172684551 1.6523716399945543
P 1.43243442593078 5.832913649465664 7.7241589000649435 -0.9645755762086484 0.5070382555761267 -0.5763042889618011
P 7.0893754575946195 1.1626240209841157 4.0417440387135795 1.8116779631987765 -0.11245748117148374 0.6499393979494484
P 3.50500288231404 1.6705062639187427 3.3027679736125055 0.47263895216065055 -1.3495247410607984 0.5012735851782076
P 4.863486167924207 7.115648920767824 12.690389950179279 -0.22717753312489908 -0.5914755973856006 1.0910334854242822
P 8.760458955644026 8.068690401180705 1.6720210380003444 0.6331287541500129 0.38801520537198336 0.651478203191478
P 7.73785145225801 4.569329516982528 10.13508803850259 1.3787746390648512 0.8193910371177888 0.9562290040161661
P 1.5715013002816538 7.259408149987335 11.985452078331656 -0.4314125985210118 1.3676785291516897 0.6133911665117694
P 3.0880908763267505 1.0800888505268285 12.893465572461443 -1.4031702943003963 -1.0374632655073102 -0.6676954363812888
Ni 3.8722448223803325 3.0638191121550475 12.460525078097474 -0.030071622574399826 1.3127427963457585 0.37556026743808224
Ni 6.098357557520679 8.226563935917785 11.451499335192347 -0.8286516364841084 0.8900115276488284 -0.19514210195590906
Ni 6.749384554632496 8.617882125369588 1.2819355227243503 0.6534150152028746 0.2574882682932985 -0.26792077648053214
Ni 5.54626104222264 5.169578531051588 11.211769345612908 -0.29894267878334324 -0.1517609067567967 -1.1884068185691339
Ni 1.8320200977701828 2.9958172074714575 3.2313101123272525 -0.4441675841938351 0.7861654422954395 0.26932434169627806
Ni 6.318516517002177 0.9009116522770166 7.57723791744585 1.8879618226631805 0.9982721971301451 -0.29492378743193726
Ni 4.760179878990867 9.078729096882872 6.619680045471904 -1.7273858887179154 -1.0970650363303427 -0.43163859848888886
Ni 4.595109538076293 0.9351006712226737 11.229361021256342 -0.6065558887574909 0.25641303295124873 1.0598300632382844
Ni 3.723001868919497 6.272496060423455 5.536130583229456 1.200617758813029 -0.9945255856035196 -1.6791051993346564
Ni 3.635262281058304 2.111010387440015 1.0995323305023499 -0.2121430073892798 1.2851234919665933 0.5261428376160616
Ni 0.03141829511846148 1.0976200096888218 4.960331158685256 -1.0151126657262517 -0.33949514628440886 1.194573352391162
Ni 1.0277281287386972 9.440478002479926 3.2645587982535993 0.7146936595076983 0.5029445451227273 -1.2443169994731924
Ni 0.24533753985201978 6.459091648275113 10.639267603795833 0.17748453677514595 0.8321650489540054 0.6482877212786384
Ni 4.992404893848861 9.731701931628706 13.592038972507082 -0.5078841485161899 -2.695825832977977 -0.19102448024310972
Ni 1.714664674914672 7.655949377298873 1.9526443416462862 -1.2146151015333855 -0.8568800352021824 -0.14229667602010332
Ni 3.8868898108889978 4.708340529965918 8.056562898299976 0.546126222716524 -0.47592430778014166 2.865573406120181
Ni 8.601486814013098 6.596352338410677 6.599988913433871 1.4682544283942391 0.8965750397989591 -1.1820942460875448
Ni 2.4605815149256056 4.402937123704171 6.471274081500534 -0.027289431843572354 1.0855488081606273 -0.7516352697290539
Ni 6.2361303101915135 1.4466511439554024 9.775063387115202 -0.48774521167446966 1.8308306248678277 0.23118614006365992
Ni 2.261193673920162 4.377194343522061 10.49823347828674 0.9308195628041259 -1.1698822774023854 -0.27160979529634516
Ni 2.995621692685264 9.112059712814862 4.8316293610709975 0.5101989126922954 0.283614275956389 0.24501970351264252
Ni 5.107023109697666 8.731299321817493 9.378874086418811 -0.005008251847868794 -0.7921784812587389 -1.6066671959789038
Ni 8.805120118947311 3.2463833713199595 4.993034265255845 -0.3290976051001687 0.5810526022800638 -0.20517017561587247
Ni 0.14052113195103505 4.1210792838368375 6.877110640361372 -0.22030677414699476 0.48718342563372874 1.49115010204549
P 2.134881811811418 4.391904503626124 13.584613134722904 0.2256407847653985 0.10842881962806487 -0.729711473072769
P 0.592270148746793 1.9030850674374666 1.9474250278777183 0.4624782095775648 0.3225626321951284 -0.9307416583783389
P 9.228595835613943 1.7171132648560443 9.942492008760384 1.4113636287444662 0.8988468665522713 -2.605520719533816
P 5.339573982532649 3.4792135509923603 1.4072456043095514 0.07852329031788412 3.630926796766276 -0.14685267082190195
P 8.497556739809523 4.803062788762583 13.721980892479479 -0.43840394223718043 -0.046816960353538724 -0.2844869083693294
P 8.19813049986854 5.335049211766462 3.7406950260471934 0.004282686535753914 0.6874289102544742 0.057754176091332786
P 1.877668145232346 2.4828795107795485 6.2009525450413925 -2.4180937268339777 -0.6324265858766657 -1.0075199409806583
P 3.282432573802826 4.814896088441231 3.355678929870352 -0.7333148741533113 0.993548823512547 -0.14490763128038914
