# total energy = -381166.8786773494 ev
CRYSTAL
PRIMVEC
9.27422753811683 0.00000000000000 0.00000000000000

0.00000000000000 9.27422753811683 0.00000000000000

0.00000000000000 0.00000000000000 13.57376945531454

PRIMCOORD
 96 1
Ni 4.748135506566342 7.495449181062855 6.476859851784964 0.8279479255488644 -0.2749627709289781 -0.826443573089196
Ni 4.795285678969435 2.8823557005314107 7.067237695966468 2.3764086883903657 -0.9987547931935186 1.7427950241841341
Ni 0.9448211966438582 5.300619784771886 12.045485334253016 0.0881016780349386 -0.003478188356587558 0.5503304906058586
Ni 7.858627928369125 8.859678766098732 0.2862249175399644 2.301028828797469 -1.0892949054666208 3.255429007135013
Ni 4.308870997183959 0.523052517363448 6.516834554402793 -0.15679229853311707 1.253867362165789 0.5364506472999728
Ni 1.5141289234605753 4.35271027038408 7.622540411896893 2.4035392260585704 1.04296156961772 -0.5319568731946774
Ni 8.685249096044178 5.093897254704043 6.796522069006695 -1.0191752658313995 0.54449074399563 0.9589893403701225
Ni 1.5180519216758601 6.452015123844239 3.949477989526577 0.09696067108746527 0.9663704633255422 -0.20278110655840562
Ni 5.401866525945087 4.445804965620555 13.116930340666961 0.416374987461599 1.1328558207767072 -0.28606505148972666
Ni 3.322287954290864 4.9007058224993205 3.47943231920677 0.521550847370005 -2.931159676661423 0.04291325442375835
Ni 1.3868772484914917 6.631981507691996 6.567586836751077 0.517945903627566 -1.7459065732299222 -0.8645339522030142
Ni 0.3702401440937819 6.982371095331887 0.14523347458992458 -1.9920642470017498 -0.5301301043985838 0.41506706728345294
Ni 5.079781880510985 3.2975257669745273 2.051349678113599 0.36431349087966935 -1.864108670194667 -0.6890237655454198
Ni 8.04126528972516 -0.3889944868619825 9.44790035239595 0.9350942789200799 1.3834496759430175 1.0139284156101633
Ni 4.250703042559216 7.9183446789795715 0.8869073558515005 0.13856137734738716 -1.1445286291289452 -0.2447584794314559
Ni 1.9014021137061115 2.7719181999460414 3.9789876538793303 0.18964791161055725 0.22845280029289688 -0.20751347903706843
Ni 4.071163273174587 6.944522973070475 3.240519873050435 1.101956302984373 1.4915385957331602 0.12206337969236399
Ni 8.82301774495211 2.2323158236814686 4.771491720999849 0.7035890649541043 0.3383306936626625 0.7267467340174903
Ni 1.9724519702718248 1.5566327079065567 6.069904896025296 -1.4342199645173492 -1.5566116740834095 0.5570241005759504
Ni 2.2547780025878983 7.477466454019269 12.652680135086474 3.182136883309081 -0.15787036208864424 0.5291751966844822
Ni 5.87116098384069 9.442554687688409 13.080105165694311 -1.5329739800598114 0.00040674852011542855 0.430573133338852
Ni 0.7004759080418642 1.3201491819218132 2.703365892835118 1.2645356405129127 -1.38481030373597 0.6856422506676965
Ni 4.303028233884599 2.4921704028636538 13.043714024566755 -0.11239088959960644 -2.0573098463741215 0.11695973991721147
Ni 8.75817234655667 0.14739251474245008 6.3021519549066305 -0.062336139035060384 -0.007023739616000806 0.4485747121225952
P 3.0752874543672712 8.115329270215147 4.914749785140943 0.01092564577356828 -0.17791082567928718 0.10336786016538971
Ni 3.9848016670735666 8.625254118609952 11.256944144525855 0.0803711421599003 -0.03118979533924306 0.9422038933816677
P 4.76743517390915 1.1887612015058806 8.801042462987294 0.8288938344019015 -1.0935220561740908 0.281424981614554
Ni 6.303516193765893 6.848006087901519 0.6579665590594073 0.8726470682284521 -1.4263048234353306 -0.23383951852610693
P 6.607590289474031 2.464477559670178 13.019240265724404 0.20696043474707582 -0.4389623858438117 -0.13828164132343929
P 0.8315717502928287 5.821478947341209 8.946443801094233 0.390291917221302 1.31093428238211 0.56438131227197
P 1.9371728090166396 0.7044174547120676 11.949843936156217 -0.7564571165977294 -0.8492646847487697 0.5094689765048065
Ni 9.35138903176347 2.964005999083106 7.0106482148552995 -1.5062697312957478 -3.7167743886597147 -0.337050027178026
Ni 8.1932977004655 0.9474828999246779 11.924624529426136 -0.399313403993622 -0.6039691018669211 -0.14773404498559073
Ni 2.512889027007734 8.491677420513625 7.1300974822628715 -0.6577262409837188 1.1769160443207152 -0.9693046062532016
Ni 6.5641776307370385 2.3638150948269128 3.847946529570376 0.0597930608982325 0.08239125791372261 -1.6877477055010028
Ni 0.8226193385263645 4.628655634208154 5.007268550852194 0.29810398493213175 -1.0137119287239833 0.3066937834836718
Ni 2.980894367286495 2.2710449975515146 8.374635742554487 -2.0603877139684967 -0.8212797695000694 0.09525320147805531
Ni 3.600153083199013 4.448503765811211 8.525358632377573 1.0037856707492068 1.8206729676085356 -0.5902576658180996
Ni 3.6060607660905886 6.958898025632394 8.371567828110951 0.6611769185364806 -0.7255059196318537 0.8098095640769409
Ni 3.180967276266019 3.3722574918415833 5.840127563916374 -2.6795486930845076 2.467747642415679 -0.3214588576079883
Ni 5.726445938565741 1.1530368773326491 11.003983098614171 0.09694190203438789 -0.09351616418229056 -0.29497803770864034
Ni 4.394741069229637 5.114059425200566 10.705835234252527 1.645954937834933 1.2858259173502564 0.08511277060994374
Ni 7.50310041871678 2.3373186269756867 10.079107055544286 0.6773224179480916 -0.6328474754641682 -0.03537298018265521
Ni 7.394777441992132 6.896649410925558 7.708055281030881 -0.11597500740643898 0.5913912652019105 0.34783709049120093
Ni 6.325143692200986 9.0219591981816 7.296797083730097 0.5803915716572973 1.03288875876275 2.544446477930315
Ni 5.8243446836261334 5.126904230231698 6.963614897718195 -0.4712145610092981 0.6603469664360175 0.4532983428505097
Ni 1.4020127877050725 9.03775320754479 0.687389045674043 0.64194455266943 1.357953845664758 0.041864501444269835
Ni 8.821404029374191 5.99753160720114 2.2166238308203297 0.11164706945504642 0.011454778804160917 0.2539149491197433
Ni 2.548186736717838 6.590071273803409 10.355211008657916 -1.2307564871799384 0.06464910343895318 0.20255587792147697
Ni 1.0056694030043392 8.847028719844245 4.493745302203179 0.26437753921396406 0.0011472262305657662 -0.20777470311825508
Ni 4.350271148562284 1.7919198585490506 4.5758945541921845 -0.6606534419328428 0.24174128987168686 -1.3357001764728804
Ni 7.147285408013197 4.181257627343963 1.2109674117344336 0.20268263330732836 0.6892140271793549 -1.3635138562510387
Ni 5.191248820344336 3.969063303075131 4.986785492085579 1.0800211934741786 0.9102795338692451 -1.5013414407561951
Ni 5.008991702314132 3.1252940888278284 9.921909827531863 1.1143312796099583 -0.6737732671442525 -1.254859550875729
Ni 8.572604329323495 3.2216718605848955 2.6909050408208 1.5359268920405484 0.1296126527945316 0.018025232932827023
Ni 6.287657264810488 6.226113491390559 4.509545803525591 -3.168103030923834 3.505775779287524 1.075203203260245
P 9.411393283425154 4.068399553391716 0.654421021901716 -0.7366549942701378 1.0261002750860069 -1.032825766735299
Ni 8.626580333136634 6.847672215712984 5.370081893596566 -0.3204723253250029 1.3084279710204885 -0.6679941985686303
P 7.251620466930345 3.7114252642557197 5.935347912086519 0.48011726281556666 -0.2566588304134677 0.11726261586961095
Ni 3.3673514255156127 1.7326111739468137 10.795381610063071 -0.17632831168351568 0.7321560779585197 0.771807888022187
P 3.134531219377293 4.987549688428226 12.486008356301625 0.3952950268628483 0.08574603331856845 0.9610691057172869
P 9.318465524282946 8.188447279504285 2.305504317099297 0.005517844494435659 0.02758099494206218 0.2263923182194424
P 5.789417943014402 4.991713816557453 2.7576201234720354 0.2468274461453427 2.6628812597311557 0.8621569673304054
Ni 0.5097597671460304 7.649364259977434 11.370216776445533 -1.8022026767184898 0.6934776875517153 -1.428158845924934
Ni 0.04364173215523778 1.9270360784036225 0.7465521249051688 0.8060624383296826 0.06425932419970223 -2.6689665466932877
Ni 6.815212419605427 4.369478073630498 11.069558378710656 -1.759615952396215 -2.243745678805284 -1.8387766191877815
Ni 8.005438949049877 0.4475649429584589 3.5181169767850107 -0.4667192442421059 -1.0592381952905565 0.6960739875239819
Ni 7.292575455390623 1.5183208742721799 1.4214450765005482 -1.8455134236909827 1.0565133401602256 0.06291772257014326
Ni 5.2406062588827425 8.872171150486412 4.33012752652068 -0.16778093633413685 -0.14319733345750177 0.43998259957820995
Ni 2.3467134193919597 4.081281455332686 10.633365493462794 -0.6671207948247414 -1.5463475731532401 -0.9014619355776153
Ni 7.849631927733602 5.418467393097238 12.51834109549299 1.2948875133318927 1.5593290730145726 3.1933029272282294
Ni -0.3746259262592858 3.155184923929159 11.767303954188503 0.43296400216853176 1.1111580240882992 1.1475270496356367
Ni 9.378284291395445 3.857874590065559 9.471545922726186 -1.091410666258043 0.2949361287271114 0.3452675299918118
Ni 7.7132729613994835 4.847805629071463 4.131814865912932 2.5951247210114725 -2.8790349309417254 -0.49339392531981485
Ni 6.686857111568686 7.997324000022988 2.5523026388642767 0.8060177011346763 -0.639377563273202 0.5197719010927112
Ni 5.934244279018863 8.357488623404983 9.617110487236408 -2.1994036623547992 -0.225417870121315 -0.13932730897913426
Ni 2.746358429068205 9.221522024650861 9.430416578789673 -0.20792177021908062 -1.060870845797973 -0.7583695031290939
Ni 6.643231145600129 1.6974896745584367 6.0205771350147606 0.08567841330542664 -0.9714296230160044 0.08452887308201572
Ni 3.658831120334017 5.773846515110234 5.464378528711766 -0.8891108702114301 0.42899010512244834 1.341048071048355
Ni 2.25209775085216 6.927569685274872 1.7517216470494517 -1.865736435606077 0.9416063690069848 -0.16592845650643037
Ni 7.3470986386238595 6.482916849738634 10.493677079470787 0.20381109048481674 1.1854302524393132 -1.0220865259409235
Ni 6.993129199184677 3.1582454189907287 8.08013914154357 0.2189608016420616 0.6102361658225555 -0.2964687633215539
Ni 3.8251180186793037 5.4784994674413 1.2135985100646376 1.6694291096974732 -1.0224099707186136 -1.5781415777353853
Ni 1.794108576229446 4.505735023462564 1.9267151901335307 -1.8846764670436895 -0.04686195465886123 -0.25219179578104955
Ni 0.3163772858556473 7.876313880134014 8.159206567747852 0.17698805675470164 -0.9304701498845072 0.4533520789065805
Ni 3.071837441752411 2.54989319457035 1.9167379762328136 -1.1639859665226082 -1.789644637547821 -0.4464083005988957
Ni 3.1481457852875487 9.52064368289573 3.081394533149222 -1.0742704070333307 -0.2000390250368942 -0.14362593635448812
Ni 5.349365124297977 0.5609581398351076 2.187779128576408 -0.3762400671139262 0.9374972319346178 -0.050283578745900503
P 7.674080076156472 8.007414359498709 12.045566947454656 -0.5340345816593125 -1.0067761208360984 -1.4735169623447588
Ni 0.8167181475940105 1.6297043460583978 10.209511040426788 -0.03007187968471595 -0.44318336590369484 -0.13319908459420932
P 1.0579667716473435 0.6247536956821546 8.172739520456465 -0.30624486887171126 1.2661212398324777 -0.8535854236113106
Ni 1.98128103481308 2.970395941802565 13.192291785578504 -0.47220494994702544 0.4781596248685636 -0.4852838946181707
P 6.867083173785303 8.222335306640575 5.50269778172811 1.6420933979969978 -0.6419530373098621 -0.917673255230155
P 5.669752586107028 6.197177901717536 8.945629523923305 -0.4832354967295742 -0.2508915889123873 0.11371166529355901
P 3.6960022239909 0.5729784660451089 0.728955205723889 -0.5772265436657543 2.5371766837417793 0.09685011365152997
Ni 5.308938766802879 6.778254623180108 12.154183917189764 0.2605818196169577 0.6705786714663547 -0.18058760118050188
