# total energy = -381177.24425524654 ev
CRYSTAL
PRIMVEC
9.13575244404208 0.00000000000000 0.00000000000000

0.00000000000000 9.13575244404208 0.00000000000000

0.00000000000000 0.00000000000000 13.37109715787562

PRIMCOORD
 96 1
Ni 8.022405633659735 7.5620550718654345 12.825154702134274 0.16880243562011574 0.7277759466129531 0.18753600747387703
Ni 3.6630895407455073 1.6773424061630693 4.291854956707487 0.1322014965676304 3.1107280925487912 1.5908016897015569
Ni 0.3101386942187048 0.8725794615684512 7.235715947973583 -0.030268826186870452 -0.5741275930254565 0.6336581442909216
Ni 5.056364862796015 3.8083571391398547 3.5732522062652445 -1.0254772967900274 0.32978871762992235 1.1480325285171455
Ni 5.712741263138049 6.891737513410718 13.056862962278677 -1.6278685126468675 0.6688488332594417 -0.8654407802879999
Ni 8.471391319508964 0.7714676950915555 4.9467979575030725 0.23219298406161945 0.13729433770950547 0.7421813234050058
Ni 9.063196222118073 4.968899169630336 3.4228000684023865 1.5679083300431513 0.8612552814517426 -1.9099092734685494
Ni 7.0374253564139675 5.86706239212851 1.0366201175026102 1.4331383014173962 -0.11423565611782907 1.6073477669856961
Ni 3.4132997995155065 8.738538990237062 3.9794122257417186 0.3085660608057202 -2.8138759777458895 -0.46410314677549747
Ni 5.865847337063642 3.9758794303012372 5.85773022108519 1.64972006130432 -1.093394015236659 -0.627018527487217
Ni 0.9745289765374394 3.337856756465351 8.596277967946834 -0.618307115756148 -2.2025008132228843 0.08886118190878244
Ni 3.6489565318331088 4.035892187602821 12.06526200529224 -0.592324061428825 -3.4217184465252872 0.6965254732391037
Ni 2.1438047862911733 7.646250165683579 10.070134280178936 0.11375228872350732 0.834633565099156 -0.06159874664840359
Ni 5.331497181093241 1.9673385935620864 2.5790439055531458 -0.07180396931617956 -2.84471327484172 -0.818687840403177
Ni 0.005460439190007008 6.894889347977478 10.696516178348254 -0.19893190801564448 0.36078722289396575 -0.16059084634360082
Ni 0.7222744093187083 0.9265205978466465 10.035610271982454 -0.36997351737892414 -0.6240177929876801 -0.7462945742424307
Ni 4.065090052169095 3.0954304316434906 1.0954671528021103 0.30120370690337805 0.4867131708655295 0.3079821632777922
Ni 5.152591742482052 7.718806310985629 2.5881367198844387 0.876896073312793 -1.649890268333597 -0.009550876913228713
Ni 4.526390732209607 1.3232041013923956 6.697970032848211 0.3792150905818501 0.8893864924703199 -0.27685381730410386
Ni 5.833296651378525 4.542140769291039 8.859796004259357 0.1852487541015971 -0.3150557822951219 -1.5660933883215997
Ni 4.617748255883808 5.407360468752297 1.9343429967366752 0.5897688991071391 0.2019645241943812 -0.8499887073989877
Ni 3.3078640814431104 1.4328970800680092 13.078350251846848 0.6334493707142251 -0.34304995351520273 -0.19572625659415324
Ni 7.4329120763995835 0.8785387128377193 2.817504400272309 -0.21098832495954634 0.9897636454385018 -0.5877467264707877
Ni 6.8232193706550675 3.6770763776200273 1.6020181278936907 0.30438236174167577 -0.629909732992083 0.985375286562819
P 1.8578557371909235 5.908164142029532 5.090630329200498 0.7439044767436995 0.2417808848603707 -0.7749418056654783
Ni 3.564569587215249 4.0410995664522495 5.50477408267086 -1.4595201338450348 -0.2908128505873572 -0.5412892063391969
P 6.077294325607581 6.689691214052854 5.401187440877631 1.0521684329279686 -0.6914424022892414 -1.2950906304816343
Ni 7.020652115067383 1.713236777214663 6.726958688685271 -0.49417939733558763 -0.6417828302805849 -2.206047392923562
P 4.086330676423347 3.6843575722568613 7.6499656761714085 -1.7709396049391501 -0.027339568355217433 -0.774981143543846
P 6.769729540543822 8.597272851379646 1.3801509001994723 -0.5957228026977288 -0.8762802941056651 -1.334264215357302
P 3.8682968104224984 5.835735897260626 13.310472361573495 -0.7888337331562221 0.11327406353550815 0.5558151678695138
Ni 1.9888715618920956 2.3492769927868196 11.498328274928197 -1.7652808639914759 0.7010644987600378 -0.7228368574401229
Ni 0.36233855609566995 0.10870814457040553 2.980097039456232 1.0243092446238553 -0.2635627566221525 -0.572663349775104
Ni 4.172882794352285 8.222944533876975 8.617912343128122 -0.5167426273480842 1.366567555475698 0.08886323879131146
Ni 2.0075907184929394 8.539772425979104 1.3178514640803243 -0.8424337778698654 -0.21975347274668605 -0.01014737284664704
Ni 2.679835920697182 9.04209263414933 6.674691222240788 -1.9032238910285741 0.5264562550914224 -1.5955985968695683
Ni 2.952053933989199 3.948554394970284 9.77867089094971 0.6542701641143184 -1.5345312972446024 -0.534043580520377
Ni 2.5441882695457276 1.0301839799597627 8.583148064644377 0.17220811886755505 0.9742370105578125 1.046034809226405
Ni 7.824315115076964 5.250444786089488 12.068511592409331 -1.5030414541664372 0.20886922173401445 -0.7094380675357137
Ni 0.8733322475635267 4.723805205117188 11.35095123131221 0.30057661484234044 -1.5117916895552415 -0.10366019459482792
Ni 7.439416732085188 2.3395291450107822 8.778552672031127 0.7244761928157588 -0.03972611494502836 1.70127813588727
Ni 6.495501661730973 5.41878929496394 3.4563483782460267 1.3078844398121927 1.8008225085415117 0.8049774327956201
Ni 6.311845631888726 1.5995788820115893 0.4928409515137929 -0.32784162120588056 1.7967007730636544 0.5486764999422035
Ni 2.7587870926564264 6.750919026419304 7.130551561746501 -1.983110637352888 -0.9111164279482438 0.14441809323848032
Ni 8.161999929833915 7.118843181512414 3.9695711932915336 -0.7522052832999111 1.518312778503211 0.23486770268030516
Ni 8.92544734792211 3.006493882346656 6.015335653051738 -1.2382232278706289 -0.23046211741344183 2.01709779293161
Ni 7.455650964042093 7.925840731136104 6.598917464954932 -0.0393227088590226 0.8050309117413749 -1.3788597425794897
Ni 7.738950644955791 3.2043377356155056 3.763295040587555 -1.1371693605503963 -1.1867068051588916 1.049791962275992
Ni 4.888961336415409 2.344407636774984 8.950291112910074 0.162446668605417 -1.704550893101271 0.8670405206749519
Ni 1.0627163941401458 3.0954669746529606 4.281318693502141 1.9060485049615623 -0.7889522610119574 -0.38610050484777375
Ni 8.678060309564742 6.283762329111276 7.980766701519507 -0.2859994883591139 1.0571985391527083 -1.1684545438169232
Ni 3.752345841375202 5.973640079246833 9.226390907383008 0.9691500829532085 0.8457376454321176 -1.6548848933347111
Ni 1.8114095721549597 3.7142223467459576 0.3538258620397079 -0.5068125127185659 -0.08581725287613606 0.2835201735806859
Ni 3.2638206192797785 0.4155205113521327 10.812764972922729 0.303213024023923 -0.6061157158962787 -0.47383760045444206
Ni 1.2247937768905461 9.007038752315541 12.159528352520228 -1.4028226811529905 1.0155137578194124 -0.08724087269654007
Ni 0.03722179587057981 6.840321499086878 1.7592882777483543 -0.3124515119030555 0.17985329411763865 -0.8582038962199283
P 5.999896231550799 0.09139498025890765 7.749539895524867 -0.0007713309483857684 -0.10355349381363457 0.8402748225453335
Ni 2.3684255297489316 1.548190274944851 2.377661775392394 1.4937659424017822 -0.09723500779477447 -0.5168837809116389
P 7.06099559752191 7.081085116977867 10.325776384375505 1.0847790198741385 -0.4732585880225204 1.75301618769151
Ni 4.265336608310577 0.1688963083174428 1.3347653960133659 0.6334897370338574 0.23321654023012736 0.028405547725886562
P 1.6484003426630824 0.5657725762381445 4.766181392473466 -0.9585537954946007 0.5047854549862081 0.4778618911224868
P 1.2651738023545431 8.056153102904984 8.191949666820028 -1.3034829683103875 0.4955947896258755 -0.6769215829652471
P 8.815845726770172 2.7244914782691314 10.619819710073289 0.1367353798822419 0.6827009086511855 0.4540493620839212
Ni 4.484229235033963 7.865946738615297 6.230997877738005 2.3037598545753872 0.6450422177581472 -0.9410055021981923
Ni 8.35734972270646 0.6733707268959085 0.34012497421428795 1.3166848117126422 -0.6038472315770761 0.3362506712051822
Ni 1.431261780394241 7.332939538242906 3.553088687215112 1.0498305288234113 -1.0184931521627105 0.13918975496000544
Ni 6.046753505443296 8.939607764091614 4.338947933011064 -0.21086079824274653 -0.08721027656892077 1.1529916722946336
Ni 7.760803364618659 0.8301530275741521 11.349667658104588 1.7152428255974783 -0.0026389802847438426 0.9127920158784537
Ni 6.256090135190361 7.072671089047473 8.45118851672365 -1.0465572573887783 -1.3757931878390242 -0.9279018749366987
Ni 2.384842476753186 6.071520530111372 1.7085720620558584 -0.23594936578025816 0.03829041093976632 -0.6879277042677636
Ni 8.08240925520895 4.586348674996985 9.458152154891142 0.7515830763348798 0.36019638338750226 1.2705224542239668
Ni 1.397971098767362 4.684201718604422 6.6544610121983725 -0.29907791880962686 -0.15398182566751545 0.4550649478326292
Ni 8.29023848581539 5.249741333157197 5.493996635603016 -0.9867665104833909 0.679748768001397 1.595826139499342
Ni 0.6524041752126792 7.731888708375775 5.808070098366368 0.1923123458165978 0.06890196517803618 0.8246548566198894
Ni 1.2990583078853042 6.777924310417398 12.847886281174889 -1.1634066969803705 -1.2935343417381078 0.6497614776106874
Ni 4.738349322886121 5.57498325318972 6.981985956747514 0.3391573033290159 1.7797417766118122 0.19455974708987783
Ni 5.265445691476792 5.234868328303037 10.823849381270119 1.3116575337013798 -0.09122762525842999 1.9970668424226636
Ni 4.1431550561487 6.165344706924777 4.333586159946625 -0.5853090635635726 0.017945271624511032 -0.326568925141044
Ni 1.402036508570864 5.509169293134826 8.983452066853335 0.46527608403767606 0.9140127756594324 0.9016856215526472
Ni 0.3436440660262181 2.4142230563668092 2.192284569804125 -2.2233642869354546 1.2577258166799308 -0.9342015919024814
Ni 2.8372083909783608 3.994854387968369 2.8901491623723237 -0.8972514970406936 0.19075014353580053 0.5507932891748901
Ni 5.08616568701854 7.552992405516954 10.806560883490013 -1.4662787927251069 0.1629850576073903 0.22501266426309635
Ni 2.1655478769256336 2.327606988171299 6.516323868526796 -0.004670923113108085 -0.023501425556049848 -0.14987834502210318
Ni 6.6293038909042075 3.0407620894768486 11.367491510973425 -0.3353451286717773 -0.4139216408251 -1.2400759648086515
Ni 7.912685247727019 8.729467188136216 9.007813464116298 1.2430288767893882 0.09584712630831235 -0.313304346821654
Ni 5.610567008660823 4.110321162140192 13.084473946658731 1.4995306127997012 1.330720978090734 0.5791533283748219
Ni 3.187637580287862 8.0397726989102 12.754502447625594 2.909090355566209 -0.8663892602441982 -0.29285096406330857
Ni 5.629715545622935 0.10518905275847529 12.496921736776656 -0.8619811038741735 -0.7775969839001382 -1.0627986589483052
P 4.626600799927838 1.9321385396904167 11.119083095501379 0.6419766914589459 1.2992650735742979 1.0713727737705614
Ni 2.9415934975285034 5.907405874583037 11.343116410081912 -0.71135431072182 1.8990111384988069 -0.07789851224969165
P 1.2465185960202714 1.4456414546205603 0.40021721256146725 -0.19557353306637285 0.4549757305529326 -0.14216760664140676
Ni 8.3695642236217 3.1141130452348644 13.1264993211241 0.5985394462109177 -0.5148083864398488 -0.14449702610553178
P 7.464494372333755 4.1912456566108 7.305672971727104 1.1540216562210448 -0.1756035177023492 0.836240761685276
P 0.047088408427393535 5.061508291378873 0.4041464996546946 0.018844643510328832 0.6062769240644914 0.2915849528666914
P 5.891610158739768 1.9866972528286495 4.650841605259551 0.593913517403132 -0.21736311813763853 1.181394648917359
Ni 6.018432673104294 0.46973754735182416 10.084788940551514 -1.7919475746493847 0.05909757749310468 -1.293138648961586
