# total energy = -381164.9294504116 ev
CRYSTAL
PRIMVEC
9.28345026216419 0.00000000000000 0.00000000000000

0.00000000000000 9.28345026216419 0.00000000000000

0.00000000000000 0.00000000000000 13.58726784420837

PRIMCOORD
 96 1
Ni 3.8775299460629307 8.278358682903585 13.213073985200989 0.591878232140658 1.219572445538661 -1.2818736175707277
Ni 0.5924233591775703 0.8652073244480836 13.660638391207568 1.2596672566770175 1.2351343045326597 0.021694454254298123
Ni 4.077467607844758 8.874578973114668 6.077000187622358 1.404381540999678 0.3760852867036168 -0.8887755983591984
Ni 8.927039748836872 6.202282201518355 8.855976796085443 1.1120000603736204 -0.3753334961392568 -1.0879072810904746
Ni 2.371485142552501 5.216630468948268 6.571562987394859 -0.7897166499818077 -0.1259172062208154 0.7757031093115351
Ni 0.9361616608349846 0.23995025945308435 11.036842075580656 -1.1137224423813659 -0.9591384643534772 1.7216505288960346
Ni 1.5634072408113493 4.505258265437199 1.8718090185422023 1.0491491864856706 -1.1488753361334147 2.6083283641859403
Ni 5.919099843947994 0.27080566208410356 2.37623641224187 -1.573773530574677 0.30401880775467 -0.4545322152576108
Ni 3.157449866489673 0.4413584197085268 10.389965712319531 0.9285508213746073 -0.6898231215182635 0.8350516264731813
Ni 2.3924657394613993 5.342838971150243 12.290118031933662 -0.18984562944366015 -1.6383897238931653 -0.3154933840531728
Ni 0.16276951317821975 8.96113786053881 5.70150227530785 1.8089723913421554 0.15037071127748938 0.5417635748724541
Ni 6.07873804945481 5.484021678137197 3.0113320775041483 -0.5563098481177452 0.6320308931001437 0.7381367210219868
Ni 2.9695249889556834 5.762887231476304 8.888519001574139 -1.7104263780454414 0.6807288725264792 -0.27652985830578186
Ni 6.630982637206847 6.716408943735907 8.206057317927533 -0.27390321931621214 3.1063343343564696 0.4674769483437369
Ni 9.410354720638216 2.05214374738915 7.062322357718877 -0.728879464089777 -0.8194329460993178 -0.9668931685982317
Ni 6.789488261818581 2.0682412496192515 10.69694340882657 0.2740464297622958 0.7236174443598893 -0.6164222400286095
Ni 6.103561994647021 2.9514779622340477 8.427026635593037 -0.786452120297923 -0.6299606408346764 -0.2468439012055749
Ni 6.389501536855409 1.6913238978059075 4.510836690517976 -0.5373538758405326 -1.0656127313583326 -1.33022115563618
Ni 8.284736413025891 8.520322522652926 7.729293676762743 1.0178141238178149 -0.069355507775687 1.5971949948224107
Ni 4.004750344310512 5.305686604411567 4.751861045131397 0.07459978689376184 0.26258805141370906 -0.9895828968862636
Ni 2.022659510317177 2.933254549963178 6.2412160623042965 0.08100646175105404 -0.4703110753584223 0.012391945906449627
Ni 5.2559737298774305 3.3609802234059 2.001391126459529 -1.1172086011577531 0.4448214157277501 1.0207014726679389
Ni 2.7277096844056974 6.749625127691676 0.821937164185972 -0.172661918575522 -0.4290929492488997 1.7237858300714828
Ni 2.510922560947034 6.904157435720663 3.2614737083229794 1.0398153106792543 -0.28685643704277053 -0.6416118519203596
P 7.087013549576662 3.2230095901049984 6.4439786779088575 0.6846983986971885 -0.7911538966489665 -0.13001425910832445
Ni 9.57959201340335 4.520594524770606 10.74739246094251 -0.35382853218794547 -0.4749989677523949 0.21095104396370767
P 8.576487394909046 5.018670182007853 1.9830071105043565 -0.8843504727083091 1.3366430000021239 1.5235030644548988
Ni 7.8960847804635 0.031066136945104145 11.78185935843563 -0.5509614393216381 -0.1661706544242235 0.46642999513646116
P 0.3213122715897929 1.8371483297727065 2.036786136120836 0.4602696319620202 0.7164641211445596 0.7094460379555136
P 4.457875536842945 0.5377364121550328 3.978677775098725 -0.9770893924049431 0.7508485121617005 0.2881101069442135
P 0.6602890917628828 7.246512503334083 4.458566225519946 -0.32570194915505846 1.669016447640087 -1.497104262746396
Ni 6.407892051225554 5.0274894594695585 0.7891183118884785 0.9015298127010732 -0.4222828683056018 -1.3450751899298772
Ni 2.2302281679658695 0.7644893191454228 4.622116476839776 0.04314465370827409 -0.5939258586983062 0.5340160697165514
Ni 3.2926911655024265 2.8922124176913915 8.84683259787515 -1.0288045613910477 1.4754640587688008 -0.2095593058225036
Ni 7.3989653185721 0.7175327009043186 6.368040057238599 -1.1894635419684225 0.3434019375379828 0.45442937113115933
Ni 3.1823573627315196 9.021201781778 1.8437108005492109 0.36368125661230916 -0.28361119063259543 0.6659653410640595
Ni 2.5250983890354797 7.174695734445927 5.584244875557006 -0.9309026094362354 1.5930575756152694 -0.7758676599138574
Ni 4.382698159069381 6.679377261846707 6.76050811607942 0.9092230675802729 -0.470676429117641 1.3977936033695153
Ni 7.9733602179279535 6.25175370635354 4.5423725700310404 -1.254925371116658 -0.1934875970716216 -2.3837684711895464
Ni 5.9489925528181935 6.415003173894676 10.970984353221626 -0.41205913369506453 -0.47711190033033957 -0.9748628170672694
Ni 7.379665026105907 8.67313739243937 3.9950231454427496 0.23898429595184004 0.22350342670742152 0.5101899138312309
Ni 1.5901714270451335 2.3316869925753134 10.729906154598437 0.560620302567641 2.435447644731393 0.9708634660998893
Ni 4.037483788868377 0.8886795993261619 8.394159509355752 -0.505896942882832 -1.2258533934513665 -1.5363603800335413
Ni 4.696190980758128 1.6989548936727723 0.5891992170065702 -1.7951835650881793 -2.1992702221007288 -0.1360866905546495
Ni 0.7795730686399259 5.6155403137161155 13.894747503946014 -2.5726622782428987 1.2185584024518499 -3.189439844728397
Ni 4.60170402706841 6.096469438877818 13.061494742604179 -0.031595515418093974 -2.2257212172034055 -1.631842666803267
Ni 3.922563961817383 4.521123681418308 10.5428910551605 0.37596264508282345 -0.06923440881679044 1.8271801725994339
Ni 0.4098355370254059 7.030727992471066 2.066487605921866 1.193251548255945 0.053766395088178376 1.0955005200567003
Ni 7.351768258977041 2.730476152493685 2.668865608491211 1.487489365364451 0.23133037895100805 -0.6216374656809617
Ni 7.958144643444023 0.45182643788307236 1.4768270014522993 0.5469731440978515 0.15388155264422532 -0.08084833890663495
Ni 7.200503725333863 4.911325650123967 9.220944491110675 0.04090059486910375 -1.4122367753780387 2.462334698930224
Ni 8.53213107100165 3.1166212535669597 8.8108945063912 0.5299064184235519 -0.8949074222885491 1.2288929516086384
Ni 5.092037287039278 7.755663316373241 3.823892028885838 -0.24348938291104513 -0.726704053705013 0.6360055614771757
Ni 8.770483648716672 1.6024627147917618 4.900954179829003 0.7399256946016096 1.942989086741654 -2.846035078976937
Ni 5.076803145655428 5.173035387937567 8.630333261365235 -0.27911947340982896 -0.7700194286631964 -0.13940161386049538
Ni 6.014793646132471 3.918674196284273 4.670854589128144 -1.0307701697578506 -0.08136564486268567 -0.03574090504503522
P 1.7865071102426016 7.490045246126612 12.599880763428606 -1.2832445297763253 0.6135318058546918 -0.981485978810742
Ni 5.1358737377489305 3.4535733533038413 12.647788935290578 1.3695857734767316 0.5075748448058871 -1.8173644720605926
P 4.315680933810384 7.922134141050389 9.275429987269087 0.4797434244159157 -0.0757603828607663 -0.08172457086400119
Ni 3.5900864849610716 2.695551813745334 4.518962494267692 2.139277386486864 0.29233468654852235 0.11473445013111852
P 1.7838613270040902 2.9415910880269784 12.945160117779329 -1.122754470676647 -0.19756279558225975 -0.7213332763114029
P 4.0027358356692595 5.4221103503560295 2.0919094052914793 0.2719589511056478 -0.47116365316670467 0.8093267109032514
P 4.573593740590471 2.4306671360455203 10.590500299933769 0.27629974457284673 -0.7559760631962529 0.3078232691024247
Ni 6.040332416971577 -0.1329817072925648 8.337650221106129 0.5902859479528737 -0.34761109052332395 0.06063021208754719
Ni 8.938300573637976 6.894771867811417 6.380716608158556 0.47033781483129966 -2.1408336752303905 1.2634418932281015
Ni 8.41267163692037 3.999950800681353 4.576626643692302 -0.8315065894344003 -1.555151030377483 0.08091287359598323
Ni 6.410612102063743 5.378338883796094 6.527772025590009 0.13934967757663744 -2.39632882435306 -0.958744057128536
Ni 6.794547742046611 2.150409065212461 0.1260024096128704 0.47898417765238793 -0.5935895584048099 -0.1644117627515878
Ni 7.450117127849988 7.187692564389493 2.0243258895849414 -0.49789284163143277 -0.026354835844444934 -0.31937137895134027
Ni 5.424997503293493 0.46300742501452213 11.729412507888366 -0.7778852045645184 -0.2721597542625442 1.016166560912063
Ni 7.72787795064389 7.891145985084946 9.923012821072142 -0.04951481890067601 0.4334561113136019 1.0529791017547219
Ni 2.7933529590706603 1.9813295910966406 2.356072758929425 0.5763950489033943 -0.035101728799139545 -1.4679371542641364
Ni 0.97633114881056 5.196930988133808 4.514097966488816 1.8237240957300331 0.011339336272219181 0.2792783675851964
Ni 0.12304563080070939 4.581178319207538 6.874450395849657 -0.5385612658850725 -0.656478998840179 0.5796937742593242
Ni 2.8781944082522606 0.9430871145049128 12.673021352281014 -0.7875561519953791 1.3114351332779284 -0.012339495401959394
Ni 6.883752412709265 6.8962479363550075 13.015094203015659 0.12829367687279195 0.4900350361499109 0.2646984128884925
Ni 6.664495891561325 7.549050854070397 6.004417534112527 -0.816577993149026 1.7320424136533201 -0.2824598506369716
Ni 1.5482009497773783 7.339309869131137 7.797256885572633 0.2533899298542088 1.2235422288196862 -0.07663764325939705
Ni 3.4114729077366506 3.7948144069220993 0.484492113256231 -0.6321339943369113 0.5020320606107869 0.6099296903257302
Ni 3.404241100218053 6.974609537464745 11.027167792377664 0.37825941153680015 1.1262308592610217 -0.5699456937336249
Ni 1.4380435325557053 3.0449530198781587 3.761240810142883 -1.9726220791167384 -0.691993389696705 0.9400631928895811
Ni 1.2341139872912115 1.0785233659668194 8.834291585324605 -0.009214833730048645 -0.9940239633767526 -0.899601999550741
Ni 0.23746322320888358 -0.07555150080693912 3.208510697957956 1.047770560970589 -0.06291977945267228 -0.05289401978555407
Ni 4.162067687327406 3.906345774737806 6.788293481808768 1.6216320448188524 -0.5110152379460038 -0.36698975216025187
Ni 8.606454371378923 2.2085605957599546 12.190537249251063 1.44797793753339 1.059285503588724 -1.2880234392222074
Ni 8.908203628868662 8.081215339559623 13.630203528859724 0.6012632728999839 -1.2731624629499751 -0.453534884341348
Ni 8.536661394581978 3.628130062895879 0.4455071934955119 0.7896030072220788 -0.21441174881879846 -0.06559166985788059
Ni 0.9195452137521368 7.407849580183522 10.20199998760572 1.8507471612860966 0.22191345651248232 0.4898617437968403
P 1.329046546578994 4.112512631442585 8.932038886640164 0.18740359566107082 0.0940938910626315 -0.6925299789264654
Ni 5.195129998841628 7.310131985907834 1.288150164471575 -0.07760643493056957 0.06864948284759789 1.5447609453924107
P 7.39539119033762 4.330924358644195 12.013250277025882 0.014946079786871033 0.07506232835247717 0.33782418633988914
Ni 8.847369181282819 6.465365889925989 11.75009232101857 -0.8437391269448502 -0.10664241715160343 0.361851402492422
P 8.15068339560798 0.8239377476522849 9.246094285396468 0.027176817525108032 0.3055622409823899 0.8831999040436338
P 2.333673650866687 0.14028499737585234 7.065365472615663 -1.4763965978853992 0.1821847704642927 -0.09083373225412099
P 6.355199189254357 8.892932353684973 0.15077065410532137 -0.22067367056811027 0.9077606241021334 -0.5144052374641592
Ni 5.268190750024383 1.6031218397389 6.489061895948097 -0.8279098732220773 1.1273315485243682 0.46582372901103003
