# total energy = -340891.53376789583 ev
CRYSTAL
PRIMVEC
9.07554706926298 0.00000000000000 0.00000000000000

0.00000000000000 9.07554706926298 0.00000000000000

0.00000000000000 0.00000000000000 13.28298050622759

PRIMCOORD
 96 1
Ni 6.510207376741191 1.9832883216999442 11.48589951617052 -0.4192543658919231 -1.2451526080006103 -0.35107616625378896
Ni 4.853638740491815 0.42211003539126984 5.924049572175828 -1.358015552140629 -0.6827343329922823 0.3830663460071403
Ni 2.870150756761874 1.7668819078230333 4.703702539065141 0.5096247853563803 -1.91387340032262 -0.4198876286005478
Ni 3.5211034278348574 4.596991352023577 5.199729273070874 0.9968886865190574 -0.868593981205001 -1.2534271893045767
Ni 5.053164637287113 4.596201779450404 2.7626872068890913 0.404274090433007 -0.5802542747484846 -0.6873880297142098
Ni 7.15229323857292 5.999726019318316 2.7255210275597253 -0.7075719608612523 0.4661384320379714 -0.796525445373525
Ni 4.77066101593419 4.433250336331933 11.504296557125434 1.163343447842603 0.14478756076275712 -0.18281469073880774
Ni 5.36628915360421 8.031504987667216 12.691608599818341 1.8084802821970851 -1.1406197809928422 -0.504959261559911
Ni 2.0128201510459482 6.341393130378247 0.3827130866540222 -0.7532185550557736 0.9462045299006284 0.8890987860265719
Ni 2.4110732965165536 1.4485389520855456 0.3334165314476224 1.1381638632531819 0.8517756240960814 -0.16291280960855814
Ni 0.7419468261350122 -0.01579417412748952 4.523412263750745 0.2715997679940161 -0.7444829749549888 1.0304762926665156
Ni 8.535288591538354 2.488206368923342 1.6280015375301333 1.1155574387075755 -0.30051053749109535 -1.439825997850217
Ni 6.946496138926334 0.7463039961623682 4.817976379270204 0.5180767727784756 0.01402459641386617 -0.6866218409721465
Ni 1.0618026755270724 7.304081759105163 2.7472124920095977 -0.7477984124814671 0.10640793254329416 -0.8723339078634075
Ni 7.875496337864568 3.8365512841373803 3.5746754731472503 -0.8469761458249091 0.523334421632989 1.4370695181510025
Ni 7.718852399784658 3.7625401998360086 12.681592826349917 -0.9743177431970769 1.0029014683720405 0.33700760397586477
Ni 8.028246866359527 9.051433090175706 6.9194501018538 1.0084033720268764 -0.11685509601854713 0.3439696371159947
Ni 6.752914725296873 0.7579687964876353 0.35595837463434793 1.8873984939605428 -0.2511391861468191 0.2552501229913991
Ni 1.611980474732192 6.686545251416318 9.110357893001398 0.9654705772190921 -0.6804619920183378 -0.04433121781720752
Ni 0.24807462694388874 4.946508811081139 1.561108404598175 0.09355781605350338 -1.043571435287577 0.2861606965273265
Ni 6.354443766702634 1.9866644251162664 7.160907747612633 -0.051147983628724816 0.49347748617255655 -0.4287826170973325
Ni 3.541822901220514 4.1926666657316805 0.4414863278478521 -1.1197262253732845 -0.7585523085638614 0.7427341105846822
Ni 6.050231437360883 5.396982652942928 4.903186688345076 0.316031773055146 0.6340180987335017 0.003577175828297065
Ni 5.0728948760696 2.865703738821019 9.369429360024744 0.6753128437172304 0.10076461821458775 0.3470505900341636
P 0.039186396051068356 5.602870508057693 12.747198139188392 0.967417673643134 0.18990785014016326 -1.6768644829295962
P 4.049835709908875 5.9339464559809345 12.73586731898603 -0.5366157121229274 3.283544534424306 -0.3492622529735017
P 2.393847908655854 8.46076927661517 1.3024290011973698 -0.5745502823851717 0.12454295158110808 -0.18893571603488107
P 6.504090458185812 7.899873256617909 6.072619903806383 -0.6277150393336093 -0.2102103091429412 -2.5360564540944064
P 4.726408649649274 1.1719616628048222 12.61473962582396 -0.9392998323609952 -1.5965193089116245 -0.7396292464071132
P 4.022527389533297 5.979587380929016 8.101541890016954 -0.2676454113319584 0.01681887132955168 2.1412437661846155
P 4.754179822912572 1.0895647732435525 3.650389130031692 0.8629655792746299 -0.4635315905427436 0.40516549189902484
P -0.008260562713808517 5.620241104667481 3.685602251685809 1.4295531551692993 0.8187963409565833 0.3341680776445406
Ni 1.6290878804842566 1.1374201316152426 2.531045672568684 -0.5648363975315176 -0.22812781285331035 0.417504730190668
Ni 2.1477372300433966 6.703825092557925 4.818294930963518 -0.12040347549143779 -0.5168079333683809 0.33569531292234445
Ni 6.028776844682962 5.417874561718127 9.372524121489706 -1.1632987106475965 1.5875119632066919 0.1281952036217147
Ni 8.686614259182875 2.224008125502468 10.08742763321623 -0.352269929451574 0.4804386507107274 0.016751765537042117
Ni 2.2498099051062446 5.357131926864776 6.913857749904504 -0.4242731592627532 -0.05608887257376791 1.6560334051168575
Ni 0.5615485518134812 -0.1033505120548326 9.045124677582466 -0.24525830188600986 0.4091851545813792 0.24700742336663267
Ni 1.4570699660945325 1.1496085909919125 11.378519461328464 -0.5247631836597156 0.04364601882472484 -0.4220429843806538
Ni 4.012108661786152 6.912490064999021 1.6324512781350338 1.1116406201516726 -0.7880544317880364 -0.4662901271244873
Ni 5.794555132402178 7.824981844275184 8.028937515472382 -1.5814505875039604 -0.31753946794892407 1.1327655750557457
Ni 5.444928766782798 2.8323420287177887 5.090529571091794 -1.0341971931615286 -0.022989261806321697 -0.9188117397099724
Ni 0.9673171576041318 7.549484545065811 6.840761480722394 -0.6849328833054978 -0.30769419972372813 -0.1069748607903577
Ni 5.127284628150302 4.273910960847055 7.1954837658801205 0.32362886867611357 0.3602640034006441 -0.08347112124146269
Ni 8.10409121111815 6.977507282403684 9.158654322948447 0.8542245998572062 0.42025761034545683 0.056926795094030994
Ni 4.491488120263497 0.3559021062440759 10.46022750008087 0.5894984190545719 0.1422552812592066 0.06334966790123929
Ni 8.052351518708324 7.32362141140447 4.644167859493275 0.2053180140476464 0.16373479128922122 0.44679987961035955
Ni 7.416201064495615 6.180066210140211 7.091039650433712 -0.4387281583458186 -0.8326970101980755 -1.192210251475624
Ni 2.5327945304405266 5.120523345770839 2.7365596151545457 -0.027460924424430124 0.18100900498863665 -0.16494295266470949
Ni 2.1346049137976473 5.411439999024115 11.547466210674953 0.038989493889319944 -0.6157267566234815 -0.4936206966186402
Ni 1.0908353497980825 3.3768113089743417 3.7498916102356628 0.7838745893787339 0.6481483674872967 0.12095986221554006
Ni 3.7379363924122173 2.656766499975381 2.5191040680654657 0.09215090840364774 -0.19227223660728177 -0.412751788886715
Ni 1.1205759167209022 3.32853847544902 8.093000892906467 -0.41156522477778146 0.04570727222912773 0.08360918948122376
Ni 3.4029216571699323 2.5144982280552948 7.100231364251053 1.0047292656093987 0.3499243120375328 -0.017920074813530428
Ni 4.492931132207571 6.77193707142755 6.242734676028357 -0.09074142965063083 0.6542822482991764 -1.7601211741674077
Ni 0.644993667032238 7.398059046406291 11.181001983044005 0.27347101687479997 -0.23309492705059856 0.9560711382820631
P 0.21050004800770986 5.383097066311278 8.005744955578802 0.25682903744274477 1.0840501121279138 0.25419699913653643
P 8.431663997969617 1.9161928040739427 7.922700071974721 -0.01924085050748299 -1.187395089475168 0.37705973480174415
P 1.5328870842127005 3.33060770012354 10.422357965873108 0.7758326929108639 0.14248410944056106 -0.18315536190767812
P 4.184226407190875 6.226678218597826 3.836775450143787 -0.8580673706420643 0.15528897451471319 0.3159271291564817
P 6.677288193661885 3.8985281933579894 10.715566194697946 1.2719162492476999 0.8549370525431985 -1.3975071824773482
P 6.357275337309872 7.7873092494333696 10.141528782908116 -1.7953951668783532 0.010516326150291567 0.994640256804513
P 2.602376747894679 8.722635104503802 5.705451413742354 -0.12156844233381645 -0.09767980864167693 0.3004850835697986
P 6.825900272807803 4.020076991892418 1.471820452337944 0.8381109821247953 0.4632598249385957 1.0939552870567675
Ni 5.395494263264763 2.735288131045334 0.49561833439892033 -0.30583117837306034 1.0282337764892422 0.3012062780065393
Ni 1.2272952717546028 0.9666455671395945 7.014622638670868 1.2481204323796826 0.3330933565231231 -0.3578551368488353
Ni 6.833877678460887 0.6226369650006011 9.031576701292447 -0.5658334713374642 0.9441790148301674 0.5188347339904226
Ni 2.7586395130082315 1.7570893928063345 9.267814092521526 -1.175876290202291 -0.6096098450924662 0.47806783648570567
Ni 6.499879404462226 2.2078718032599367 2.807570323677863 -1.5806118936527487 -1.480131125227167 -0.5897889537117972
Ni 4.061497787570096 7.029401259109416 10.468064234758277 0.2574705276814856 -1.0372886876026588 -0.48880579172850014
Ni 8.348550140209719 7.060802651099943 0.8292336203218584 -0.1684555938036583 0.615273728246463 -0.3630685627289747
Ni 7.497082337738267 3.982840023297872 8.286879076916879 0.8984655719534526 -0.9183224587783798 0.090959716309024
Ni 3.1892379073384434 8.417170349701156 12.428247121814092 -2.1505629867030125 -0.0007852149054567122 -0.03769520055792863
Ni -0.07273960019215985 4.89032210073046 10.434750625053182 -0.5474886502816894 -0.4954400092155661 -0.28022427643823355
Ni 8.951910643768736 2.3882482962691043 5.674249683781825 -1.0929751825316856 0.17381145879893292 0.886505314267783
Ni 3.32199500619319 2.681370307399172 11.596732816576854 0.06587911919131235 -0.32560219035240057 0.2034025421924884
Ni 0.9040034203372208 3.295920960184872 12.573124613444374 1.606133177852305 0.9159128208956226 0.8069219581165006
Ni 3.155712837392488 8.255807127275848 7.845233926999711 0.2578073421956141 0.43747114601026593 0.5760968009366851
Ni 5.563927336661349 7.908976030076435 3.704915015314665 1.1554308778637454 0.3930386267285037 0.28025590100711734
Ni 3.222799279471671 8.342705488058881 3.3982377674571262 -0.27200780206571223 1.195611049627057 0.8685986091906911
Ni 3.272914449001061 4.464833239258821 9.651346701053221 -0.13244935091237836 0.42356584878308345 -1.583742983082563
Ni 7.404593440115303 6.519273848012445 11.49312546654707 -0.31805163169865225 -0.8557893732411649 1.1897746454509381
Ni 0.5953912658980692 -0.20582977161513036 -0.06642664982550943 -0.2996697867573549 -0.038038185719644166 0.5573447171401628
Ni 4.61090416529568 0.19746847033164125 1.4314406218802993 -0.26757239200217786 1.004245898215077 0.6425431054853773
Ni 6.078955543040078 5.771739207701547 0.3339764926862974 -0.10508741395965772 -0.09042184152768298 0.18860610060960423
Ni 7.952602183630903 8.980897940305656 10.907638344891561 1.0091291944493073 0.5197523607086856 1.9182275635262576
Ni 0.09444921573566824 4.88495845256098 5.781709603435879 -0.03363979954163239 0.015977092154546676 -0.3251926136188077
Ni 8.038574838638493 8.872236418252887 2.487251621398081 0.7885930779003257 0.7353696997998109 0.7811700459633772
P 8.802046139161924 1.6357765584891752 3.6853889763355845 -1.7656580448252366 -0.5335617557879521 -1.4402831399922937
P 1.8062244032793726 3.2662529976365966 1.6702282417652556 0.16725128908291198 -0.5431198317900323 -1.3616634333058613
P 4.532582196255724 1.0192837386844082 8.314242758128046 1.5816963849661791 -0.599547832870774 -1.0757955854286052
P 8.5882444072218 1.6699369167123954 12.44280520646496 -1.0351186765345335 -1.7193187954390647 0.6342901214479657
P 6.42805552694401 7.880397133146328 1.5525547017221428 -1.1983407898533944 -0.6115410006769081 -1.030359564582993
P 1.9154213825944066 3.208813861825023 5.814212766810121 -1.1135558348965144 1.9238428528305063 0.9825205907228435
P 7.096142830409512 3.8706934912669646 5.988658389973678 0.08995930006896764 0.10267726185626831 0.4157072719706131
P 2.308474239738257 8.601004626048008 10.285250957428456 0.8328206802601335 -0.8246522855167281 -0.37907547968019234
