# total energy = -381169.6495537919 ev
CRYSTAL
PRIMVEC
9.25996722360894 0.00000000000000 0.00000000000000

0.00000000000000 9.25996722360894 0.00000000000000

0.00000000000000 0.00000000000000 13.55289804357962

PRIMCOORD
 96 1
Ni 0.5707473378394163 1.6145863995125622 8.118809579018318 -0.1931708371621512 -0.45760519775597963 -1.0687373930302433
Ni 4.750224269932393 1.1042418276658534 6.304916275651082 -0.3385073284498428 -0.34972042355684285 0.5095777341685289
Ni 8.780884269284483 1.6481723005175526 1.570658967147668 -1.0339236277851678 -1.2534927524351898 -1.6696520243415567
Ni 2.263987898679904 5.568647950253327 0.983295544179122 0.4391883858116888 0.09934099839418375 0.16953520002108222
Ni 4.869418567626418 4.484620630967373 7.593525902100931 -1.8707089491200042 -1.3531559100554824 0.07253004884892669
Ni 2.3712275787291976 3.4022323258743823 7.057684936588069 -1.8205402986854131 -1.5403867275841148 -1.1966639163716035
Ni 6.957476349627578 9.067933992265923 5.10776178917523 -1.2210094350955036 0.4836425023600057 0.20630531766158017
Ni 2.1851855778769083 8.77259659864774 4.643981888349665 -0.07885084886063194 0.8762396706757167 -0.9120163140546939
Ni 5.647635470400161 6.185861803461655 5.977925536180857 -0.4433193772609269 0.47942949271992275 0.9829975303592617
Ni 2.433797177044808 7.588487553951823 12.898116627910285 1.9121669591544748 -0.1668802788967384 1.6546678922278986
Ni 4.688441768828094 8.10048965992588 3.8876898098961643 0.3061811055133114 0.5657316556522773 1.4895462478934798
Ni 6.507377124331315 7.632805756932216 13.337271497982451 -1.0757295080773603 -0.43215667577588796 0.1365183787754294
Ni 3.1457590145605674 2.4326582010802054 11.028426466231588 -1.223451725988409 0.3668326577570973 -2.028922810590996
Ni 9.278209327259393 7.3826199633416945 4.21156271841288 -0.11179593632808488 1.0803029863806555 -1.0007998486480054
Ni 6.659249846245525 4.439061592383267 3.7429583746803403 0.7861307324027622 0.16791849035326564 0.34944685818048205
Ni 1.3696139674510763 1.0443668798030838 10.480198442606131 -0.24324975609641333 -1.648917620007683 -0.4777184235660869
Ni 2.1146894476450395 7.897779718128186 10.37936480786019 0.29733933885196534 -0.09739390197014194 -0.4082788407170259
Ni 4.678524343965577 8.371075161240139 11.749238054392638 0.2416782978442354 -0.6556457043056063 1.219176495651823
Ni 7.95091340987526 1.6062339091054765 9.693453110048656 0.34449542771247765 -0.530226520767132 0.27463778348939155
Ni 7.58602440267878 6.996294132095987 9.049771492615747 -1.0030904444543949 -0.45220125313158893 -1.147947939223139
Ni 4.920024288330104 6.597559944813144 8.567600370950368 0.6203848242207831 1.2401284153131416 0.1847705289135979
Ni 6.551519387935061 4.6378267881572155 9.133230650919545 1.140533906147255 0.08867683381211824 1.080594035258513
Ni 4.680033718617856 4.378825505800013 1.3878709187666094 -0.46818323038214205 0.29088689835840226 -2.1487148777506797
Ni 0.04687580591879248 0.8006426913190648 4.941820399106379 -0.05531137097779506 0.000962621023585439 -0.06815660237157939
P 7.950598570990735 0.25116827610958065 7.881904430374408 0.786814131623032 0.1325714783125394 -1.1834774995883166
Ni 6.350485500199099 8.461054262443747 2.173831006106211 -0.5581245327289807 0.7790547993925873 0.1761244232028257
P 4.147002227151013 8.524688756986425 9.766123480577182 -0.372800445304758 0.0063773642812535326 -0.9475625865904198
Ni 3.8588042682377783 2.0380446991977546 1.6932313008732958 -1.6879217691850221 -1.1177927557959977 -1.1931047382654354
P 6.356810057791161 0.5393995709047065 12.850966726962612 -0.6985671862594808 0.656471028420379 -0.14856528263763447
P 5.232881539875347 8.305255314440174 6.931385466067705 0.029518835394723355 -1.033026055671563 -0.45719716368428354
P 2.0865761872504573 1.0190501295004528 6.33606124930429 -0.19601164904505597 0.3153689426601665 0.15367946393574825
Ni 4.3807886188446945 0.9805749658181444 3.9242685322975737 0.24658601955849793 -0.23402386662277117 -1.2156666827263516
Ni 3.3041507533778693 4.944646541093344 5.777668559692295 0.3973783917544382 1.0453845772369157 -1.777981599387596
Ni 6.472772626935217 5.733419806465842 1.7693037833481218 -0.23504125214369198 0.07992377020983654 0.6774676852767042
Ni 6.083715105367901 6.307815571378864 10.997946358222757 1.3826739741192573 0.34457975989616785 -0.7514807464290606
Ni 2.8273087428314234 4.276938086787633 12.569404460539088 0.23927174528527184 -0.594755296578137 0.5992004768336843
Ni 3.31394779866689 2.675287861442143 4.938703494149588 -0.957732585144886 0.3135938530376147 0.1166794896726313
Ni 8.25627008799507 5.322943980783681 4.945249364957536 1.2224649365951077 -0.07300724559566135 1.1057574218980182
Ni 3.7831781161816016 6.2444403559175585 10.830974333805448 0.6935046841349088 1.0846100983964417 0.8436704784904437
Ni 0.3024870142870426 5.201008732800856 2.6628054256674734 -0.25444742458444564 0.7792869700080515 0.12486356814532044
Ni 2.1787128608097763 6.364134691839947 3.616414441026111 1.1829931037527304 -0.3871999085595396 1.1774719168241852
Ni 8.092785367222227 7.61529515897235 6.358937998251857 -1.7356013346491723 -1.2110757209215595 0.6988520644897513
Ni 7.016841999294794 3.19835562821051 13.002569057834819 -0.4194639107995679 -0.6991287151899056 0.3149231133719996
Ni 6.170805096807639 1.7329195202577423 1.2108009001265434 0.4138357659795131 -0.4759106809333868 0.010003905290247287
Ni 7.511926145209266 8.655115394884215 11.064193089510267 -2.211545439923656 -0.07476279483418737 1.937011014781348
Ni 8.885494118651279 1.4257849284370894 11.928258222123315 -0.3827447010016634 -0.11928324584406555 0.6731181500587569
Ni 0.8069450249898661 3.1152844625320526 10.038292436281253 -0.9479022293180256 -0.03846421751346924 -0.5202048748650718
Ni 4.780032104323091 4.000259527061111 10.9308190040553 1.482420692592292 0.447744502911816 -0.3707541042986905
Ni 2.914352434435202 8.009871620986031 8.012527379576667 -0.008050381108302265 -0.622472045767115 -0.3031867987716778
Ni 6.901388728346292 1.5428586936441717 3.643059996620778 0.7313942600918306 0.2979630884788933 -0.41804183364106073
Ni 4.418884123872136 2.362541729503204 12.861090649093507 1.381728836597169 -0.11898654053925314 1.3265197955251928
Ni 0.5241400709691887 8.373880931299281 11.942217622665094 -0.2083917678769637 0.4641527690665103 0.05834527270811241
Ni 5.184914909821349 3.0096374968397646 3.094207851206589 -0.7153981417738906 -0.3720206297159399 0.8916027833953483
Ni -0.12594851776379123 3.7539166198552247 12.038673144922711 1.074432900753124 0.32131898959601435 0.12416499941639907
Ni 0.7856285805141322 8.374093910544696 6.681131148719964 2.3019791085258805 1.661408553385842 0.6456675100469719
Ni 5.294645521045262 1.177358528613028 10.787184874951715 0.4381874553510002 0.8962940182234306 0.3963638344469948
P 7.889705026736857 3.899233284997576 1.8483848291635931 -0.8428778073858194 -0.31016734385456907 -0.0874920694753977
Ni 8.567562405084882 5.201453211226068 13.76039273486186 -0.6417018405310045 1.0568573537632058 -0.3106147158046328
P 8.31947862404692 5.667905538583211 7.294210426577112 -0.9491091051419333 0.9442070398546255 -0.09802433646528924
Ni 2.8715436061070885 0.9981040837123947 8.615902211816712 0.7905499445163804 0.7368177451002471 -0.10414793286452385
P 8.295180470135397 6.829049864643237 12.24821509051458 -0.4224507613420337 -0.4015744321136568 -0.40707299333438274
P 3.4007877709924474 3.1508242166145317 8.70879449869889 1.9739163724481295 0.4371865248903116 3.6241061743000165
P 5.552998605699031 2.924519878411899 5.2668998813481975 0.5835967088581562 -0.05124002912189885 0.15033137339912175
Ni 4.191338950065789 9.220241932638153 0.41973301488389425 1.474442816593138 -0.09246098344489882 1.2116891861358423
Ni 1.139225983716819 5.944704477883227 12.127417892499638 -1.221540110787993 -0.39874673285687456 -0.26634983244898647
Ni 1.2021937606216804 7.443393128022078 1.7814334143727801 -0.564137314581964 0.7519224619521695 0.18737917018103858
Ni 9.082879579313635 2.8676266399849184 3.3172073071184363 0.643908104153704 1.236140377199671 3.0737669419434095
Ni 2.717717031115389 0.5462167587513769 12.394613319824945 -0.3489346944307539 0.7402581382403639 -1.2617591062090399
Ni 2.9840244275869927 3.9676366626440775 2.7736685308789544 -1.4102505981859454 0.1474810484345202 0.7013822871107728
Ni 6.797834515239371 7.009961843671218 4.235971991930706 0.7016070015270691 -0.38435086914651867 -1.8737873309350117
Ni 0.12826258356504489 3.021110596190518 6.080237061690626 1.1957182646288826 1.102237581670218 -1.328407756576525
Ni 0.4207895771404891 4.4059572096722555 8.080481648814361 0.9460554059172738 -1.195566569542367 0.4414512137039365
Ni 1.048357925662789 6.038933904027915 6.01491169713871 0.5177800674736631 -0.4579391840566307 0.30331072594405184
Ni 3.8406084327057117 7.336116408104017 2.003579101309535 -0.6576884457672479 0.12446196183152758 -1.1024245008700433
Ni 9.110631700987735 8.587684313792861 9.647440333072149 1.9368258953537354 1.2054236648421046 -1.8729128987498584
Ni 7.456560801368948 1.8959597626053737 6.106122373978839 -1.3265946146271863 -0.8364420790628045 0.7994852993327972
Ni 1.491632555138629 0.35190931118360513 0.8840768477114445 0.24964074722442167 0.19846216746807757 -0.28458820983388405
Ni 2.224920097097314 4.837332781306515 10.32015194765164 -0.7801554886559339 -1.0404334038792276 -0.13126510079629006
Ni 1.9273325314515013 1.4321557858651106 3.004392651422277 0.03244500790258283 0.4932082916715699 0.6560233993599992
Ni 0.8300356791795663 3.6547145913284926 0.9356706069145055 1.0224220549034713 -1.1192287169115758 -0.09966315762029289
Ni 4.768262686022196 5.9390744178305575 3.6524921992024386 -0.8920889790031474 -2.2501430976911956 0.023935427769674906
Ni 6.156572527233702 9.11301151255605 9.037180715224933 -0.5322114124076447 -0.7574439059910311 -0.9493037376512427
Ni 3.381832618150646 7.3017711897892905 5.794771719095719 0.8238367315939682 -0.5537184332414851 0.6052680231840026
Ni 6.855366691402591 4.180041790091681 6.681470063519187 1.0633195644487814 -0.4610959845180575 -0.6401424664636847
Ni 8.878910281977845 5.339676741499429 10.13061523518113 -0.2434986388824258 -0.18965511069940885 1.0446009049933558
Ni 0.8222610107252544 6.784907601039491 8.490335204701227 -0.24370201314248352 -0.242671257885124 0.09469681475395304
Ni 6.014543150444473 5.299025485527026 13.058894660272937 -1.0587404297185314 -0.4106658528919638 -0.23341888604892058
Ni 8.117583559362112 7.115155070971104 1.4685650508669084 1.744010898869106 1.1752247726612213 0.9813605089764711
P 0.20579165887915535 9.293488273126012 2.908221410157451 0.4111047402015952 -0.5551821622712052 -0.5836134210287045
Ni 2.7327274379334447 5.448953614330939 8.243469109348998 0.5064379029879665 0.4659931647093588 -1.0383281846107666
P 1.45810221393679 2.1982976914206267 13.041059037464635 -0.029088946946156356 -0.011274287362238648 -0.6016821056049573
Ni 8.367926772394895 9.055553416130365 0.04624612814974386 -0.48618789448967886 0.40208171076737853 0.9225074433940048
P 7.309243983313147 3.2480538721293915 10.838781412144932 -0.5964198287647534 1.3441830171329108 -0.37753770287942723
P 4.1395942533975 6.387127190377413 13.675551989453032 0.7062259883563192 -0.45972198698866634 -1.0150956964453874
P 1.495808800342172 4.214998166241072 4.321300737610546 -0.5903731083500413 0.10808146359097516 1.2485127827220948
Ni 6.174898002306455 2.2913233218303675 8.309579719118787 -0.8087888361219103 0.2529890948713643 -0.36913405219676426
