# total energy = -340856.5611748932 ev
CRYSTAL
PRIMVEC
9.39709991143557 0.00000000000000 0.00000000000000
0.00000000000000 9.39709991143557 0.00000000000000
0.00000000000000 0.00000000000000 13.75360559379799
PRIMCOORD
 96 1
Ni 1.0540538860138025 4.774412666969997 8.819004279536609 -0.5315310985111684 -0.10066177408813633 1.2373104862483724
Ni 3.8751384111228497 3.6579996269408994 7.498121625223606 -0.06501188609501062 -0.3925966540950787 -0.6886023617372851
Ni 0.46443192178760034 9.183635243020406 4.944929620106727 1.255031043456587 2.527512421179137 -0.8920918072166248
Ni 8.132344104336395 5.295669790723524 5.351652072840872 -0.2419976288568671 0.17887756046793066 -0.3814681482820849
Ni 6.941881918189075 6.375067654793272 2.2123084524395997 0.306494265878356 -0.18555163005399655 -0.36894327634219687
Ni 0.2071252346764195 1.4124310796065238 9.778401179655885 0.7759864448799088 -1.020113718485269 -0.9744403848178702
Ni 5.660859881643112 7.347423155483238 13.191702208235201 0.047640998916730855 0.0026634057647760582 -0.42145702997019674
Ni 4.850106305546428 5.318401375045856 9.33307262197282 1.7584180754333716 2.397748330408406 -0.4339011692708205
Ni 2.609104748695994 4.361504103463057 2.231206020059364 0.10526147764367678 0.023672403916275363 1.3586061345367764
Ni 4.89899941560393 6.1436452789743035 3.5578509759459322 0.5615081044892329 -0.6148140150012251 -0.6165165995146286
Ni 8.646224504777383 4.179322530392755 3.255437270271036 -0.5140545389929599 -0.05617346186777423 -0.12418274002821193
Ni 5.552210614204167 3.201046856853235 9.009835882937091 2.2940588252375393 -0.5349586361354787 -0.9106921959266315
Ni 5.1741464966117405 5.205711354709597 0.926642369191654 -0.05077620211160287 0.44318182324179806 -0.35151865310784625
Ni 1.2656295871371241 1.9704590547256098 4.972657642372087 -1.9105330230954773 0.9359208885864334 -0.7970409515573629
Ni 6.280617405093492 1.7213983226548784 10.787090566572516 1.1787721236928475 0.944319911283406 0.8631602117839392
Ni 4.854165852643265 6.108763244660746 7.181500444419758 0.9674328431517855 -0.04645392058716516 -1.3941608917129344
Ni 3.2905260407793406 7.9209845365075795 11.40356850220624 1.0957578874831453 0.46386737661560756 -1.326235945736187
Ni 8.870373525381185 7.81307763994977 11.773251346521654 2.75744514845167 -1.3440860865437303 2.187026114626053
Ni 3.239734716570078 7.411323433859369 8.494887032253255 -2.6548488763449822 -1.294252450851055 -0.5932144344535784
Ni 9.034446887211663 3.03652243423422 11.230024743236427 -1.3808232940637637 2.4159753949393936 1.276407195139518
Ni 1.7023973869377402 8.932046691113912 9.621775019386156 0.11469202692895732 0.3780488381878908 -0.13610880204183654
Ni 6.755217928532683 2.7859675633014582 12.915777047367163 0.0340311214427801 0.834843110006801 -0.4564589999666784
Ni 5.45422705499418 0.8288458122669139 13.30804394153866 -1.1745519149639128 0.8787449535960736 0.30322356554688423
Ni 2.6093584703895463 1.9959909747767786 8.839304834150719 -0.5246593110919996 0.017433622095415137 0.5499725930458077
P 3.2532759373259608 7.369581516720138 3.4650969027530496 -1.5894552029759916 1.9476823784522648 -0.5455250987974154
P 9.375082356455247 7.250642425042684 0.44659152789097023 -1.0486151683590714 -0.4172748735680491 -1.067337170248607
P 3.4203845623793043 2.1985548572291136 3.250871219497071 0.49234902899506816 -0.6144797715902579 1.6067443290737424
P 3.7368976765358988 6.375819422774167 12.913810234387144 -0.4142679684209252 0.6028154478784521 -0.46592425914463625
P 2.904878463679629 5.3518268588964295 9.824255267650617 -1.5985923893905694 1.2601506240713396 -0.9454617381973328
P 4.940703744344117 3.1604231945855856 0.3614848144837489 -0.10675940234544196 -0.8579637551846643 0.42562633085653795
P 4.892590593566795 4.789231893293403 5.338214220182361 -1.037753028833587 0.24268025674618846 -0.45710871773553535
P 8.358588678186942 0.10079517145853761 10.861345509175509 -1.4599842179656468 1.4887260659850297 -1.5801156707426207
Ni 6.804505716780154 3.78563103589746 1.6336256520454056 1.7175609322076937 -0.11397546047790694 -0.4155779454816004
Ni 8.759628704695492 7.626141134400303 6.026444650752671 -0.5829035394458736 -3.8525067811987395 0.47000331431001635
Ni 1.930333438745304 3.722773835594822 0.11062829664865281 -2.166992593013945 0.815238448401996 0.5363637440131215
Ni 1.8592537761516195 7.628020554352542 13.129054563257236 -1.1710739837176414 0.251968881136966 0.45912960482030607
Ni 8.752468114677463 7.768977050770478 8.35900121086646 -1.0657705970924356 -0.8806575972377543 1.9285256030181563
Ni 2.921708669351931 3.456384851564445 4.894536732927339 1.7228414638803424 1.5315681008512203 0.7567196262304968
Ni 1.2898459132217255 0.7475778141121411 2.754256110447327 -1.5600710933869197 0.4480023845588929 0.0725094800236364
Ni 2.7378732067236586 0.2697033411161502 4.343718212745041 2.5506621198227233 -1.4132654737528694 -0.2973964173421459
Ni 7.031802765803957 0.16297108202848914 9.043517907611145 1.4226685122343241 -0.48714794441010295 -0.03255042313219555
Ni 8.207107430036467 0.6235511326239753 12.890071280970412 -1.6381454690928434 0.11381733763348785 1.2965834129770768
Ni 6.465636902291676 3.9891722167249597 6.516843578310383 -0.5127679589710523 -0.810995356854926 -0.5066117095616695
Ni 4.964121316949016 3.8397583305219474 3.028928637917198 -1.0358000188722742 0.4446982598863245 1.499857657121817
Ni 3.367187580631175 2.816188636133464 12.530249753144394 3.6329232583710143 -3.399637298355532 2.2587992307042972
Ni 1.5821145099944351 7.3105301418207835 5.163103024972384 1.9744704451793869 -0.5362225904495669 0.10242889329088811
Ni 6.686168039487416 2.6030248251505 4.104130696943571 1.647016546330228 0.5422780526150274 -0.09673569956085275
Ni 4.8835693777960465 7.800541908868334 1.7126129740881362 0.2763398537821628 0.38995741670001877 0.46732859569133056
Ni 5.697085701222522 8.936040458512421 3.697587728814865 1.3104953950724785 -0.8618561482605351 0.07691815061429333
Ni 8.063829849977516 0.6295126527124779 1.9802715062962504 -0.25051260830641375 -0.3461681874292103 -0.08011274629219106
Ni 8.191818348725002 0.23189974848683592 6.818803404066814 0.2003061626553518 2.931031892834307 0.7943623762839352
Ni 8.806604806401712 7.324146539374756 3.4382634843849553 -0.030857865921121046 -0.2030114774016568 0.42151873644606763
Ni 8.283571630793318 2.9838422929729567 8.812512763021575 -0.5873741736227174 0.140142605791578 -1.2659466619278263
Ni 3.9260988831278136 3.634281347143642 10.529856237129495 -0.4168485846639079 -1.5435013619536966 -0.6190056844850694
Ni 0.8806106760114367 0.7926829532559044 0.377832009228325 -1.9700473764110267 -0.034682896094166075 2.552942431216468
Ni 5.604684019270684 8.922790547849134 11.39146503771382 0.2391766144683042 0.4035937765365308 0.20238592800251595
P 7.85708425813145 9.038309095213513 4.659061387981367 -3.288827380089801 -0.6122706797540811 -1.202591337599632
P 3.6872997839963078 0.6273278270179999 10.855197926511735 0.17510395235811135 0.2102103091429412 -0.7059727346949326
P 6.6362976310547515 4.090670291245634 10.96851379369209 0.3683154129502108 -1.4863747921440336 -1.1282435188156763
P 6.570696477621844 8.832352859747386 0.654386775780363 0.8313448670455554 0.5441025074182758 1.4682986513686132
P 4.1593255021009305 9.001566435147238 7.352828367265877 -0.6410919748611476 0.7737560128874933 -0.17236752726355475
P 1.1731621254869582 8.240063058898981 7.452350231706774 1.6002350672003152 0.2539838546844658 -0.6033378960408253
P 0.7964408534504065 5.672991537434816 2.6576370101226656 0.46037299030910395 -0.31756157943611113 0.16131821142792863
P 6.518270058054133 1.8717707130335322 7.108372214078132 -0.04478270353232932 -0.5026293278751538 0.3775060783105434
Ni 3.2331661438370016 6.285832795460956 1.0784995013325769 -2.4125041485613417 0.6828320349124111 2.1272572220975365
Ni 7.08825114406946 4.96030609444597 8.48453048860644 1.4089388213530574 1.0010962968425017 1.056679433424445
Ni 4.957129874726687 1.0802342059484937 9.019683103776847 -2.150902629430618 -1.234502841596248 -0.9550254706263683
Ni 1.198459118044097 3.6613543915556463 6.763473280672894 0.7305023444051806 -1.7696465971593394 0.5899175088698614
Ni 5.005863234088248 1.3195219542675816 4.9072312749947375 -1.2969492809569279 0.6330775891971033 1.0289621700148346
Ni 7.216841057201662 5.591114607215518 13.187974378759934 -0.32488793789419534 -0.7678766712885808 0.49022966865922024
Ni 8.594662618387702 3.0187431214860383 5.896198028932569 -0.9212424606386521 -1.3863619644938059 -0.3644021939387337
Ni 2.93600165808871 1.8234508260614637 1.2991791127045451 0.9327787434130257 0.04628474199915254 -1.652093189522187
Ni 0.043547100003357125 5.4151257228878436 12.763826883938606 1.182812612310808 -0.3750943835452572 0.06462982016524353
Ni 5.4922853090270225 1.79921570577734 2.028477688361208 -0.3214966528244592 -1.6805445028843444 -0.15116518215432675
Ni 1.3449599033211386 8.04397377818211 1.8486359931314447 0.522154542392275 -1.2372940311881402 0.5426279797552783
Ni 5.091489607112264 8.031513223898765 9.38951724139842 0.3365332354426075 0.4790849648963104 0.5707440212652041
Ni 0.8149672356296039 2.8779651699635647 1.9574271567767834 -1.9541294196291892 -0.18701921573845856 -0.4906955525520453
Ni 6.046441679044496 8.72745303511316 6.35800252162694 0.9205675460588144 1.191034228889652 0.6600939698849471
Ni 2.679676967902574 1.0789374061814487 6.490601237517269 0.3614523672817904 -0.14348606834251418 2.23589532952293
Ni 0.9099503008858421 1.2008365842836797 11.973572141260993 1.3374778371985934 -1.0891380681737823 -0.8414107359219896
Ni 2.3702022814671144 4.901658794836348 11.904240339222891 0.025107593700905144 2.3938947609902708 0.3380082773262373
Ni 5.134735060213286 5.368365754476134 11.718594055470637 0.30716763779629674 0.21484960768716546 0.32852013533014385
Ni 1.38041516072013 6.703026436459003 10.531548654796488 -0.5683109863436793 -0.09842722833066274 -0.11906521629598851
Ni 1.0182885243226913 5.0838215737071275 4.741307624221281 0.31060725960546504 -0.45118026806624234 0.1889711972585068
Ni 2.6256530413754597 5.408980019644022 6.752937252420641 -0.2749128915276491 1.6275723215626874 -0.7027418864624606
Ni 6.987749162123472 7.01956774191488 11.114618961069183 -1.56300652186616 -1.3361627179315956 -1.4166145927307603
Ni 6.440142570639551 6.828956970358787 5.1734050654405825 0.22150567955110237 -0.43165736754196626 -0.6084461638016683
Ni 4.119622755609878 7.772425786382837 5.4473906649179105 -0.7237562839305988 -0.16538852484256034 -0.03374830009503865
P 0.47232078703712416 1.6693759783768987 7.671912527917136 0.7781387153362211 0.5107568420782945 -1.1519051240986742
P 8.792518553859678 1.8596860427406345 3.70953990000113 0.2003467860853001 1.0247522456985447 -0.14461426840968644
P 1.8422168342845715 3.0047132515425727 11.283210448464844 -2.8595907061741848 -0.9235523397187514 -2.7812548492767584
P 2.678182829040544 0.36083547489025025 13.401939762352528 1.6929127946417104 -1.0787505542918714 -1.214922348361159
P 8.473665561862546 3.4103108714353025 0.23234799014544497 1.8094961250561097 0.8620664644991282 0.3178963370677106
P 8.775960864080451 5.697470982312731 10.533638569783378 0.4881439897747851 -0.13373258850017614 0.3974537250770639
P 9.284926581346335 5.394696428007004 7.121190797862379 -0.2513281622291736 0.457074007842858 -0.39832507193842365
P 6.4917608396278 6.99433652905607 8.346099932604314 1.4497437711845613 0.4680706160636778 -0.5680767588456862
