# total energy = -381175.2276081595 ev
CRYSTAL
PRIMVEC
9.16833492482080 0.00000000000000 0.00000000000000
0.00000000000000 9.16833492482080 0.00000000000000
0.00000000000000 0.00000000000000 13.41878491197361
PRIMCOORD
 96 1
Ni 6.972738706004619 2.0243866751913577 5.737912526512868 -1.3273669740168368 1.9014050926522799 -2.1312468028729037
Ni 2.5079338243850575 4.269959429036856 6.605464379587782 -0.5531615322967506 0.6139539809937749 -0.027651186058365283
Ni 6.408886111715308 5.467811547679015 11.641681147594078 -0.7979706624604839 -0.16135343554123824 1.0932811438078784
Ni 0.44475500754008224 5.83132685680059 6.3695887948105465 1.0592808756030339 -0.20219515214794856 -0.36953540140024105
Ni 3.4862868379885112 6.705142516256292 11.702025294018362 2.294775648798906 1.6367727571150328 -0.9634232077717602
Ni 0.7783045309840125 5.741000421695903 9.1320731852624 -0.25708280532476374 -0.6665824058227681 -1.0128930323671137
Ni 1.1954958565814706 3.4025249306482324 13.169021217334311 -0.8105112181296559 0.23910359513852367 -0.9404468014812449
Ni 2.3204963863744776 2.294962573771295 5.139153330886359 -0.35532208601433646 -0.5213991522834891 0.2858321095433142
Ni 0.9581826768971694 8.880091586625195 2.8173009477851263 -0.6541639775537572 -0.3996679591195633 -0.7194607418790383
Ni 4.175195519856785 5.92836451302755 3.8690519829957752 0.10466601015152296 0.863661319790074 0.2502287585174078
Ni 0.1606979893724537 1.657488250504046 3.894104458018467 0.26865791175687276 -0.5917992992736066 -0.020766286013073912
Ni 3.7721280141211597 3.3458187794989738 3.539768485765224 0.6395886508427435 -0.3865766731532439 -0.4734246812867395
Ni -0.05439573076290217 3.170877781911424 5.611802997257746 0.05126599726382784 2.0132439664031585 1.0640366451204644
Ni 6.122238122114409 4.655130345113087 4.417826333763652 -0.38581074152149686 -1.3529553640089023 -1.3370232661596781
Ni 3.004114939024785 5.096915728989913 2.1273067350686596 -0.7187122937487881 1.101968130058915 -0.7662283370518804
Ni 4.033361379472141 5.751452323443704 7.925281940125409 -0.12130490425978463 0.7293168087375117 -1.0008075619574892
Ni 6.730098723762886 9.060762793504304 6.757538633184812 -0.6000841649902181 -0.00848335488066281 1.1494697751843042
Ni 8.870657370047574 0.871697774101542 6.187871480923171 1.2212302928570582 0.35586998809800646 0.40721928910426003
Ni 0.8730427688264566 6.771035338941776 1.4789376794795575 -0.8307254882940015 0.20805341070093847 -2.06550858013483
Ni 5.313719343577869 4.540223604231332 2.087976412158379 0.7475994090967835 0.6927012143970069 -0.730440895039626
Ni 5.445605840632369 0.25303412347987664 3.2410925576529723 -1.327263872780069 0.2806317962892973 -0.3774127472657887
Ni 2.0814962330747417 2.2820168849398073 10.717248028173955 -1.6616461233179445 -0.017423337682769994 -0.4560512230052985
Ni 4.740212492674141 0.797382002174211 5.4566683534822795 -0.42533039688267393 2.009677846318455 0.11317096229874057
Ni 3.058593184801486 8.403063123521571 3.9370177661945736 1.2333399316363984 0.3771504947433376 0.31674036908639647
P 2.693363397059876 0.48851546985785266 6.183604537876306 -1.1011854862566197 -1.022870712405116 0.2416489872681967
Ni 4.944730538540997 4.054595243022938 10.339468623667091 -0.15995501253181485 1.4638858670128982 -0.2565917246209581
P 5.095375448732342 5.715347420739456 5.992883002316548 -1.103401520071332 0.581449066387534 -0.11445677098969964
Ni 1.948069455762671 1.10549031319711 12.906844430325568 -0.10300507750933229 -0.4067824586771575 0.009686888270460737
P 4.111869830933919 8.874801457407228 11.712693568469012 0.6690987444867186 -0.23413185295554514 0.6119840017515976
P 8.820295706625929 5.562217891799292 13.16884610213836 0.6740118655176199 -0.6369185602097482 0.5224939280095647
P 4.3063210451173655 7.5280189071937595 2.2248073922063782 -0.65517724930962 0.8427135138938132 0.11035586144744865
Ni 3.273902360806204 0.8562152070124955 2.0108587970958474 0.2795359921219573 -0.6091339338973122 -0.09663054144155615
Ni 7.951128392947538 7.268124118733286 5.801853410705276 -0.5145476765792945 -0.2330923559474373 -0.11903230617552404
Ni 7.577812133853683 7.907001197235109 0.675324876930078 0.6936378672786635 0.3773577256581372 1.2004786621320034
Ni 0.1261984621033277 3.2366697529133766 9.570291170042672 0.7087916922009664 -0.013275634062983589 1.5707874513631592
Ni 5.454838353842927 9.080062138398272 0.8795962945890257 0.2472732754335096 -0.7126002673137792 0.11423308501466778
Ni 1.845127391881689 7.417622987066319 7.831122224213041 1.2453945488080875 0.6134017080347306 -0.4042591780346715
Ni 5.463566608635829 6.4605405103531295 9.655446664282657 -1.3418137455697858 -1.0101920884961828 1.6896467222959288
Ni 3.030308871738355 8.902939077112496 9.87669508761389 0.3115763083869537 -1.2982222341320802 -0.3388310303378487
Ni 5.634180152166395 3.703924771049319 8.141700484648974 -0.611386991597547 0.22775037490923358 -0.12599871019102815
Ni 3.2132538256643537 2.938332136357699 1.0162567436085084 -0.1325056580716105 0.9664452824275357 -0.4197804135987222
Ni 8.943380602208595 8.34025086135123 7.753011678484468 -0.6572133059030423 -0.7202747531399014 -0.3141196436340977
Ni 2.463687440319363 5.486725822508589 13.22818448222779 -0.05887877661407924 -1.1655399412732894 1.8605219812846732
Ni 2.814559615660045 6.604309169394603 5.633500778552787 -0.0242213344412099 -0.28381893576802736 1.255569175348244
Ni 5.812220046938819 8.625376907364291 9.04558919930026 -2.470663530510893 1.0034902509959749 -0.6728399566967057
Ni 7.376356311832235 1.0345090646607225 2.418990891011724 0.7715356081974066 0.9950755445697185 -0.8699880333390502
Ni 8.242809798390143 3.8959738814977447 11.753366135603748 1.086325795535968 -0.6952844017431509 -0.0038839084354384723
Ni 5.5454123339890105 6.6427244924852085 0.5361623893255294 -1.2136956750429098 -0.5558444784455524 0.17081843760888002
Ni 5.477640002655895 7.934487865164855 4.96426642647452 0.05864043535102803 -2.879945615681453 1.0619255123147324
Ni 7.55123313107572 1.256850353508041 13.151388675719073 -0.10232913448823022 -0.29196727590677457 0.9344903267874938
Ni 7.544155176558788 -0.043523919278214925 4.484236250535607 0.029897044669748508 -0.0004149760502315434 -0.9542158302408792
Ni 1.723802816593389 4.429937704122289 4.2202881412306565 -0.4198536900388189 0.07066188529193637 0.4580646538909014
Ni 6.3735146758003784 7.909348290960931 12.146979254425045 -1.8370295545896878 -1.3546682329349509 -0.763070508149189
Ni 2.0685505442432537 4.989554527703281 10.946293203475655 -0.9112565530705338 -0.6168734686334151 0.6424209780852161
Ni 0.5642330801862706 7.959599934364179 10.014265035452128 1.0437426707581186 -0.17444780683135117 -0.9363152958113745
Ni 0.9225361909362451 8.471101336565816 5.258955962586821 1.4142471209398482 -1.0044184192371994 0.07126275210072888
P 5.753405178770268 1.717623358893373 7.4803417322210235 0.19083319016791006 -1.042014118102786 0.4186532419728144
Ni 7.475530190083088 5.647978496140466 1.4653309537041954 1.767458074148453 -0.824893712103573 0.020484493106596977
P 2.8502977849696345 6.618813475153396 9.614760344645623 0.036068977808415295 -0.28286119984044833 -0.25355808000095686
Ni 4.258306475421543 1.7910433845042475 10.241444454608494 0.6728013901492864 -0.14159142242296263 -0.6684803941764293
P 9.112334677128326 4.298940535549839 7.718900888613681 -0.4791389580626974 -0.7460325788302958 -0.9668211777097157
P 7.48088449764512 7.14746883189024 9.515354507522646 0.6406456313523483 0.8002761706652088 -0.30970557372680213
P 0.18197402726363704 8.869630516542527 0.08145148695392261 1.5498363030327889 0.6449686842077343 1.1779920509937132
Ni 1.2484888321097993 7.3658310634055 12.316432086761514 -1.0084015722546633 -0.17368161808928795 0.021382065220201887
Ni 8.189550941150687 5.510160086427344 4.164694109100704 1.1928509703834165 1.1394296173394827 1.4770887388564173
Ni 2.906270469329573 4.13905394381307 8.976549804088593 -0.45849685633231363 -1.7116859614841553 0.30597207482629885
Ni 2.8944249806820643 8.129507516110024 0.41129425261132985 1.077592529428028 -0.22342757916416361 0.4893945743524346
Ni 1.194459834741557 0.7783613746601848 9.054512739625816 -0.8332351420897328 0.012649827553526602 0.23620981853049644
Ni 7.379693585723639 3.4620549289363707 0.6153731352380811 1.619024431992676 0.6655794184795506 0.8926142553789982
Ni 4.079276400483537 8.285910140597526 7.034113373267895 0.4597417844830082 -0.4008128713572839 0.8508713671142571
Ni 6.113519035656374 2.911991510286265 12.195756629581762 -1.4182199895446672 1.3522056303270713 1.2168702161161493
Ni 8.665268332368402 6.194842165922166 11.045390984547115 -0.49402744513875557 -0.46005365929647224 1.153287863378814
Ni 7.027803725212776 4.828228507392472 6.522414851866629 2.1904654793249048 -1.1386428597721292 0.25566561326226295
Ni 0.33473040497473455 1.618724530688514 1.4075768618796969 0.018992481942102773 0.3203437701669386 -0.5920936905855737
Ni 3.645174081224833 2.1653864971031513 7.535680884641687 -0.5706491475585527 -0.9087070471758028 0.7612738212600825
Ni 1.2556676383102632 2.380741514782202 7.581560149147105 0.46329247794874406 0.8547215940982829 -1.3948170372396946
Ni 7.777122565516371 0.266820548618622 9.40332112278805 1.675822929038959 1.416740062565031 -0.18939002996348028
Ni 7.435198685005386 4.881698236333859 9.164614356204043 0.2688384031987951 0.4211402700607263 0.21831571185889498
Ni 0.8061267599698718 4.3143066647860815 1.9874566223491241 -0.4507071850845657 -0.4228014598132332 -0.8372890004441322
Ni 6.307649358119494 6.890865475646838 2.9503078153603117 0.22943933257588225 0.5920255563517997 0.2885513082466901
Ni 4.4989294239926485 1.4342209598352118 12.884663477783063 -0.7459148223055089 -1.4106352352188738 0.27190110128451883
Ni 6.781138843964651 2.6404254315407463 10.168969684322356 1.3689016029255134 0.12285707923825291 -2.6432938245175315
Ni 6.153291272307221 0.7116635721734225 11.103789610312727 -0.5536459281323369 -0.321894145373194 0.7059529372005907
Ni 8.060194904519339 2.1632869484187243 7.873311233934694 -1.581517436186154 0.6749690872245666 0.4887409999288357
Ni 8.333805521940086 8.87404048561331 11.560189319966742 0.9530061262034942 0.22227803894075268 0.479943970462496
Ni 4.5507488526580655 3.383042219056935 5.792768507686068 1.160990374229394 0.5491855783681381 -0.12486331103500431
Ni 6.326288582903074 6.746757588215303 7.5447116944851835 0.05424642004839044 0.9030634757367803 -0.3918806018646606
Ni 8.226701034029714 3.6288544451624754 3.340472723438322 -1.4096808417254045 -2.904427145762585 -1.5470517983091163
P 4.685349176833048 4.788337082388362 13.240368282431872 -0.16031496697439487 -0.5435458635838575 -0.09293483775752381
Ni 3.613946732669558 3.2797150851115604 12.042916820023379 -0.6312299944654032 1.7972576740083885 0.7616206630765399
P 0.033788981316972805 1.7834703399045246 11.597762073083118 0.4822865025527436 1.0005792479967672 -0.32863609208271793
Ni 5.56481253056651 2.340666723080762 1.3774781353464873 -0.22873510742000608 -1.0982060919133214 0.36088621036567525
P 1.9454381436559873 2.3951358005225964 2.8006081604937028 -0.9620731215017689 0.2651776665177562 0.176468951026438
P 5.777609582817808 2.5215212966572005 3.6209513405075584 1.0081974266636573 -0.357494668185623 0.3065827118271043
P 8.52520368061299 7.388852752255265 3.541888204786357 1.0218019048209694 1.920663169550944 -1.117921568064378
Ni 1.5796399191526551 6.647895433349911 3.5928393921399184 -0.7266819422178259 -0.4992912646408562 0.6979784036355463
