# total energy = -381169.2970549402 ev
CRYSTAL
PRIMVEC
9.25210121933459 0.00000000000000 0.00000000000000
0.00000000000000 9.25210121933459 0.00000000000000
0.00000000000000 0.00000000000000 13.54138535121767
PRIMCOORD
 96 1
Ni 6.328474073723296 1.958123901960913 5.454334648613525 -0.5571135749659631 -0.16526536900113473 0.3615930066247128
Ni 6.748695247801868 0.2611035415502616 7.4030611916164775 0.4296711903498729 0.5348619626566143 0.2433176332198713
Ni 8.96946779217548 9.199521282861397 2.7263952364805917 0.7845122229627327 -1.6452602257607536 0.9864860031284947
Ni 5.096510568704868 0.29128204450297923 13.302650423910377 0.7589911958734928 1.0208827354408097 -0.5746438705402426
Ni 2.162493560346644 6.771399903588846 10.782530778615891 -0.2697552585861096 0.5458950805423244 -1.1675628852405893
Ni 8.746797478065771 1.5007740466789408 11.677656744362015 1.0125253646150498 -0.8654927165718579 0.23672481049370198
Ni 6.851532350113308 2.1850501825180606 12.606135608904586 -1.1150010519834732 0.180405824186999 1.4251000044939521
Ni 9.208421803997124 5.191187317958396 1.130665027098747 -0.8158724824415691 0.2570522091971444 -0.2841498367448848
Ni 6.009563405295673 6.391018276298676 4.612629388673612 0.36632332222084657 0.4694525840128689 0.6140802221589939
Ni 7.6153950585195 4.3604319195196615 8.99491939674125 -0.5343425998180347 0.23752776601097156 -0.13504205134021902
Ni 8.640065241244828 2.704685181548176 1.0816760776584549 -0.4516651781224608 -0.14940063405473622 0.17091331131553145
Ni 6.873163762187454 8.047662468064512 11.498734989701665 -1.0544793404493324 -0.051310477348518076 0.7399493487506935
Ni 5.351341185795646 8.957134741578885 4.773703840557644 0.26208411519409697 0.6169860829518794 0.8355568482443738
Ni 6.73329049968234 8.257953471072764 3.1495095425333215 1.0751795491111613 -0.6385861777201582 -0.7098389025185582
Ni 2.5328459101824197 4.132339874239954 7.956511694491675 0.004228179148734654 0.05722195773694662 0.05202498691703943
Ni 0.8148713914888223 0.9321676772003812 4.573995390641954 0.24030892830053455 1.7852130841390286 0.3063235446284467
Ni 4.086893554262105 1.326038867708733 6.244826754039312 -0.2678259027738807 -2.358134829781842 0.6688082098294934
Ni 8.191810201219008 8.858905185551844 5.3132604634021545 -1.3522197713944581 0.6933401335325866 -0.468179116617084
Ni 7.911527054352363 7.038332268751902 8.594663331351647 -0.7277286383147854 0.1671276190208541 1.229001966382677
Ni 5.186755561592478 6.072366666698287 10.630231019294358 -0.03561234988697092 -0.9302078973620561 -0.8363176376697984
Ni 5.7647158051544265 2.9310100755420994 7.682271094770292 0.0688698263885201 -0.2848764304982642 1.1513183983572686
Ni 3.7515511545069855 7.9897998285813125 0.683482305575663 -2.0615156569253528 -2.0893720170159886 0.3801250039906292
Ni 1.675472217245258 5.788456696250347 6.0213394794137125 0.732930751341015 1.0786752209692454 0.8666810804530042
Ni 1.7306609995473492 3.838835475083335 1.1025886014870243 -1.2416044856380357 -0.21305163524647822 0.8762358140209747
P 7.350655441286971 7.258874599637894 6.465482885767267 -1.0720723709407471 -0.6492351727935721 0.29914348194023965
Ni 0.23469156890352583 7.615358050115609 7.0889690173754305 0.6030311634336841 -0.46348299669299536 -2.0893427064399503
P 3.6666353717796443 4.753997790695914 4.328246635865967 0.98278978522383 0.804719551148543 -0.6909459222687971
Ni 8.973649741815136 5.113849005927687 6.913608396379469 -2.095394054840353 0.9929135039213931 1.8218986124855205
P 0.5404772068912926 6.829595618707062 2.320939490344336 -1.00720703772593 0.902525343845123 0.43202786350750755
P 7.683166698144449 4.1869272699788205 13.465444841365233 -1.1884541268673017 0.7802349357436176 -1.4000908840441242
P 7.615487579529226 4.043436435993384 4.643544358863755 0.2596438811837206 -1.4264806868915627 0.2374753155064813
Ni 5.659796980124131 4.673754318959781 1.0108864026962154 0.33078167767081096 -0.355441128090704 -0.49952523502853335
Ni 5.690032846102879 4.286637162161492 12.079105405566999 -2.147276859752573 -1.729886800762898 1.5349447306329371
Ni 7.316228373567595 0.3761404642042899 1.2163413325260433 -0.16168253674588284 -0.12141700435761671 -1.4227050218992143
Ni 5.823133570695986 3.86768352591618 3.4531070586410477 -0.7379328325412968 0.5595296406066234 0.9379865128662104
Ni 2.013099885940632 4.177406858077924 10.566830072168909 -0.18197651110822852 -0.12106784854831408 -0.3967410152807554
Ni 2.941039352996494 9.005948826310794 9.837897745775006 -0.9346343085645258 1.076081234989824 0.19093911961815502
Ni 3.689700859504558 2.6727931894953167 11.361926023038704 -0.22692736478730596 -0.7789406424122263 0.45011377447494094
Ni 0.6389510183840127 5.8135761503911985 9.286559497551874 -0.4835936513999413 -0.6579861795133248 -0.6499831067031903
Ni 0.36271844132320974 3.786672129799314 3.122657169880286 -0.6923317468727302 -0.42439271555975294 -0.46584249806410744
Ni 4.314004876838706 7.290035675713912 3.390870951028059 -0.5591779136941596 -0.23713078768286908 -0.1686466267685418
Ni 5.915737849331633 5.853822789622396 8.302331173388268 -0.46628292803563565 0.1637679585200018 0.5789646094027835
Ni 3.6022500011107 5.5279452891623375 1.9592757885320127 -0.2434042793964066 0.3384106549709785 -0.12153707487524876
Ni 1.06121598156745 2.849360284458117 12.616806056956387 1.417251712094127 0.11446988361582222 0.39049606281230814
Ni 0.4328586187971665 3.401830989840307 8.735046384620357 -0.14739543069924937 -0.5222450452235521 -0.4931974930382925
Ni 2.8219093008721483 0.9342864083231271 1.2158037854595303 1.6643054153176626 0.1050053957688127 -0.5653375055376522
Ni 7.30011121367317 5.506831994742661 11.523691606865397 2.3942871113326825 1.1519596314856935 -0.14372466671588152
Ni 3.9428013337134433 5.533209734615798 6.819496025285274 0.7361137770546871 1.252240110975011 -0.7635441053514979
Ni 3.9241953586573657 7.006949142252541 8.903325447531822 -0.23186722529108456 -0.6059984735921241 1.0428289006945974
Ni 0.8627880224263795 7.236984128736512 0.030533783630068867 0.7474497708927966 1.2414489338967782 0.2438562793321607
Ni 5.99290037144386 2.241293704331038 1.7651056462585737 -0.3301638415811539 -0.03906714120479078 -1.1012906443759163
Ni 5.193426326393787 6.648494994267644 12.91956440750589 1.5040770945198032 -1.138098300122569 0.7177648422338542
Ni 3.0591331698118993 7.818469422769055 5.3651777028003025 0.7082219357404255 -1.2356189574785623 -0.4138727898650357
Ni 6.030510161897841 2.7458385266746976 10.382992676261768 -0.46519869383252144 1.1333862393588805 -1.2193932396483191
Ni 0.5406270909270502 0.712154566490027 0.7331605365384204 -0.21663678149457533 -1.4275641497637286 -1.8626855645948952
Ni 3.624251497223755 3.169751289041371 2.104953819187393 1.253669901443002 -0.6775653871968331 -0.04623691948035263
P 3.0545256235275 6.504254740103419 12.5648342301625 -0.20635905371765104 -0.2799887633886597 1.9984524099162806
Ni 2.0113419867558213 9.2696799645373 6.853390171988623 -0.3276091934801003 0.6903527687694885 -0.9530732319960037
P 5.560975289634837 6.953629284346933 1.5544019995469391 0.6125463020129709 -0.225837731267553 0.5163489914540914
Ni 2.4792207329447136 9.11599331527996 12.54689255595626 -0.7209108440620036 0.5763544254734461 -0.8179039110493009
P 1.7091591168868194 2.50924380060109 6.482504901136821 0.4431494273419659 -1.1382155424267237 0.5876078869000784
P 1.7202246296501558 1.462313062935472 11.003052754879745 0.6261518086115474 -0.26488173254389225 -0.2566308053890096
P 8.477385549842033 8.92374390916845 12.762660802740346 -0.21745567785144485 -1.0722505483898241 0.4573138917678059
Ni 4.6784543862539065 1.8124033116410583 3.792955231569867 1.4898581227069438 1.290045868968875 -0.18963428476380245
Ni 8.0392985687852 2.778664980925799 6.6570393095159215 0.6504561896848668 0.35427256170389954 0.8822082295543259
Ni 9.00813232214035 7.139522497090204 11.17047784887143 0.4535724224475027 0.9503789729932923 -0.088918260398963
Ni 8.820481210212266 3.6489453547198623 10.96714072495425 -0.8769863190337541 0.7180299229697827 -0.4978141658746975
Ni 0.8579288189955233 7.816609750473544 4.587861514369723 -0.3707463909892067 -0.10444258128680724 0.4132726943871915
Ni 4.327938540903577 8.094468846885345 11.383213256956667 -0.6130870050077892 -1.4708548421315637 0.4769149538281851
Ni 3.3305065434418455 4.289866145400961 13.245262417207078 0.9739536749894387 0.9913510445302799 -1.2283905580509231
Ni 2.2925873521236273 1.7070403857640737 8.356131215334358 1.9331186217054774 1.001618745004875 1.854179584006413
Ni 4.946052902686996 7.989226198321007 6.8671480461350125 0.3852826369321687 -0.31365324552064044 0.6110794876594573
Ni 5.076516778502886 0.7997849156427552 10.920274207477094 0.7653171380915207 0.286177665808191 0.2734604753518387
Ni 4.820039287438969 9.235400930433487 2.1825595169362124 0.7899668183194007 1.3635735058443808 0.7465162033349337
Ni 1.8703399679320378 5.787078133205417 3.7513966444207414 0.017173426455493003 -0.337809788162186 -0.7124472866756828
Ni 2.457626329274457 2.8996917137495464 4.447654251019494 0.5782932943673718 -0.8442543760183718 -1.5863297699731325
Ni 5.799605477922437 8.245888731404376 9.417626610351185 0.5587325986266247 0.265783161312239 -0.6343901373609397
Ni 0.6027401455971019 3.825484693379745 5.355672094260962 -1.16598088546545 -0.15026581026850896 0.013452525960480058
Ni 0.28284227799569217 1.0029092412375629 8.060590428753649 -3.574305448727806 0.8408278668353262 -0.7258337352849177
Ni 7.181832354838312 5.685638098140852 2.587081726084324 0.2973789338406492 0.5163327935041753 -0.700462860620297
Ni 7.685118891449686 1.6247059392081127 3.67366974414918 -0.09476623453930776 0.706095633426042 -0.6232279500965331
Ni 4.304512221240728 3.3927546787860985 5.850948161850181 0.47496888584540775 1.9603825996277529 -0.3252005840386077
Ni 3.1196696664762045 0.4636348074727198 4.133331699464227 -1.551631704370315 -0.9480580381695994 -0.052900447543457275
Ni 8.284562513470219 0.10091359051921826 10.070646373474267 -1.272170788460667 -0.4999373828652873 -1.3924390239258213
Ni 2.130064946437369 8.193299789475612 2.71627991448715 0.5749971401146032 0.011672294131605703 -1.7446798999116726
Ni 6.261137282844065 4.899644364207987 6.29689295226312 1.1945065037089686 -1.1486465079520605 -0.2268929120049447
Ni 4.537128543896079 1.0213209221732142 8.625727260367452 0.9209825221090462 -0.020000354381326847 -0.4148816907455242
Ni 0.6771140844761611 5.238391537121057 12.281968821914376 0.2361306285531288 -0.004809762683817523 0.43137763151801845
P 3.9777465190872907 3.9483896027009484 9.603970400411825 1.2843377628405042 0.5232158937772539 -0.2360972042120321
Ni 7.66528238696424 7.0320315879895015 0.18914902707556056 -0.6946197715759586 -0.05764824664108781 0.2741539018744375
P 7.592181537179023 2.030095995427462 9.200436315647597 1.1763414027641677 0.01859756049652926 -1.5319751064816518
Ni 8.580444702576818 5.922834210777684 4.480342848966102 0.7141470429756088 0.6999612383935301 0.3953647037585191
P 2.6198156593256985 7.37528453407627 7.43901393078625 -1.3359110069321058 -0.9179925862427868 -0.8107061077492812
P 4.453128719165035 2.378289563433647 13.489778792133503 0.614752051415038 0.15989150628373108 0.740058620635048
P 1.3437566410714326 1.9551817338515978 2.2551006146125823 -0.5273044620243306 1.1072558608204155 2.1862817802608605
Ni 0.7943715113636348 8.340796783182224 9.065199280939895 1.5208283458362128 -1.4913812442196897 1.5604824698927253
