# total energy = -340854.82013613073 ev
CRYSTAL
PRIMVEC
9.43617415052166 0.00000000000000 0.00000000000000

0.00000000000000 9.43617415052166 0.00000000000000

0.00000000000000 0.00000000000000 13.81079469238772

PRIMCOORD
 96 1
Ni 4.787877047559779 8.457614632548715 2.341067639702212 -0.3169730539224928 0.9943093558276553 1.9018591494705632
Ni 4.0588854092551205 1.9073716370082707 9.681809144258564 -0.6150736964205149 1.0024934343003442 0.6454821335090433
Ni 5.843794377414541 7.683584134757575 6.894390648634393 -0.3353980933968998 -0.036545917444833834 1.131477966592574
Ni 7.137890180409526 1.9107686597225244 13.56414750858423 0.27289354710477515 1.6633044848569742 -0.1445124527244995
Ni 9.290064484850815 1.5048244453691955 6.561080441616334 1.0719438157826828 0.4198883999314963 0.8424245218984846
Ni 6.8419623211269895 3.9815842701574344 2.025615392369501 -0.32733871342753307 -1.183527893210278 0.48638741209499464
Ni 6.614333490749366 3.496781947962386 10.31078016682912 -0.519231455208209 -0.7624251612557063 -1.2791636748387325
Ni 9.297151051679716 8.976783501202965 9.42858846581614 -0.30609677332962126 1.215785724802719 -0.18132036558146838
Ni 1.7905046194637337 5.137109854933482 9.152137813712745 -0.25565275774645646 -0.2232630285618413 0.034864158867036726
Ni 4.013478538974595 4.6282641608608825 10.650733440488388 0.35463251614647956 -0.19130010250199958 -0.21085205649199812
Ni 1.1556388188665236 2.2913295654610124 2.8158695044734654 -0.18404804892527657 -0.22153781834061845 0.06846539186124984
Ni 8.052538546222362 5.143847283316753 10.92110719640295 1.5160692338846729 0.6223712585231926 3.578136649548438
Ni 5.7221526557216364 8.049320810818028 0.34247273217233803 0.8722585745407816 -1.6875327612767195 0.8000637975440866
Ni 7.378012505436239 0.8780095886047669 11.429454660477461 -0.03879717537285576 -0.010922560449774738 -0.8430747538879739
Ni 5.990243801095705 2.039430895024887 3.56601610173114 -0.7486355636707817 -2.1105591926165657 -3.0629497967232475
Ni 8.206150026126076 6.740910331552145 7.4021304230900205 -1.2367510142004765 3.0758762749769284 1.5862001863738036
Ni 0.8109485857557144 7.567245542968588 6.962698170096093 1.5912788864482916 1.91286989875877 0.7905507158473287
Ni 2.176151623099396 9.37814173489205 5.062774505388823 0.7303167107569358 0.7511225917586936 0.5964375693765663
Ni 3.3897946048118035 7.46620298956795 0.2941330989485064 -0.9385315867364029 1.3180207569152462 0.9602126712542622
Ni 5.116529558989628 0.3099113258387947 5.163897266270215 1.7432889331014172 -2.291258636784583 0.22588683933793355
Ni 9.428729064811813 0.6171267367068608 13.823500756643302 -4.404129251143144 -1.2021190259489039 -1.4877145940013798
Ni 6.775654324979596 3.6498555659363445 4.7209991064903285 0.395600473918409 2.3910817170215077 1.2728611296594723
Ni 7.217069118174259 0.3492950861234643 1.4212963749127978 -0.46196450316593984 -0.7110213528624335 0.5184804359747974
Ni 9.38233139623963 0.18955575469020325 2.330350976656162 0.036958579502220215 0.11622106197897403 1.2113922237207138
P 1.8589357548075354 3.901782544895089 1.5107352648919972 1.809350857727497 1.6042153920043016 0.8014894742470197
P 4.978440585655211 6.11072487336124 13.47343850955687 -0.2905089461936932 0.41952793126828397 1.0676485308414387
P 4.769844518651615 5.06380965369925 3.9777579015167954 0.18489008521059772 -0.2582176902601553 -0.3573437444300555
P 5.943072366238609 4.727325117678205 8.06671922881953 1.285895080025295 1.1129223150775736 2.2055848514648466
P 1.9520613580491206 9.345907763803465 8.08091689653027 -0.12139566420137801 -0.12529731324862936 0.8230800559336019
P 6.990534884004561 8.37571807661258 8.954422599186389 -1.703546877316789 -1.041188536877697 1.399800092276583
P 1.6022435078746293 1.2588800008572203 0.7306099421810327 3.714074987450681 0.4264971634972655 2.9987406090351905
P 5.88187877651101 5.0694241773519755 11.83766072578803 0.8407931569426487 -1.2189998608646424 -1.2890763059667543
Ni 7.044774013342147 6.165794386028977 4.874616248098568 -2.6555189058288136 -0.9987146839842027 -1.1451636916097827
Ni 5.814853631123941 7.8701750435121705 11.802125037344673 -1.074741433132478 1.2180580657766635 -0.41630608189687657
Ni 8.756382780267336 7.4116713388299695 0.9905086011092259 -0.12125965284414598 2.468225867603678 -1.0405341911231498
Ni 3.439466625833559 3.125166535371432 7.606170705186833 -0.0478662275536595 -0.4206329914070046 0.520401307146594
Ni 7.526651121533255 8.078431408244342 3.1973645914583733 0.013988858079924293 1.2025669121195999 -0.45080951499038485
Ni 2.70295435668651 0.3978309917707862 12.7557051706977 0.08712260195112091 -0.2307151139645123 0.7665620662422152
Ni 8.295123712716908 4.922484072612087 8.78214636670269 0.5171529754126255 -0.9209246722879172 -0.9708230997802572
Ni 3.8871564748753844 5.97006926064272 1.863586845073801 0.27540654333461606 -1.53006786215661 0.993523112480934
Ni 1.2835367240581792 7.969037840671163 3.559649514994176 -0.5332925612869654 -1.5280636872423876 -0.2706374040807468
Ni 2.40307274041155 8.960411738955102 1.9342571845567482 1.110365867204307 1.247941226489341 -0.7335071926697755
Ni 3.6085817399581606 2.8410055853241025 2.956642125752143 -0.15499818274717175 2.284683811780543 -1.5397740337007804
Ni 7.04206583134495 5.751008476444381 0.5058921715460407 1.1676994108184535 -0.6355062532432539 -2.0066339172858085
Ni 1.8505375597639633 7.727537834210335 9.851392292623794 0.7295906312241887 -0.6138814758846266 -0.3090324589191774
Ni 6.14721455901685 6.444840929656514 2.3632200022688292 -0.9588962664356842 -0.40077584747176137 1.8275424410348589
Ni 6.3126401290268035 6.367341630900496 10.015975212277128 -0.6239666280347705 0.27578809504375085 -1.032984660910666
Ni 7.452784749846647 1.367584727713342 5.371611994602946 -1.093684035673252 1.8319981628133675 -0.44936764033753573
Ni 4.790094548498251 8.725932246103733 9.429196155435022 0.1674657190865632 -0.07022299798230486 0.4072910228824599
Ni 1.8434132482382366 5.303573404106125 11.645124083666069 0.3737746362925692 1.6258111158972066 -0.1862324581711051
Ni 6.103506200093451 1.4906230031887733 9.0058676773415 2.6969224084762646 -1.1999988942821076 0.6131402268432279
Ni 9.400713063593425 3.5755173855394236 4.695311009448625 -0.22713176748862818 -0.410894423963002 -0.5641172599773059
Ni 4.256903524973499 6.335862553748411 8.66777899170539 -0.0419478051866955 -0.6841098731835702 0.09546120372380333
Ni 9.368243188149684 6.2688562807097545 12.790867186642487 0.459797320311292 -1.3759592811032433 1.026040368382349
Ni 4.858129364525389 4.576742649694699 6.297031753272228 -0.12381661493804483 0.8174691375047276 -1.2887718873524578
Ni 9.202251447687354 4.114785305253008 1.0686212511886506 -0.4882514618869269 1.1291593457617264 3.280738689544395
P 0.9934970374803486 5.877594753421366 3.970272184518969 1.287836520022382 -1.2185478609288884 -2.946837492407996
P 4.576799266739937 0.5834575235215025 11.45865112708905 0.08003072810134604 -0.5810081221953735 -0.24160167897002907
P 8.561469165862817 1.8193981848833036 9.562428329905478 -0.34938180927050155 0.11643446354136076 0.6080730967329656
P 3.883174409360343 0.9215641378886037 3.5725902843006416 -1.14116382642177 -2.068285885769651 -0.6109499040601284
P 2.8139520738747534 3.154616835069172 11.932347072243331 0.1358007838831145 -2.063647872777007 -4.5802917266727565
P 0.5590348174408589 3.604080684861774 7.239314898865518 -0.6788303699521857 -0.8115003215158024 0.4248354595241263
P 5.0073624595974 2.5191471193227613 1.1943233586425095 1.3231909882622759 1.934866457634519 0.6028059347967554
P -0.018628895117999585 9.13541502578441 4.774488059978516 0.7891530641688538 1.207044231164663 -0.21272099137993686
Ni 2.2672956297576667 0.702241028047331 10.418214784637081 -0.006405646416027678 -1.0010721284727857 -0.07715829164955744
Ni 1.436940608129357 3.1080776238838945 13.429175303590142 -1.8658745038458382 -0.47531084256585887 -0.4084367064511288
Ni 7.565367744301542 8.631627121086366 5.4387050804443 -2.254054002709828 -1.638576385982675 0.013902726124021218
Ni 7.2229572908789645 3.1379808599435344 7.354856133934075 -0.37875923399135414 -1.9146732705160958 0.33791288939895353
Ni 3.4745031406614046 6.89555979061855 5.0767098474566295 -0.25689254369082853 -0.6992924944612796 -0.7843538430079975
Ni 2.6287954635995083 4.528703086810627 4.621008686513688 0.5562486558625065 -0.408149000007381 0.013160191531041851
Ni 8.151316417813497 4.908310938954283 6.3671764978518866 -1.1175245897362756 -2.3137848429115566 -0.38596963569686427
Ni 3.5774989821227385 0.8803903353570064 6.787315549063693 -1.8811337439977538 -1.0224626783334196 2.1050668020434258
Ni 0.6185119670803398 3.513814242404686 11.013957263357714 -0.8306745804514081 -1.0583293103230418 -0.28773266900013666
Ni 5.202474233660249 2.7739426952402084 12.187860741017875 -0.736487615454338 -0.42150202427551925 0.0910892999083528
Ni 8.078657876425291 7.681310016773865 11.654736714329987 0.8135361209989086 -0.32315784257696606 -2.1380625402431566
Ni 9.038750857215478 6.867487172354924 5.098780115307653 0.16714613096361539 2.5699196825007546 -0.8775984986964563
Ni 1.801384528323552 2.312391106289386 5.790024225935007 1.2219455737565277 0.9673150866269986 -0.39537318839895136
Ni 3.530487962227148 7.46784488387984 11.866883613687397 -0.8529794145961956 -0.46184957485463046 -2.212186930162397
Ni 8.513222007146208 6.063383587368431 2.653620150701339 0.7868210736015675 -2.3239962362269204 1.1709796242316222
Ni 1.368594398353412 2.166215331660204 8.839861782617861 -0.6301683859701083 0.03714935535678763 -1.0184674411310977
Ni 3.362316465523173 7.915327137089127 7.118691340369469 -0.3213112762865305 0.4043805341038842 0.7327363759420219
Ni 0.44543837787621193 9.34751191341853 11.757833522855329 0.33063692456283056 -0.835915002914741 -0.5928251694349597
Ni 4.959841886294671 0.737697452627355 0.27167217348534445 -0.6718310558162172 -0.5934813149617199 -1.374877103782658
Ni 0.8007962059271987 5.336741556441131 5.98268448193907 3.9606748909662497 -0.5372191500348813 2.9955526982255116
Ni 7.972180086681846 9.358042683832716 7.502797416757249 -0.27920303426257076 0.7713947117441683 -0.19419413622034298
Ni 4.262150037832178 2.42444567498873 5.206807324855764 -0.1402282235268488 1.9388236425100545 0.5914406303826072
Ni 1.507089127178698 6.421061770656737 1.6139292660116624 -0.5027576259229019 -0.8053690118070839 0.30322639376036165
Ni 3.4402498282926786 4.449165574426057 13.252728282107276 1.5365964073037472 2.276612090516002 3.349367860677019
P 1.5876080016807192 7.692633425821378 12.921725219682648 -0.3830871719427467 -0.026822519509482837 -0.4936088695440982
P 7.383825188747296 8.860935590472703 13.183729089076259 0.5285527326091349 1.6995884068896727 0.8835575444933687
P 8.695359041675449 3.8862789106742026 13.019546263209268 -1.0539952017240621 -0.30069025760206924 -4.064316059397684
P 5.499062625137224 1.6960862603558906 7.0723285856418485 0.35072289667942824 0.7008277001588833 -1.697005733764161
P 2.9652422549237287 5.173137168052985 7.333062345987296 -0.7361772833027709 1.4011036415793547 -0.9702862534401806
P 9.233692780142615 6.857843402316125 9.81419961198982 0.4745603375530794 -1.8519051861499396 -0.3343603961610048
P 8.18244635651995 2.4687107681902987 3.2496796848753022 0.04050850163700765 -0.1988935985785413 -0.38651676644958594
P 5.516566728289838 7.585221454831514 4.764558373861268 -0.3851286278528077 1.0779581402975629 -1.1554990120975197
