# total energy = -340897.7580080028 ev
CRYSTAL
PRIMVEC
9.01369776757782 0.00000000000000 0.00000000000000

0.00000000000000 9.01369776757782 0.00000000000000

0.00000000000000 0.00000000000000 13.19245780138701

PRIMCOORD
 96 1
Ni 6.3337630881014135 2.0117311224437255 11.421119276905287 0.21813881996139853 -0.3371019634618839 0.2939465111203325
Ni 4.571143527453576 0.25964496886303345 6.053649814627673 0.015160252680206147 -0.8088423150676651 -0.8282639141273864
Ni 2.7016936223253376 1.4434625544579887 4.808611194632541 0.4799169738793025 0.45182072986371863 0.005470536196267998
Ni 3.4220322832682855 4.287374298215303 4.935364515016169 0.42090372856988806 -0.5240016229033427 -1.1389156538175418
Ni 4.967665100524566 4.563788350175817 2.5471078063555987 0.5182783472663203 -0.3199958999092166 -0.6456621107303332
Ni 7.086028266100519 5.995596193579709 2.5282421371860506 0.3988431492254228 0.1956108140622115 -0.019348836840257
Ni 4.981852660616716 4.620484508358548 11.443823879901549 0.4857338376713957 -0.18890409146599724 -0.8123559846478784
Ni 5.74201383775224 7.9417526656610535 12.386635921992147 -1.3654653235504548 -0.49120694497082495 0.44349832604095224
Ni 2.0289923534325855 6.559646351067906 0.46578733261871597 -0.43067443480340667 0.21970153646282808 -0.46316135168751843
Ni 2.869654864229473 1.633164835080208 0.3161509380254696 -0.7846670033730423 -0.00806195107252805 0.7871602021085411
Ni 0.6416626010545586 0.08340464567259612 4.745498185096824 -1.0707701071895561 -0.33306661705024576 -1.1210827394011789
Ni 8.687627132030343 2.468518277964595 1.448597658005954 -0.36261527724164 0.06581458450196408 -0.0010952899467077909
Ni 6.912190093332292 0.6825856897295058 4.740907508886575 -0.7655212836825268 -0.02652504287372206 -0.20152152311969163
Ni 0.7520434410370559 7.340665224552372 2.403230263187304 0.21770507485808957 -0.2883127098733228 0.26730036928771383
Ni 7.5829083487432944 3.8334444848476807 3.8161030319497864 0.5002412872589515 -0.4559519784232728 -0.18060817000579218
Ni 7.482369565218623 3.8129202953115793 12.477624692862667 1.2045854852115254 -0.20516040542385958 0.5728911495151939
Ni 7.942320528612646 8.863466345675608 6.7605932195014065 0.5371931818929523 0.3119686587293659 0.9076693499399079
Ni 6.994953865102376 0.6199323787736479 0.5518672437521444 -0.6373944714049022 1.4711289217285566 -1.2066598512420508
Ni 1.8794100410252053 6.542619476217799 9.211264376130261 0.10461510230892952 -0.25601194085808815 -0.33112132039841685
Ni 0.13828183967070484 5.012859780513153 1.3579261692925124 0.09455411852850167 -0.5555151201305917 -0.21626165754334367
Ni 6.327444486052749 1.8401824288771536 7.0406956765379745 0.7353884688528883 0.08699353257242438 0.3793464739533918
Ni 3.2043244440651844 4.293710927659255 0.32534220551337595 0.8252402968097142 -0.32828667916309917 0.00606266125431214
Ni 5.958423704494559 5.370793713968839 4.656924183825214 -0.13062798143292342 0.8465511424723485 1.1890981882092038
Ni 5.21440605984 2.716845648065428 9.338373737570839 0.1532503468181296 0.4345102636097291 -0.35620654550181885
P 0.2772072573532136 5.716423950140034 12.41176791376402 0.050714238525415886 -0.9948989097825383 -0.2445345363461079
P 3.990219727975224 6.187263460288388 12.625670169821692 -0.23027622665488084 0.3569835328771594 -0.589784582836423
P 2.504005205590256 8.614679276994915 1.4130178892945557 0.26697152519338535 -0.6880912264288214 -0.6036842236366506
P 6.411695517934146 7.698824500449164 5.897450546779602 -1.0906953853585732 -0.5618238359574389 -0.6606236171361719
P 4.7420252073944695 1.0348445991483304 12.553626388659989 0.23535749783253013 -0.2251908417121735 -0.1728087285660314
P 3.8820914110340405 5.9626511286897435 8.247792939038897 0.3415661698808246 1.0766098537997846 -0.14183207767885897
P 4.729180688251323 0.9338100622532216 3.8261289678395562 0.08331762638273393 0.4480414653269445 0.1334068297296412
P 0.08911302039073979 5.4799586061391174 3.5038108578858473 0.6474834802097882 1.0720870262287665 -0.03360251854579374
Ni 1.4533776218667334 1.106197029700715 2.533558416056667 -0.17862096437243433 0.43406931941756854 0.22966816075723673
Ni 1.7431680011314086 6.608158071789601 4.613561087197951 0.17100252859522808 -0.8404743401506494 0.4959321183606362
Ni 5.952600855816333 5.60549237323147 9.182953253199237 -0.5921931922779157 0.10206225398008875 0.4393285109339789
Ni 8.571197199558746 2.4225213788856634 10.267848211257146 0.14885735995675653 -0.3005904987994113 0.2742796288190244
Ni 2.3622287553428514 5.213351457215617 6.735224167481487 -1.3904793290962891 -0.5075979847343387 1.7291720340840608
Ni 0.5823119089155772 9.03992750445833 9.12097506819694 -0.3660330446739374 -0.6515527651831552 0.4670306048349376
Ni 1.5356997224522475 1.1598014895914468 11.466237340463898 -0.29016673236292606 0.3717663476132888 -0.7706737744177437
Ni 4.2036731018902085 6.9164896271086285 1.5232671292914461 0.6805658645860538 0.7138331112796158 0.7038739431843748
Ni 5.6220054673158515 7.79891259909162 7.909062688414423 -0.64451205628629 0.54481881675901 1.1906125679712012
Ni 5.304146433586785 2.6933108835161264 5.058898142601248 -0.2607466273295961 0.4008403821611097 -1.0984020099742116
Ni 0.7495583645965186 7.392322725751932 6.934654931971214 -0.23263469958472838 -0.21554483398197716 -0.14187218688817502
Ni 5.127838507664015 4.433369158960247 7.112238296110653 -0.28137741620607026 0.054018363197984386 0.09462790918923059
Ni 8.150762286637391 7.030900491307899 9.086041581606638 0.4479113675069834 0.41767005212393876 0.31680978887175115
Ni 4.714758772020422 0.3008474821649543 10.422160010818498 -0.8818035379167394 -0.04989765616139148 -0.35457929431104096
Ni 8.108875633684269 7.228922414855819 4.627267315835893 -0.037635550964586796 -0.13189604951206962 -0.21255309834350491
Ni 7.174831215292295 5.999985864332489 7.13561532095118 0.6109779290845866 -0.361009623317417 -1.297145970348766
Ni 2.5100894515001677 5.250424795626676 2.6063287012485024 -1.0523427537223038 -0.1760364914747097 -0.20843367685849262
Ni 2.233981865259561 5.293510270366495 11.40282147068733 0.8199427958562008 -0.3566395192741793 0.014701567876232747
Ni 1.1336797938182266 3.286790763813008 3.7690326014814173 -0.2864401754409583 0.6256717836513354 0.1848512615528623
Ni 3.602901140199078 2.6513250798889145 2.721300217441248 -0.06470823881166274 -0.22368520370092443 0.09382778188543842
Ni 0.9422378695506547 3.3109564871974118 8.340680896003075 0.6288784635140912 0.2008502080842799 -1.5424029866831952
Ni 3.7110114297449726 2.566866732961698 6.91142302766276 -1.362450447983531 0.27037335178608274 0.09830304404797263
Ni 4.145606861665542 6.663646394487995 6.085826011108579 0.4943688876385744 0.8118458777806792 -0.5221848814095781
Ni 0.792093102410269 7.474167100362298 11.291938567746046 -0.023625866949056086 0.3101200355564014 -0.19535421796671518
P 0.37962359409719554 5.520745587979635 7.825818486559895 -0.8007065733344081 -0.8093429088531674 1.2806271467581365
P 8.5246684923188 1.5233239155866054 8.081514554484956 -1.1481942509059901 1.1290732138058233 -0.12117454932950743
P 1.753966410909296 3.192904089149839 10.426038604914845 0.012621288308436328 0.4324261273871907 0.3668334290880456
P 4.055244542781301 6.113774783394301 3.8201402671246742 -0.3863511874059991 0.4321649033060041 0.029572828561110362
P 6.915353901205446 3.974355620121232 10.324905818715415 -0.44823738338783453 0.14979092751461945 0.288219121718252
P 6.366464783154982 7.658190751468599 10.211212444848632 -0.6175594389568462 0.3208371648635894 -0.4929342120745768
P 2.347581496670842 8.32250928155214 5.808045482585187 1.2942730196763452 0.3313398641671262 -0.6695288900456018
P 6.98323605816477 4.009094410842416 1.5151142397721646 -0.6841708083284928 -0.12298434884473657 0.07277147543577145
Ni 5.367323440375777 2.8670228645173337 0.40680349797385806 -0.5554647265086305 0.4322217246858685 0.21844221013443024
Ni 1.3539385094546683 0.9313493227963241 6.8751437960141635 0.13087429311577461 1.527396485972034 1.0960594778839639
Ni 6.779355231148045 0.8193189761449176 9.361011639204532 0.9328386501166838 -1.0199679369360242 -1.1919104608470183
Ni 2.6926528835880914 1.6213298500732247 9.108627203793993 0.09254120186353094 -0.5219938484446945 0.24442783556491454
Ni 6.273533560442111 2.121725274797282 2.629415485024882 0.7513964142453704 -0.04442609152385897 0.23048242912841596
Ni 4.091984374379521 6.873981029018047 10.447081082065496 0.20902914435064646 0.0331803434067106 -0.5105470400603336
Ni 8.000494933209044 7.125895850781317 0.3011214985733415 0.5039480466865772 0.4965723230477964 0.2834175865645506
Ni 7.527708464369519 3.703719348350723 8.228795669883743 0.23134374868744675 -0.1454789304028269 -0.25179713144579213
Ni 3.03247829847635 8.38171124767999 12.21778592950028 0.8176408871959014 -0.1929813468591644 0.8009294879784916
Ni 0.21125943990835924 4.90794935363099 10.164062693840993 -0.6498838621211646 -0.3254844338276136 -0.2949176167843502
Ni 8.649526232087828 2.273344682872277 5.7850902987944135 -0.4665837471055061 0.9169134942459951 0.6218233564395227
Ni 3.6671597907053877 2.7395331250361648 11.450577843546434 -0.3311362327967523 -0.5747400297984747 -0.29252006308645107
Ni 0.9501789371752947 3.369906069791221 12.605802177474096 0.35509300072266586 0.5450756699648226 -0.10580680862418552
Ni 2.8897554099762917 8.35092947022466 7.90891756788235 1.5968926330906434 -0.2842249129571944 0.36841002954654617
Ni 5.622284891942825 7.779226683436439 3.788359771970354 -0.5853489156625725 0.0710714620255292 -0.4161572150238381
Ni 2.979387619351344 8.34645867619308 3.5515546115682466 1.2984202090754993 -0.23564983226196834 -0.1388359711650125
Ni 3.331498704128802 4.112887139216684 9.181989688921059 -0.16074716941580705 0.4425683580275152 0.016068623427088456
Ni 7.311605063347106 5.991594111825633 11.327255136486231 0.02008365812375251 0.3944951566693722 -0.04085842877725866
Ni 0.6745851317004132 8.966042224867893 0.3039355749778961 -0.3573704839029329 -0.17536029134329154 0.00721991478720692
Ni 4.669104393451975 0.581684555559533 1.614902182283065 -0.21772975744843792 -1.3486230551821354 0.015561601883682876
Ni 5.996470522251207 5.542198188373101 0.1967789346427698 -0.34326952572517655 0.5434785006810317 1.2061278899979808
Ni 7.775125451008277 8.815675720765457 11.512583069641664 0.8832335854950466 0.08480963754722813 -0.6959976257600916
Ni -0.00527571723121662 5.0426049827393875 5.603852781629969 -0.1625130030669782 -1.1101648069370944 0.876879875362877
Ni 8.074028678591352 8.905695519139215 2.440789439901393 -0.01946530781346325 0.2128318059261883 1.3232768631078629
P 8.470757566708162 1.7469627678396646 3.6453529519945005 0.00016223660947713994 -0.7690670920522562 -0.850715044042051
P 1.7997109264541864 3.3106410077798607 1.6479229622332423 0.029355313233665574 -0.5927092126823856 -0.7569142587398061
P 4.572576705379022 0.9820063035573653 8.11018171847293 0.8016103160956001 -0.3406068912913489 0.8509410440099281
P 8.60907275706015 1.601058044071164 12.450276232840057 -0.9142871123667415 0.3965013884661236 0.2600035785159845
P 6.330211691229554 7.816263967056923 1.5078185528988575 -0.5920507531627803 -0.3702918199502913 0.27557340792978346
P 1.6890407467773068 3.143878587662419 5.945643182604688 1.0018671135702553 -0.007406062656084018 0.49890225673255373
P 6.919545270610051 3.9089251889211614 6.0301141487086065 0.49170959563885636 -0.08981917494667757 -0.040194827051330775
P 2.4469665268970413 8.617798016379846 10.105461941346018 0.26294954851818586 -0.6953119125469768 0.6321051979815049
