# total energy = -381162.514441454 ev
CRYSTAL
PRIMVEC
9.28015121618742 0.00000000000000 0.00000000000000
0.00000000000000 9.28015121618742 0.00000000000000
0.00000000000000 0.00000000000000 13.58243935695992
PRIMCOORD
 96 1
Ni 4.293786697347488 6.853178120961521 1.4901565458398132 2.810917409338198 2.844478533123095 2.019603590072599
Ni 7.160137677869919 5.212762937103547 12.631465112072283 -0.10217666807076596 -0.06326559282786524 0.9045858259185776
Ni 6.874438947060535 1.5752592432027175 7.455346707494786 0.5675833641490355 0.4299131311573499 -0.20923303283133643
Ni 0.3960072464907241 8.749205785863268 6.958541244138205 0.911303090037753 -0.354059417251829 -0.8838825319329552
Ni 0.36171616027576425 7.894986440266498 9.069035056274119 1.8081722640383633 0.08688888867376005 0.48128505787142273
Ni 8.205370372919349 3.996339295284785 7.726560978515718 -1.5552603022618376 0.34907559088399237 0.0008258383354050293
Ni 8.754467631519375 7.880193879462556 4.825351894548013 -1.2074921173353592 -1.5095694850929422 0.09975211778967336
Ni 8.869096057523322 3.698353644460082 13.450213864253227 -0.6664111703522265 -1.0800332776590367 0.2628773005193537
Ni 3.8648395546374466 4.016328740687351 3.984517310838021 0.09273223482841449 0.39057962366504995 -0.6598085774340443
Ni 5.8225709439967925 5.025786453365892 1.9776168970699395 0.8019949531285284 0.3562991052156251 -0.11926653367351718
Ni 1.6963466543506693 0.8329872879660681 13.130035660162182 -0.46390645738365915 -0.2901309940289842 -0.180477815075515
Ni 5.449332548153792 8.632749170098734 7.962270319561868 0.8423589587678719 1.8449313259352678 1.0720476883503989
Ni 8.77529229051815 8.979631936905852 11.399876775391713 -0.15638169335825972 1.2179955879698443 0.5749074086142744
Ni 5.7937096741722875 5.6966207336886985 4.342061115193175 -2.968212615649662 0.4273687674689414 -1.8467262130521616
Ni 8.735777407266465 5.075054775391067 3.484126925123496 -2.9062539145586785 -0.26846225080629893 2.0935935112965045
Ni 1.1413472196707757 3.737256037741214 8.158278246319847 2.866344994178883 -0.11136939031362754 1.4223628080684472
Ni 4.883957904578787 1.7789492790155925 3.3703875375919568 1.2385279035952412 -0.6332115436718062 1.7544832591553399
Ni 8.287304826707306 0.7798574950810944 5.320798743788096 0.13023383131829827 1.5713181270556487 -0.7567011142877355
Ni 2.907953897764635 6.298206526734834 13.650623366663218 -4.393272253823982 -0.8588358733769724 -1.7230672067379034
Ni 4.939796573560794 6.425511639098997 12.757482139468072 1.3011232098289591 0.8324648395826115 -0.8225061857080028
Ni 7.686999694508689 3.2365640471169472 11.188425749239856 1.8971643150980555 1.2760721803976023 -2.1875012544902583
Ni 3.394057490908477 8.74060308582233 12.601881846494612 1.5205833197049425 -1.0409339976647298 -0.36582915619324735
Ni 1.7255791302179322 8.809461806754106 4.263908322965825 -0.7581910685697006 0.08507960337916315 -1.3194286930063663
Ni 7.402498103187202 8.617232757511411 6.674804337264802 -1.0160557463658115 -1.6418897666266237 0.9346507636247582
P 6.727153669444875 1.3201200498634595 10.195548882476249 -1.0638538396856967 1.6830024775065338 1.0534742962235855
Ni 5.415079510558215 7.342900973022261 6.0486131516743935 0.2173191522735806 0.6857211835347481 -0.44572927225400005
P 4.90352046303218 0.8252272256421935 0.314027319962529 -0.30327961559580024 0.12739430498697416 -0.6836283055614614
Ni 6.38800126847821 8.162152709391144 0.7447321232850339 -3.003981802829472 -1.4127476535761863 -0.5911320980032528
P 0.5443727336908132 3.3180901742578692 11.691722678269183 1.2943259844014676 -0.46955799924248165 -1.0872053699274438
P 6.22779802057454 -0.0812913393188774 4.19565652391396 0.5507179558522645 0.3038095199573413 0.42101582866772
P 3.9294943671349767 4.269713985474574 11.332331195836197 0.6159848953808746 1.5304607267196546 -0.11445471410717063
Ni 2.708272887213556 8.034170145998946 6.1380403994354396 0.8990430417234775 0.16264335799725538 0.5031409774042496
Ni 8.326253620743783 6.494268278369013 1.229981014515424 -0.11053943821316446 -0.6601109391658115 0.49767429786272355
Ni 1.3468097643378243 4.044132073289993 5.892279726766485 -1.198906432548877 1.7085661849082512 0.21897262871660353
Ni 6.116965176357803 0.0547102026120198 12.045192496305058 -0.0346309598103081 0.1812964543220684 -0.0372902518100261
Ni 6.685903397943292 7.354881648052305 2.881175093840008 0.2718476223387641 0.017178568661815576 1.1873295263445551
Ni 3.0516199164633964 6.740247962603195 3.485430786348686 -0.25981537376457836 -2.5245438254691166 -0.4757451018898
Ni 5.879690273826316 2.6492511264148915 1.1642060877838687 1.2787196453227785 -0.035388406801622925 0.7014936158776564
Ni 6.348746229456457 3.3758683948132915 9.156030904455093 0.7102957875503185 -1.7162748664064182 0.35104942678091156
Ni 4.759009950586143 6.590735448730981 8.170176328005377 -0.501228333762569 -1.44580561247242 0.331279700353152
Ni 3.8031822309351937 1.8820239169386688 12.274993165165595 0.4539999969032245 0.12384258307997383 1.3726924374265133
Ni 3.608466101206015 2.4536812227873677 1.656487477494326 -0.692341259954427 0.7921874801198034 -1.5720580905454669
Ni 4.212177048846945 8.31316860773653 4.218610977583063 1.133635636365525 1.5164888379205947 0.13767434675674353
Ni 2.1204773986559142 3.7056571233513633 13.421826810148346 -0.406583455292474 0.20316600070165008 -0.9756482890830425
Ni 2.635349460113571 1.7130323659726816 3.6692418105567155 -1.5219064093917403 0.30414016382388265 0.013591622641505624
Ni 8.385405303657413 2.550630961004922 2.2254693157898404 0.8408852024358228 1.4598908869208922 0.6790445428455208
Ni 8.76725567969242 1.3699173404995655 -0.10633475499360627 -0.9414492746038302 0.4188252487743045 -0.2336860236673782
Ni 0.3149776074319917 5.8906779726919805 12.785354145188624 -1.4533566853468003 -1.7058400442263393 1.6784487966975803
Ni 7.855991245474676 -0.037974378174235005 9.229362658202113 -0.3690723457208934 -0.48226747638935014 -1.5147883102897202
Ni 8.891656104771995 6.146865823102032 6.95044616836074 -0.07163427650753469 0.3114955757476893 -1.6493367098229725
Ni 7.3808382305922215 6.872016827631534 8.462063063547552 -1.354366899644448 0.254596034347168 0.3775240760326724
Ni 8.97053738885826 8.509137557860022 2.617145515776675 -0.2584578312954194 0.8619289104799993 -1.147120301115521
Ni 8.081201951616498 6.915475775087532 10.774827048382788 0.2989388221286013 -1.1400813919908688 -0.4523256945245952
Ni 1.2979497689596846 6.536140319992216 5.051975039682532 0.29920750240895566 -1.6168454220634865 1.163845841400318
Ni 4.342368288193558 3.7960365146120854 8.637209210702482 -1.4911027937473225 0.8533470823482593 -1.2609744055242154
Ni 8.284409419573786 8.447582315819528 13.699655972851241 5.077166925672953 1.939552550256279 -0.8812939452701726
P 6.984724262364203 7.384049162862086 12.483090344721123 -1.03819114481227 -1.4800707043028767 -1.4023470270681526
Ni 0.8735647485151499 6.69360592333054 2.8706894511471766 1.372501918682262 0.011839672947405415 -1.5307744013053313
P 1.065370622869099 8.117199657613043 0.878043349421036 0.6275571735995062 -0.3964815909717817 -0.7094815191791394
Ni 1.8265378936972827 6.27882029115175 7.3600247077747305 0.15398799631510254 -0.060244803723670436 1.6928816842934589
P 7.406089521650895 6.000053833190888 5.385559350007814 2.4613736205685353 0.49477872148248336 1.081537373008389
P 7.620813657084778 4.966217163654157 9.610634880825522 1.3210140352156152 0.47466909521680184 0.20271862875158633
P 3.7091464601532964 4.912234524885946 1.8001080234528495 -2.184835020512005 -1.6934915499633156 1.205850210856562
Ni 6.290689604368966 2.436123176964872 12.450071567217721 -2.2337464015007273 -1.0863751607166645 1.7360376508556425
Ni 3.330534856841361 3.34210720522437 6.295134796731003 2.0413247837997752 -1.6535885431207908 0.690891671992094
Ni 8.531075834987073 3.114344457538581 5.573445288550229 -0.8327330056423335 0.5154115672414865 -1.8177077143326241
Ni 1.3705762312254626 1.085443589631286 8.356338014479178 1.3404847423457171 -0.15895151096796498 -0.0015166937548425493
Ni 1.6269868052611696 0.23845719377767302 10.616849180705456 0.938019680096991 1.0872866167873405 0.6575503775274869
Ni 3.116590254097272 8.830137983335776 8.28212279035039 -0.2331736028073339 -0.7243880039773267 0.8469951719883025
Ni 1.7902339427154628 1.315396452969353 5.817942932658695 -0.7195998385600638 0.370299276149459 1.016503118315875
Ni 6.22644311851847 3.5225597427605377 3.993848502737873 1.2838929619936017 -0.7972605237673366 0.5344708978657828
Ni 9.524219042086358 1.9378440256185376 10.096967693700769 -1.2437696116101546 0.8313710922978004 0.36417902218433407
Ni 2.933233029276516 2.7867272843506483 10.387428070023642 -1.9806724602250407 -0.7452427359391488 -2.07449021480815
Ni 0.378298862220911 5.633534266721825 9.211406493898759 -0.21347252483398071 -0.34700790972168627 0.6774075214627301
Ni 0.7413903408850969 4.603910785770407 1.6763173042985062 1.3106668876533365 0.21287602890056243 -1.3348897647564428
Ni 4.497337530894328 0.7817914785638682 10.238184680532429 -0.2630606201747534 -0.793264515234066 1.95823701403966
Ni 3.5413891692794826 5.708378685093087 6.097279191895192 0.49674818650402836 -0.16254128520175232 -1.363420525206284
Ni 5.806562683402814 5.013629455465538 6.6479243796935235 0.4045242587706001 -1.5174229196990898 0.9866184149413008
Ni 5.230126099753595 9.112959867313778 2.181869310037594 -2.895106125471975 0.4943514041370777 1.426481715332827
Ni 1.4391565476251684 7.3260667789831455 11.82253568773742 0.37231142148348134 2.2525519642430045 -0.2995983100894711
Ni 4.956305962312496 7.743014686361006 10.496590487047964 -0.48407341924983727 -0.3336173473473932 -0.39562001430243476
Ni 4.613989029831311 1.5422404656993138 8.292527695728923 -0.3790155729765343 1.1017369878847154 -2.6856108401181875
Ni 2.8716870673870907 -0.2117182945026429 1.8099143590874325 -0.5630533374891658 0.09678146519712365 -0.1586262664180623
Ni 1.5560400503388756 4.130910765935954 3.725364452161433 0.7826592289143941 -0.32438425878489946 -0.5504305065188327
Ni 1.2661188507931094 2.1610223786762544 1.3307096302482642 -0.16663782386862913 -0.3598318009592319 1.8322766132857349
Ni 4.207008004701527 0.6767540886897043 5.910221970843236 0.44476613700978235 0.9284798589273557 0.3543813193676219
Ni 7.307422955485581 0.7273698886500934 2.0971554510044794 -0.5001667252672741 -1.1538239383879418 0.04995113510714624
Ni 1.7138211788135442 4.992285108006902 11.100343195368705 -0.010523525239143166 -0.2408979680347851 1.2397404358461037
P 7.838034153156214 4.455038602321952 1.5354808036606744 -1.5526853424458098 0.5038588294068806 0.4513661588248033
Ni 3.170712095131519 5.497812057338104 9.467476486390234 -0.3394159563070413 1.436392803798952 0.16153135587999923
P 2.723724338743395 7.845504674766738 10.324147647899428 2.7184479412528666 -1.5189408990055133 -1.662958671481781
Ni 5.887661923594564 5.542783669418344 10.614526358892894 -1.7255879162772283 -0.678914959246192 -0.09721778140359386
P 5.438465491252025 2.6830494366080893 6.083411862152826 0.26876461253806616 0.2314597054400207 -0.26825193456770574
P 0.16803198334545538 1.1344335071243914 3.5361746523938278 1.2750367971545526 0.50963609821029 -0.1326169868384942
P 9.326366221295867 2.18075197984889 7.270013738511445 -0.9563884124121659 -0.9680933595539198 -0.8903396004122085
Ni 4.395747717142288 4.201133669074868 13.410336127094745 1.4008182491284522 -0.4497188530293674 0.09590986122544773
