# total energy = -340874.3049040113 ev
CRYSTAL
PRIMVEC
9.15623550607830 0.00000000000000 0.00000000000000

0.00000000000000 9.15623550607830 0.00000000000000

0.00000000000000 0.00000000000000 13.40107618961335

PRIMCOORD
 96 1
Ni 7.30670318194553 7.87730144898523 0.2114385307930431 1.3662250845346149 -0.43342268697250524 -0.9605643981667262
Ni 4.043192040226846 0.319133253940356 12.660679882680776 -1.8016943696235037 -0.2623805633885933 0.9814229867832904
Ni 4.161106037513942 7.623637108183732 9.009690600397255 0.004977141499617235 0.6508405696074792 -0.6108545161328447
Ni 1.612312305349236 0.8724472957370948 2.58189169127275 -0.766841288045531 0.45560462238618304 0.9875512111682154
Ni 4.17430017247983 2.109102160202938 10.910579971478546 1.8170520830264962 -1.0848615522856153 0.006427500792898608
Ni 7.20716574876429 2.5501122300377714 7.814153641477084 1.2835744023119184 1.2028438199300704 -0.661279505552616
Ni 8.120903087269372 0.1443379765362676 8.380657240122096 -1.202033408213633 0.6463074576238159 -0.21994090616714382
Ni 0.8567864710003461 6.474318993455655 0.5501881030893453 -0.31583996875931414 -0.99740984912985 -0.4793438749846519
Ni 3.623827310474843 1.807523240444817 3.642010678017353 -1.411087492264944 1.0714355086876968 -0.46660174482763517
Ni 7.439019937248825 1.5722079950434837 10.227661251253528 -0.9114337020783465 -0.12821011602005017 -0.6415187779859209
Ni 8.830172536861728 4.365656332543739 0.17224526589263817 -0.8442397207303525 -0.30201951793645404 -0.41130271514501415
Ni 5.384763626071334 0.8887902599984505 1.3916882393738346 0.009583272813060914 1.1562369187048085 -0.08174693946150438
Ni 7.229607681312098 3.1601647146819203 11.910447267918132 -1.9607983470089327 0.33100433520457834 0.6200541803542418
Ni 4.82008028698997 7.488271326548972 6.65484058037235 -0.1747501685631184 -0.2847352769347096 0.21600043346215703
Ni 3.4195974836780834 4.80353496993004 13.311114111558135 -0.9580729992034404 0.6157696940462749 0.7260306817870721
Ni 0.06431064938230911 7.5615028959155035 12.000462216460566 0.27794833591986323 0.604494892463404 -1.3005819926135085
Ni 0.31349118179186175 4.575361588007814 4.131363838617554 -0.25242550905841044 -0.7227586959040199 -0.7944333387311866
Ni 0.8469224587874724 2.1721062148179797 0.6724751183221097 -1.3401674682156146 -0.47049285235192523 -0.12994381088170523
Ni 7.012778874839375 8.184392422351586 10.75841066695038 -0.7517198590230603 0.6563327030703019 0.8616805419146193
Ni 4.503604172513252 3.528776432556118 1.8807603035524862 0.07296996459982272 0.5998630501183476 0.6144730867220385
Ni 1.7407559731503999 8.888232224452771 8.815817391268723 -0.8272809813888269 0.019120779989850942 0.3219504525324262
Ni 6.312848785181239 4.274313729893011 0.529794420362404 -0.64480824737047 2.136161723676018 -0.9302248666429206
Ni 5.018523373121609 4.355465442733168 11.675593496772372 1.2028206800016188 0.20989097813030952 0.08085785198833172
Ni 1.472881155272524 0.01410151787714371 13.297981323368287 0.3845727553493377 -0.4909518915372254 0.321416177295511
P 8.318595362112182 1.4507413784872936 6.348076484603693 1.8165419761592974 -1.0057399662621 0.7172012564209003
P 2.7841730712126465 8.289817314785475 6.988821585361063 0.003758952821799978 0.8647560955161495 0.15567566843017058
P 1.9574016549185298 2.32594012291089 9.326545783012481 1.0406110671076725 0.49049860604989076 1.905181528975577
P 1.5215740142236638 2.8750120809257447 3.977479571230881 1.3841922105359967 -1.5952633250173365 -0.048279146721362014
P 3.021118126484853 4.818569508177083 5.9861268434825705 1.713834632396042 -1.5621642284705226 -1.7908895656985155
P 4.028844219622025 5.916988111263681 1.9530991399841298 -0.29471449963460855 -2.0405202856206084 -0.5148878335275325
P 2.2717443665867467 7.249366836937626 12.468253358718526 0.3992673812470349 -0.27570916217669933 -0.9764039363021443
P 1.050998460832375 8.184410734822045 4.3497611081851115 -1.0402549693198342 -0.9641315466926943 -0.8165204004382132
Ni 8.997356235919428 2.442480684913543 2.7614527891138576 -0.4178561999928158 0.47627860579576675 -0.5902268125801642
Ni 6.157449160864061 6.441933389448475 1.951410730207787 0.30499916939006827 -0.2576268507536918 0.5184871208430167
Ni 5.671820756755272 1.1149272952056088 8.53054847332513 -1.337799225093754 -2.479616368828807 0.3422248865107461
Ni 6.200712372324035 0.6698097382467662 12.38145499561226 1.7092431563706174 0.9701096186530004 0.593855667582003
Ni 1.8054630875181517 0.80438258991064 5.247995109199397 -2.147933262389649 1.068025197454567 0.045739925239276065
Ni 0.6918268214799198 4.6346939922957775 9.451363581662713 -0.6833771087826038 -0.807836242400654 -0.5783406026655394
Ni 0.1084812437535376 2.9460461538371665 11.134417876019546 2.5305000430525517 0.1337816965705567 0.24903165288551302
Ni 7.86708309046897 5.68305545738202 11.468680893053333 -0.38440923318827985 -0.89930786534909 0.1289009714394877
Ni 8.422436225851346 7.027721850734122 9.474359466441914 1.5139940965231988 -0.07253570527588152 -0.28571743834232083
Ni 7.219233666796934 7.253111737146543 6.449374661819591 0.07202585551899854 -0.9503473484244085 -0.43957662238904294
Ni 0.08298021301551217 6.199494593038494 5.64319287168633 0.43411817037763295 0.4752617344954783 0.09736767671789683
Ni 2.3030770035425197 6.167887269025833 7.311961607837904 -0.0011755083653399111 1.0468333938683005 1.5602248453559646
Ni 4.150558054529415 6.985227763033437 11.307640112211185 0.7622657528597067 -1.408216341364736 1.22238574661774
Ni 7.493884098744731 5.2644323826836175 8.037777290113711 -1.1964762258408297 -1.3124525187988492 -0.23122059284602114
Ni 5.252007371477017 4.245334245391252 7.014739224802037 0.3858097130802323 0.24313765599858125 -0.9977528342915655
Ni 2.7211140791862265 7.5739828445334805 1.2151715897465767 0.8839951462514195 0.40050999540488447 0.07400123407781449
Ni 4.990377106025745 7.7110974670970975 0.3627627148095137 -0.2910311372457504 -0.6348681054386228 0.17197903357588448
Ni 5.671802444284812 0.9611116995831576 4.113580598554579 0.7884475534613969 1.0066323961693826 -2.2588858768808326
Ni 2.9596156944474687 4.085228316166049 10.60482031471458 -1.0883279135676611 0.40751882262254974 -1.0265728438470514
Ni 3.9112415343327362 9.409588258427554 5.406408966154165 0.7533967325048508 -1.4403006234937905 0.600465716699353
Ni 5.386201155002385 5.915935144212273 4.909403939772567 0.6197063100965199 0.21417006512163758 -0.4457439275420194
Ni 7.540544273474894 2.417209475679781 0.8953287275759249 0.0373082495321551 -1.0101383524401117 -1.8102168052722178
Ni 8.551209518120777 0.7352392795741354 12.188801397016313 0.06038287196343149 1.4036888858080276 2.2487176780985787
Ni 8.149763540713147 6.984403701862771 3.642895170340535 -0.8518293601521524 -1.3622856402708925 -0.06117194352363013
P 5.258636485783265 2.437069349892835 13.267145869985482 -0.30089183208991405 1.7508850002811203 -1.6745450907678
P 0.20758375576137145 6.136105976543808 7.797389490395164 0.8282595432520122 0.5685187314791111 0.13979602108543665
P 7.886604183978529 3.678371003737712 9.653197221699882 -1.516759060862846 0.14788265474831305 0.1247419549657916
P 6.419949268662148 7.79992210505968 8.391284882353121 -0.319152835182631 0.06686282326082034 -0.46920730077128225
P 5.020803275693785 -0.03054062260841039 10.758115836175987 -0.8986833443912136 0.0595169244187104 -1.8060176795892058
P 3.4873536243772993 0.3435263802155969 1.9851551195230428 0.25639554944975196 -1.1990244461839803 0.08444017002295136
P 6.01193827059488 6.2121576663610645 12.498754609515448 -0.06377158593000629 -0.26078519387701543 0.019692593332920925
P 1.5942836781821068 3.559861851160691 12.821371810960677 1.6451599527374634 0.7138529087739577 -0.9173181858835815
Ni 2.065893886154343 6.384505482088275 9.721971535756632 0.9854521625473415 1.3493565909140504 0.5955592805366711
Ni 7.271625644780841 4.500170584302143 2.8511060663647196 -0.46834752387414824 -1.017588380960254 1.2073543062059142
Ni 0.2856232642469786 8.22178648702937 6.9149152014581095 1.7710211089093628 0.14186087403426534 -1.2919482281979104
Ni 3.118375657093917 1.9754760632618074 0.5281444667740258 0.7678676724275163 1.069428762670313 0.6918087844897246
Ni 0.9885895615072587 1.7785712246487464 7.56695726524179 -1.180171575143535 -0.6043431973768882 -0.9784543910732696
Ni 1.1218768777448933 5.3773837004762575 11.865687927621641 0.6913817242546351 0.2562955335367779 -1.1855348963379777
Ni 7.702710355626763 2.4711030762413473 4.639398465956758 -0.673658595943259 1.288190818038007 0.22651984493624217
Ni 2.6760562456212478 6.8704818231357905 4.999136876269927 -0.33010959130445083 -0.3337374178650252 1.2016300021276274
Ni 1.5642786953346295 4.2836347773567685 1.8579649403248146 0.4177708393678612 -0.6743365958468902 -0.37952105185804313
Ni 6.057490540862259 6.158538752856388 9.848021763668772 0.271821397086519 -0.600285739478063 0.3738021470963949
Ni 0.4941684247074606 4.129681838205872 6.987294325324763 0.23289798054844404 -0.3984304871680364 -0.4374243519327305
Ni 5.568868047833381 3.284130983455798 9.38075344244242 0.41519793643436237 1.9149180395370502 0.4662312488620938
Ni 2.740818297400377 8.76997029022695 10.91187924125763 -0.9562544579374628 -0.502597960416586 -0.8992194194003418
Ni 3.1405703712905257 3.5969537600758974 7.827729591452046 -0.9337313371342822 1.1195246508854397 0.7934334367117625
Ni 3.9800964232595075 7.533228441526425 3.295619311798407 1.7318696355208818 1.1338621505540343 0.09164105864676476
Ni 5.222286231921658 3.486511250736174 4.36284079021063 1.0875848647540496 -0.4764989493366891 0.7547218790741776
Ni 3.104815272718844 4.382650305129921 3.8382287989881925 -0.4242759874762306 1.2995448095982458 -0.010803004152774943
Ni 8.162893582032428 0.0012608135911192058 4.534039498416522 1.77062747301537 0.5598955085864744 0.24210612941027337
Ni 0.37302227638430724 8.145789734623492 2.070372200805152 -1.4670354683854734 1.031212656611908 0.2027705650354443
Ni 3.3954067102014167 1.299150748025641 7.67164691198674 -0.5004924840378091 -1.0749797743955294 0.3374068962968125
Ni 6.456345303699903 0.31579946869325 6.090587584346779 -0.5317758675321228 0.7323915910080935 2.8216067707312438
Ni 2.110091033607737 1.6515193046024856 11.671063907204278 -1.6682304614036818 1.2849178037136904 -0.18806359784257287
Ni 6.914395127297066 8.730168135683774 2.320918843510965 0.8829170826958923 -0.35201024803228403 0.9579693837460406
Ni 1.3956849360515653 6.415160557637055 2.8869399085593757 1.1422354622193942 -1.197150626200035 1.697846741608218
P 4.890473423435319 2.009061134084068 6.2951149887885025 0.682323984927741 0.8025922203928951 -0.02330936414990179
P -0.14660597600264544 9.19157829761021 10.361377079299908 1.6203603771952804 -1.2837361247007633 -1.663992512062934
P 4.328884891861569 5.249864812433286 9.060655121308864 -1.6037227686385993 -0.9106181481555866 0.22992038597735884
P 7.491549258761177 4.623495916609946 5.172279453215068 -0.8299155907981965 1.0195419051421988 0.8438473703879403
P 8.420760634804326 5.804604480055278 1.7100706820253613 -0.15411115215652813 1.1324634704342948 0.49560970202421095
P 6.214849599518574 8.071935541261345 4.366847558747113 -0.5260464212475134 -1.990982841012113 0.30374164283388333
P 6.591207492397034 2.4139406997028052 2.7068028835223243 -1.64345736822406 -0.2574381317816534 1.5737997558269217
P 8.57420998101759 0.5618394124190417 1.0947222309243978 0.053707259715468796 -0.6097779952392144 -0.3612001420616683
