# total energy = -381166.0906096858 ev
CRYSTAL
PRIMVEC
9.26622901498809 0.00000000000000 0.00000000000000
0.00000000000000 9.26622901498809 0.00000000000000
0.00000000000000 0.00000000000000 13.56206280821734
PRIMCOORD
 96 1
Ni 4.1953036876678516 6.685371061127369 7.17500971809806 1.5202521616177689 0.9211959236714328 1.5189285577103389
Ni 7.258051808664511 3.413873334439776 13.339251769805339 -0.8125778708506973 -1.3254036796428785 -1.9546302705250076
Ni 5.886186613239144 4.542759474448432 1.6349612338834034 -0.6688909993512867 1.6554775326133875 -0.0023705571147055945
Ni 0.9650036148732759 3.864174996289767 9.748031152949045 -0.7397822270452097 -0.3544088301714477 0.25419391381274287
Ni 2.7587324155139794 1.7807190152008032 4.338856106496151 2.613129642229325 -0.266496899549812 2.644169799364582
Ni 9.043941379617069 2.495960695069045 1.3425412873034945 0.7688714311016823 0.643676447758872 -0.41048536145004144
Ni 7.465235421663604 8.663655343681528 4.55880580311387 0.7000188311043428 -0.2205515431679492 0.28821140840876813
Ni 5.187272028773399 2.2174456516451997 0.3795317648993543 1.4507357027841854 -0.2825338984080166 0.5082335614358086
Ni 0.6016970168580136 9.24285951639651 6.44847621163647 -0.04070056304315571 0.9236790951046029 -0.8150283892737189
Ni 0.3277150126344529 7.191965063823081 5.259680195001652 0.9691482831809952 -1.7877386787743599 -1.077276540849506
Ni 8.277383323847 7.818343608101122 10.949941663410849 -0.41191386636645194 -0.14394063938142954 0.48076775191537197
Ni 8.656529613622208 1.5365631487079765 11.038650979600549 0.12693510596236846 -0.06166919487502283 -1.7483977150828922
Ni 6.593755855540265 0.47905477026880117 11.56793797698452 0.4505135810165209 0.43901895011336 -0.1242704146460118
Ni 5.620338504784206 7.507146575185448 11.836412134722698 -0.318840960369167 0.19311067334817708 -0.8524497673449707
Ni 4.742066792843597 6.979054921335485 1.554104120102372 -0.2361563395847417 -0.8915768152534193 -1.6059902245165374
Ni 7.071958132746054 5.220333933652006 8.010038719417313 -2.075995852819399 -2.2930702360720248 0.6155020422071851
Ni 0.5225254301222224 7.083337061891494 2.7278054497844844 1.6748705924280185 -0.44267891546345045 -0.42527460394407407
Ni 3.4849823753698286 7.313389727928815 13.141435387647553 -0.3980908444404305 0.5538593296947236 -0.08171377223072379
Ni 1.5760280177881296 4.040400138380949 7.148170085956557 0.03469318050681122 -0.26998023011272215 2.149944122172091
Ni 6.962866819367176 3.1895286654330657 6.509830693355281 0.43283364723825457 -1.7921167532373972 0.258501025828529
Ni 4.9876218599072395 2.1103002463449396 9.89214139875988 -1.4026483603586553 -0.35049535404965443 -3.4459042997428715
Ni 6.833269341331248 2.62772647067829 2.2462710366497878 -0.16333267075479613 -1.5078715285652287 -2.054632042431642
Ni 3.2549204431035603 5.089902495010956 5.94516060074178 -0.6975323172370633 -0.8156593379894985 -1.4271723136419485
Ni 6.679487005746787 6.374498346224798 0.12087332348345958 0.3755150160224436 0.7048177951548829 0.8454111153306344
P 8.043383244278768 4.787712236630598 1.0135012039297924 0.9926535653917873 1.0318230365023973 1.0891725209561436
Ni 8.324919078338942 2.677013542440988 8.679503375047526 -0.9774524321713166 0.9294928735729024 1.1830733221713627
P 5.915773682263077 7.329299843028751 5.443852981659646 -0.12473321321504324 -0.016130844123591573 0.19302659827480306
Ni 8.205393991167096 2.6311642416171805 3.952025333056192 1.8369035705347847 -0.037214147156452035 1.496195120668565
P 4.058580479572605 4.315319884973825 3.9960890315621445 -0.7770804492750358 0.051017114477815366 0.8136281664920827
P 4.1519840673462465 7.350232254217309 9.269615752477502 1.3135897177270859 1.466222485565875 -2.438466891173691
P 2.1577155398605874 2.9789906775555934 0.9058711748556671 -1.40206960503705 -0.559474876109288 -0.4954533789520048
Ni 0.926125298085392 6.200960410527897 10.390004760542862 -1.1340925213972854 0.9453735493589008 1.3770795107506155
Ni 9.13940207021668 5.682042323334274 8.15640065886198 2.8705616033633916 0.5273666827208336 -0.7423571868612375
Ni 5.944044946776707 8.419249289007164 7.613877780051832 -1.6472502596075889 1.5801899756239817 -2.3698145801126156
Ni 7.6509213835084475 6.489918493973656 3.5725862304462956 -2.5477004660912383 1.0096873809456224 0.6117037515070175
Ni 1.0177840549485402 8.927149829984234 3.78268963218621 0.7298387426792527 1.704199423299123 1.8796353050753565
Ni 8.013638649362756 5.21666450698947 5.990769906235893 0.3693636517090671 0.3440909931852074 -1.7648733441404123
Ni 8.822506306499339 5.863743806732423 12.538995219228086 -0.06756807685796104 -0.6683844920285135 0.03246686227945376
Ni 3.387927893391542 0.6113811527292667 0.7479181096227031 -0.7513542481535254 0.2480276371010309 -0.3452071090675216
Ni 9.172306449203207 5.0647817483388975 3.2735020120085685 -0.43850755769458033 -3.0388539321163086 -1.4497039190855612
Ni 5.262921521886892 5.21260589871121 9.552425693017724 -0.32649539159063123 0.6327734276931231 -0.12097091795913359
Ni 3.4586848176216543 2.8978370444482957 12.709808883614924 -1.702674244903848 -0.05665220127640566 1.026100017975691
Ni 1.010417402936631 4.495714830090616 5.071302393648056 -0.6491271864607981 -0.7857134423596854 0.818903555958409
Ni 3.3527625545422395 4.739296190388804 0.7752683109791199 0.4734380510231781 0.4074905404877756 1.4121035922342842
Ni 1.8874011090537735 1.5559017685178567 2.4763922727813092 -1.9338400732525338 -1.7972083088276918 -3.1015734226327165
Ni 6.694906010712595 5.407483959670284 11.505511392576679 0.5776075811542569 -0.2496939690598603 -0.6477681013297425
Ni 2.9079279677702696 7.87036421740283 5.747113489483244 -1.0166746108967328 1.1387184502050711 -1.6509084251854662
Ni 0.856263491571444 1.138550816799123 8.90805120550405 2.012474949447618 1.463679150318731 -0.8746080486095646
Ni 9.205303490479192 2.29113997045113 6.873714577433866 1.2689455966551502 -0.23012118913425528 -3.5613910546589826
Ni 4.623375666276873 0.2972939830053987 5.608265535090726 0.24852206023894619 -0.268368405540912 0.6143427317917614
Ni 6.291028155881051 3.920634129256513 4.139670175700176 -0.4283848674382815 1.5417314145374672 0.49506128571990865
Ni 4.309491426966918 2.794129410086927 2.601827360774785 -0.3360580955784019 -0.5047042081263114 -0.6168238463424022
Ni 8.030642179478296 7.800228130512087 6.737280475681729 -0.7311512908430892 -1.0597508732609167 0.8682569095805562
Ni 1.0746601682178472 8.850564447747216 1.0708063435992898 0.5873515479148981 -0.2032505899956564 0.551606786215121
Ni 4.746060537519236 6.241175844152659 3.5756922703889273 1.1497461687741426 0.5904949786398862 2.4667863069436744
Ni 1.9137820628624598 2.009150091172611 11.417940895924419 -0.8908211680343174 -1.093238720605717 -1.4875258750293412
P 1.7289300616227392 6.510155937991278 6.84036541945794 -0.5815053735467662 -0.8915107379021742 0.8104184013055333
Ni 8.092522056378334 -0.06951154305979687 8.843875157071244 -0.33356926771827716 1.9108256146352316 -0.04033675194583376
P 0.6546905801990313 9.124455642927106 10.527550809768496 -0.9624469599014199 -1.048986178545245 1.151356707794372
Ni 0.8520529171384735 7.968475049480938 8.38977712122216 0.6014905584194415 -0.682155834780993 0.5847477917434639
P 0.7590931817313352 1.8310809695212142 4.737920155390353 -0.711242210623988 -0.4718303402164261 0.8729414595404192
P 5.374283061357491 2.599983381214571 11.755012946548339 1.4332092638646479 0.9734294270548526 2.5833207863980094
P 8.417257049783817 7.872764170699792 1.5051580455648785 -2.943435151594666 0.9030416213599093 -1.6515504296448393
Ni 7.126045111102676 7.232347289568868 8.871094704599525 0.30086869216146245 -2.131988051914303 2.7567064705134334
Ni 3.2895668731318986 8.789157148523413 3.082480555536736 0.7216351238225378 -0.44958129901023863 -0.2355179346697944
Ni 5.342082915770843 -0.15998514924077756 9.75037736211812 0.00592947811055753 -1.2010247644434606 0.09393782510074145
Ni 7.134718301395942 2.971494298338443 10.45455979773955 -1.5272249933911761 2.4038274467229503 1.4371309675165571
Ni 6.027005494528434 1.4661768736356964 4.070368049414554 0.08092470067052514 -0.7662872153142738 0.2763804772121111
Ni 5.4616358016295266 8.770087249352962 0.24417995868808565 -0.5621855901722318 -0.6516820916721681 0.03200072127631263
Ni 0.29766463216323064 1.0078784562054823 12.866437804731532 0.9558708493457989 -0.9169543747862594 2.2121162248254613
Ni 0.9980469872939909 5.131341070856564 0.9185232838582595 -0.39213771218078913 0.17677594074389552 0.2955138556074523
Ni 4.652008313719389 4.87154380990323 12.558510824010831 1.742414500916264 0.986190840485579 -0.8221377466249906
Ni 1.9421367234366012 3.776766658644056 2.9686949705739174 0.5006359515942087 0.006623161743472464 -0.18007980830614792
Ni 2.6575637278837583 8.797329962453608 10.808828116041083 0.26666813502035364 -1.020131973317714 -0.8762730950168134
Ni 1.0894490696153405 7.572278898445461 12.627080918209735 0.2962797872391994 0.8037744136264545 -0.7472039734305777
Ni 6.188376871619504 8.321472041171106 2.7019832495812297 0.5961015261933863 0.14126849186590512 -0.3107299012262584
Ni 3.3706093114918465 3.9679938253984854 10.644035647223225 1.3594656543235941 1.8264620634864865 0.41098364124269865
Ni 3.513522360522886 6.503512051837141 10.896181782936013 0.3696197335839312 -0.34336979874846674 2.2307574940757324
Ni 8.462365052291961 0.487310980259507 2.632748766766912 -0.782625290352665 0.6228075747296629 -0.5758165506921051
Ni 7.218911257597461 0.777934205046826 0.1814355426274049 2.2032068381509733 1.048344174085872 1.3341893962553086
Ni 2.27325614858574 5.89989136584998 3.667344540891813 1.2734756233150197 1.5465925992845106 0.3934273775264902
Ni 4.036814107778926 3.6924161765504584 8.011409194678398 -0.4195842384275161 -0.698495709591597 0.07386316583805343
Ni 2.5396324320905896 5.783053485072415 8.93753449276379 0.41960814968691607 -0.7167423145066107 -2.4915007789712185
Ni 2.2656022434765113 1.654151594030151 6.7160960230658455 0.7230379177073354 0.475243222552717 0.284224141626246
Ni 0.4277476605959187 3.548502374793273 12.624843123919325 0.20142536386145954 -0.6797315416102164 0.15494213269825574
Ni 4.554926033054265 2.834548700748497 5.64901933661724 -0.2827277595863776 -0.6437908618495493 0.036569057373285405
Ni 2.2389433027994508 5.270000920801482 12.170608874504737 -1.7483565774323115 -0.47880188643825283 1.861768966317897
Ni 4.232090616582669 0.5661026516085204 11.911559398227329 0.6208177979931437 0.7064429894631318 1.100986482871936
P 5.122871737600104 0.772407826103552 2.130084571767113 -0.3313707174050616 0.11440560603679006 -0.21555640394620298
Ni 5.457882978906478 4.806745070885267 6.4605056300539045 0.5396496138532447 2.1270880435095236 -0.8359895649064183
P 8.236482189280247 5.228024903677018 10.050397469679371 -0.30900211990187426 -0.44441903808300876 0.40942478139601096
Ni 3.602997067223509 9.22984973095661 7.9303621232039765 -0.25509482836045744 -0.12967127394660893 0.24914915229998383
P 2.619053280385023 6.693321485562863 1.5447730275539535 -1.0276642771390172 0.7973404850756526 0.4521171780582149
P 2.7043952489758207 2.5746217125899222 9.434123748066725 -1.0489255005106388 -2.3548124502768286 -2.929280971581471
P 5.394418576856709 1.58242171576073 7.41493555107713 -0.10635393937690717 -0.3745289979600904 -0.05614312285047105
Ni 7.375297403515691 0.7603802609319065 6.345105868008727 -0.5858981032978232 1.2537508911925828 1.069180394104933
