# total energy = -340890.2724250138 ev
CRYSTAL
PRIMVEC
9.07581712630729 0.00000000000000 0.00000000000000
0.00000000000000 9.07581712630729 0.00000000000000
0.00000000000000 0.00000000000000 13.28337576200379
PRIMCOORD
 96 1
Ni 6.480560063933799 2.093972550757592 11.287203625856165 0.7492426011271612 0.5989713915420136 1.0112773511405615
Ni 4.755174602424506 0.3800416781712832 5.873789042527161 0.1554517253448226 0.2784586998973785 -0.04371929526482148
Ni 2.9309081122202394 1.7433828070716737 4.860798963319603 -0.6851118320855234 -0.532921808211108 -0.16538852484256034
Ni 3.327448718529622 4.625662690586299 4.80167455199024 0.4090010635950311 0.39491553203624247 -0.4767815135741144
Ni 3.5981712706124416 3.00423163960222 2.837461682881169 0.7425255941183019 0.2688893110413885 -0.17148332488638854
Ni 5.207658546124967 4.878015788600407 2.697401856261018 -0.037891889949767 -0.5836188203453433 -0.2809938076144064
Ni 5.419969138530794 4.571588971544111 11.411722023055733 0.11549009735022046 -0.25777417496483346 -0.6355605035199571
Ni 5.857142178568251 8.125152600482776 12.271847205116684 -0.5795027412944407 -1.0291783997906985 -0.1389516708072704
Ni 2.3563090477220863 6.6104440842783365 0.33592866853641296 -0.16443593112130392 0.20178840362783315 -1.7690894391042886
Ni 3.0212215694523334 1.8129126428525073 -0.24307489006230648 -0.7391301952835077 1.1983256203447428 1.2875999785315437
Ni 8.05016819854814 8.725345469562832 6.843117180216063 0.3951039938979647 0.5992526702278583 0.36034062227485036
Ni 8.778747578130176 2.6165671825414547 1.4534140769759525 0.3483705943971677 0.12673893079116236 -0.7698145117412419
Ni 7.152442813294862 0.8777440660449398 4.642367639775466 0.1057931817774307 -0.04005007394335038 -0.03455099850199211
Ni 1.0715545126139763 7.480197800836076 2.0967542887378587 -0.9206084265990789 0.3338924553856508 1.1952842624152575
Ni 7.667713260576033 4.171771995215556 3.708559527970319 -0.06413436858606375 -0.9387563011526994 -0.5098299593886509
Ni 7.773519137815682 4.178515327415681 12.446709160477885 0.7795667060319994 -1.7961855239901325 -0.06244104004404085
Ni 8.187213038685275 7.057419006921631 8.808047038886118 0.5834519557501758 1.0633378192812268 1.257816062400892
Ni 7.115885421501989 0.5873823530632627 0.2054683337979204 -0.6052407694904931 1.875383728887854 -0.7368678816118922
Ni 1.7637217134787808 6.357755181026808 9.081578556400887 1.6714176008824118 1.9797674319122678 0.02399867690744254
Ni 0.29305360037139067 5.066475133332036 1.0538966026159093 -0.01512888522163846 -0.5170637581329288 1.5351879569919948
Ni 6.671651395661439 1.7760739007255781 6.757838078800133 -0.3409532188871741 0.6716778180678046 1.3787962363314061
Ni 3.685970726472484 4.529949122103768 0.2429051722801499 -0.888634959016276 0.22064384577143933 0.4137046397182875
Ni 6.165865177383137 5.714361421943259 4.857172266755444 -0.7888764134686995 1.9031413586170967 -1.6415095004690696
Ni 5.552902633463814 3.099927056450296 8.897510999625705 -0.2815360532711216 1.207401614504082 -0.3421917192799655
P 0.3568847305149986 5.709968726405088 12.369771642675863 0.4734550203040426 0.13421724144607855 -1.6357373738719831
P 4.393793712054942 6.277361592024508 12.328620072202368 -0.8051923770199035 0.5087256705808787 1.1795264853603684
P 2.562066900089568 8.772448960974206 1.2069820421211477 1.379765542223211 -0.5669516441023075 -0.7100260788286998
P 6.500799136351403 7.767048080132385 5.723354649234112 -0.9309604592573644 0.858368961042883 0.13524902514470252
P 5.022185145261227 1.262863663955079 12.664290987529515 0.6566615471646304 -0.5289725937553729 -1.4149811708923954
P 3.90497019617507 6.052054429348722 8.06555987698447 -0.013685210796576431 1.6312801094315776 0.5915298476623038
P 4.882326801783528 1.4470755262241795 3.720859983058919 -0.16461925077670359 -2.7209128578535915 -0.5081276319855635
P 0.2849552486591811 5.652255604654622 3.1643925862181153 -0.17443726530838993 2.5331058561065145 1.0352474888029137
Ni 0.7382886888521483 0.07419662099927819 4.653551769345068 -1.246677272175253 0.9430898955310468 -1.6986355560581006
Ni 1.7145217082878268 6.876801168274669 4.486699222687245 1.1966798572112036 -0.4791124757001361 -0.1538293592500512
Ni 6.117754270259498 6.031479551693697 8.86288131141198 -0.9227033614548948 -1.7780168235009057 1.0746601862725815
Ni 8.709099756725383 2.4119438073274266 10.20087549795906 -0.09159709278270677 0.5665351253901791 -0.4647721478180641
Ni 2.1753281763860204 5.257049143477701 6.831441141352724 0.8343628279362727 -0.4623416839997005 0.4483273719984795
Ni 0.3272703389012589 -0.04680580460630657 9.361419582052301 0.17800492805499024 0.04124280869987091 -1.1974892404863764
Ni 1.457077076809022 0.9877211888824059 11.294588618334283 0.10024396982442735 0.5717030427443638 0.6059347102337241
Ni 4.43552431966756 7.111156920726397 1.5480975402031483 0.2959236894513613 -0.1540802989185927 -0.1612336221339223
Ni 5.4644224913117 8.075126695924109 7.90131027470753 0.4231225905980777 0.48255595416404634 -0.23110103654902134
Ni 5.182364243511576 3.0088693822055363 5.022006351661842 0.23192944598758766 0.755404506963499 0.28134424897528965
Ni 0.7753525112463224 7.140471810371625 6.642511669288704 -0.1764977473818444 1.4225643825562921 0.6235598795146551
Ni 5.056718629812339 4.817652528219475 6.766312169345565 -0.3352975632632935 -0.7014964440911338 0.6525727218072375
Ni 1.244430679165773 7.4015376929242525 11.30868245490706 -0.9688631478404087 -0.3433042356178539 0.9259691766903602
Ni 4.579239885466998 0.13428216137304536 10.224321056603184 -0.0855359741902914 1.608622777043378 -0.49827799288499347
Ni 8.313566566128268 7.401220039321285 4.38041868020659 -0.7710216446754656 -0.3850000726947434 0.0017663478718034096
Ni 7.491442738381103 6.135697160918513 6.795430113756955 -0.4004925119033877 -0.4163353924729153 0.3251393917833691
Ni 2.603334641023578 5.430442631611473 2.4350154423017716 0.2237955040265436 0.2063577681660704 0.28444782760127785
Ni 2.835566652244041 5.050084207418945 11.249611590899342 0.2705790400389856 0.3319096206276671 0.594253417241054
Ni 1.1075673553731913 3.842864378886434 3.6273182576389584 0.8639269147466346 -2.748296649183183 -0.025875067994548986
Ni 1.7400429063319078 1.3263036263761763 2.357945417568227 -0.3185188011430579 0.34052898686556193 0.8621286851956314
Ni 1.0737871636519718 3.3871675958873926 8.289451212172745 -0.3751576326830249 -0.9433760593128979 -1.0793123403326121
Ni 3.7240528555595973 2.682702662679157 7.153894944051282 -0.6591532032382326 0.8561662969646093 -1.2655792512860786
Ni 4.02277430378964 7.128655096341258 5.95337034588759 -0.19486750813828377 -0.688678209280543 -0.37629971670726803
Ni 0.7049323377954589 0.3267185292138193 0.24605357327641295 0.17960543977289067 0.13620881795481057 -0.010079238612872963
P 0.2586544379152472 5.430932725741765 7.98378676376357 -0.7661162369540483 -0.630055771651644 -0.5080911223206734
P 8.59394578774128 1.547935083074774 8.0892967693616 -0.7520893265473371 0.5467474012402906 -0.7012650448066181
P 2.106088766756471 2.920607059666885 10.546416364521251 -0.4819864548138215 1.1280020922288314 0.22140052143180577
P 4.283921868697316 6.51697224265103 3.802313627513406 -1.0780512142320013 -0.32811158703781557 -0.5211911500377411
P 7.174596883147495 4.165709349307503 10.069197188548621 -0.5485985955164165 0.5421371561617889 2.0638741298552006
P 6.442260115233222 7.936384677965409 10.10450484030925 0.3978535316186438 -0.3000677935267219 -0.31171489084734705
P 2.2970439612256968 8.736299980956575 5.852322919620383 3.17433281388363 -1.9617005471082278 -1.0327977417108407
P 6.956441464447077 3.8836147982384692 1.6574202966185025 0.2803140079385624 1.7578120664182568 -1.26824162860959
Ni 5.290838411016148 3.0308147082619334 0.5787167627743265 0.5251010266151085 -0.6477968976851488 -0.13815385749632336
Ni 1.2909986973607162 1.1047810794843105 6.819911223146749 -0.9593649785419863 2.4439541395405073 1.3472362021369377
Ni 6.668665451793551 0.9434493524460523 9.245482370041454 1.4301267682845822 -0.720387881678998 -0.6856239958352515
Ni 2.568492578686726 1.4725059660959843 8.94966155299736 0.409762624351404 -0.1130272376320247 0.5419522938444924
Ni 6.539153539955345 1.9530069575781235 2.404437198898458 0.6539788581261448 -0.6084965574236294 0.8435815183210633
Ni 4.124114878953298 6.987707654796245 10.316387961723656 -0.4156993015508131 -1.0580133217445198 -0.8253544537900753
Ni 8.569695204109067 7.348534920314924 13.511318857749282 -0.8363695739536563 -0.02603550483181323 -0.40218918287952027
Ni 7.654008776562319 3.8374914950876797 8.057695681356732 1.120279012552961 -0.22386440959126608 -1.4971533708167764
Ni 3.501704409300018 8.68061076644787 12.370741847537495 -0.8621585099923023 -1.1390586071533093 0.20386019855519727
Ni 0.683266546909673 4.737985004595384 10.245255336620424 -1.5481779414937593 -0.43290409546487385 1.283392111097783
Ni 8.563777771276655 2.770139085850094 5.592925172274194 1.7684610614916705 -1.1326753293347847 -0.08011094651997816
Ni 4.238152522418404 2.5934329244282393 10.682331265413545 -1.3226060622930833 -0.5227638938414997 1.164123263431421
Ni 1.3560450794311028 3.638967069050615 12.65642679190178 -0.5804347661904068 -0.5074002669012357 -0.38115601635830487
Ni 2.9274502258565143 8.353382176305857 7.880336061094489 0.5178289184337276 -0.6185012340448252 0.39786535869318573
Ni 5.844989659300462 8.30060629912722 3.6782199785600924 -0.4672915718058081 -0.8138451675988952 -0.9563009949046822
Ni 3.333783638954504 8.515458120356781 3.345643916907564 -0.3906300172870111 0.4743888449722218 0.6932241767800127
Ni 3.2071215337257724 4.19934432795308 9.033133659203271 0.9024595236041941 -0.0027665070015436225 -0.28050658356534275
Ni 7.398751417035372 6.301022247536926 11.439444106777511 0.363303047337284 0.04018197153552435 -1.2720342628828027
Ni 8.097326144862878 9.041710306483376 2.1007131602125484 1.0756945410743668 -0.6304362949195143 2.1369955324312233
Ni 4.775304765035377 0.5415948551498956 1.505856871662337 -0.5609653446118855 -0.0006458611141150167 -0.026627887000173496
Ni 6.108061297460395 5.525684257598168 0.2804146173002004 0.013404446331364011 0.8485612309238418 0.5818241903387658
Ni 8.036554472706705 9.144521164037911 11.279791405926362 0.09524651660983596 -1.1339233428092728 0.053884408723281395
Ni 9.177284864229636 5.177808183263308 5.398470342681996 0.28999652533364895 -0.42391731858523124 0.29588358024204525
Ni 7.388650032461025 6.244761256542879 2.3494177797011506 0.13250642940255888 -0.6858592517745091 0.34304121176445435
P 8.76115864434304 1.625379031478096 3.414664599341928 0.04967345596572736 0.5888451017412891 0.4924133065741004
P 2.019224120070874 3.3938383215496972 1.5199370945092743 -0.44195694969576144 0.14632148090878025 -1.4922111963201525
P 4.7916866151312405 1.2096249200978322 8.158117783816957 -0.13899152290627032 -1.2964366029865673 -0.33107118388677176
P 8.703808555281677 1.879774188368419 12.353114795318003 -0.7849544527064739 0.2735892876202191 0.8464308148444003
P 6.535205559461328 7.743659699136796 1.160447604449947 -0.5481265409760044 0.5477462748184502 -0.25888360597892834
P 1.7917478370776863 3.341606993404717 5.861249893445475 -0.44275784833050197 -0.36255511342766594 -0.029740978707858457
P 6.911942732580033 4.050800427388545 5.861209959849673 0.49228115187161026 -0.6777780174282714 1.046310945705927
P 2.34765979390416 8.603575229819791 10.01371308750926 1.617714454932001 -0.578012015681527 -0.4320060091306366
