# total energy = -381165.57563506253 ev
CRYSTAL
PRIMVEC
9.28526770717815 0.00000000000000 0.00000000000000
0.00000000000000 9.28526770717815 0.00000000000000
0.00000000000000 0.00000000000000 13.58992785869797
PRIMCOORD
 96 1
Ni 2.5373665293073393 6.7338246882845825 2.5717990874576913 0.49711713980767286 -0.39612986405931777 -0.46572962663532697
Ni 5.104427344666191 3.406346875993691 10.717860064361613 -0.5594825894187719 0.6470931867499049 -1.6907479257799074
Ni 3.0123172565809306 1.9173984913544075 4.32714180193372 0.4708633483174665 0.2492705083691965 -0.2435019813165355
Ni 6.50900050186642 7.947669162000093 9.087163711794314 -1.3258610788952714 -0.5639403680798095 -1.1666272608001973
Ni 4.811737136750058 0.2848246576615253 9.682470078780135 -0.4463064849137087 0.8248011523897667 0.17040526133086137
Ni 0.32528335453840396 4.859825538082387 10.17611112137364 -0.10300019241332582 1.2415677188628296 -0.5771735789406318
Ni 3.5489221612722974 4.862313989821538 0.9610252052318954 -0.6717899181656366 0.06134934964175886 0.23651860802016686
Ni 5.9918946593101925 9.197930455569896 5.184815478161995 -0.7563391029626264 -0.31233504092984915 0.26178869544086525
Ni 1.468000820745533 6.049249757790554 0.2529167637942897 -1.1936192160080088 -1.1475573886529398 1.5480241895247147
Ni 5.158449032048213 1.770152716431051 0.4178463310206814 -0.22761436355200154 -0.054200397301803434 -0.9811931301606716
Ni 0.6450670450279301 1.1709836780889353 8.329348446867161 0.2754132282028353 -0.051521050697427406 -1.0781589434544594
Ni 5.200000604931428 7.158792819618432 5.880076823232849 0.29617411489927054 1.9085391325938998 -1.1342331607402079
Ni 3.9879946142172313 7.641868156114998 11.110391041570272 0.44112236960960804 0.9194594005963004 0.43921255418140487
Ni 0.09221477894414999 2.927756323788207 6.586236286983709 -0.9698360532766395 -0.15903198649691322 1.4622804701989913
Ni 4.980766149658671 6.530728028245576 1.6589495650743482 -0.2185928767796816 -0.3799036320084425 -0.7481318845614858
Ni 8.12818405103307 4.531284911640646 0.48166954696929937 1.9789184536484112 -1.1787338142557442 1.5702552330087731
Ni 3.685703439516462 0.6187702384217731 12.099181054229069 0.5161003657783951 -0.07952576344046948 0.6643288339019011
Ni 0.9368185123812718 3.1140280787848935 4.509559242315027 -1.0248000682173448 -2.0134943918510677 -2.019758113372592
Ni 9.13883901203274 1.4578891642383107 0.5352334706545288 -0.3713472577979992 -0.5866295821472092 0.7192396270071678
Ni 0.18040810845461944 1.48061021425959 10.431207137493224 -1.2216411551422315 -0.20370079015919756 2.4931100324398674
Ni 7.868855809903393 7.912607991227574 4.255808661482768 -1.0205842303637842 -0.8659588575749989 -0.025639554944975197
Ni 7.677040750099717 3.551587033097433 4.547027154471082 1.3242531109782032 1.5163134886849952 -0.6821987722037864
Ni 4.8697514892359415 5.793552056325087 9.818002488520882 1.563164644710579 0.7229944660639097 -0.15926415711237732
Ni 2.7193113495635615 6.27205904112142 9.399256415061679 -2.177635417439772 0.9398693317112201 -0.6118353919888753
P 1.2575223728982228 8.335886203843044 1.0173774948024499 1.5052919407635108 -0.3040733151416892 -0.6256373308689741
Ni 3.2100748877019827 7.4969901244509085 0.3775733394974708 1.147567673065585 1.5169884032648326 -1.0651309066259076
P 3.2191373089609807 4.630182297736539 10.716500701172762 -0.5425760434714204 -0.09743709650325154 1.7358098511155526
Ni 5.24545199024167 7.91541214206796 3.408693263137286 0.18973661466962163 -0.11702221772403072 0.259966554630462
P 5.373542257934173 8.240517219466843 13.05320702468122 -1.1550822362750752 -0.571283695818758 -1.1130462422499474
P 1.227688807831459 8.069909711052054 10.227480936305284 1.534998466689008 -0.08662483637909597 1.2687550779108987
P 7.059672587098137 2.376722113116837 0.9758305645530766 1.8796077942715306 0.21027021584659916 0.027357308967030307
Ni 3.031528475417885 8.82537766030884 4.31837650924059 1.5769830386509098 -1.1507077613564636 -0.7104755076612925
Ni 7.881233071725366 3.1784121249015884 10.139853079596733 -1.0787351276729034 0.6358988606959823 1.2986899177971183
Ni 4.551229666624589 2.4870960900694117 6.3595699034571584 0.2707926987116885 -0.2678302736492548 -0.5006048412459573
Ni 1.590622065772513 3.1386154676105367 0.7321479994699283 -1.0738384617022345 -0.11653499367496704 -0.30059872632952744
Ni 3.597985515711383 0.25984543053964276 6.764168943073934 0.6832534387205459 -0.32107113525126635 -1.4859641869691764
Ni 0.8504098113195518 7.7810450334214805 3.9013147833391555 0.42211934614454405 0.3581438717338477 0.6043545102307979
Ni 0.8254389409385843 3.8770449506682847 12.298870949555038 0.08683772372085045 0.2786908705128426 -0.5670879125698556
Ni 1.2643191888424716 5.447406562355619 6.893436582708691 -0.24040585888971502 0.3498824030560039 0.5129895880635552
Ni 8.68738001199815 8.514813312102161 1.838894338671566 0.09936413832263531 1.079090197019477 2.4173151967967397
Ni 2.8268718904080665 1.9786998286002142 8.084702070998478 -0.10390599205704686 -0.6434237083181177 -0.15151973728026805
Ni 7.248683496061427 1.2547646483962531 9.116219171429208 -0.7542020020149656 0.3840047986610096 0.8567985312319696
Ni 6.896474722294699 3.4195133855687523 7.255159970270598 -0.9788454558641012 0.07553566844446992 0.32268064583023137
Ni 9.099237345363038 2.987841290967488 2.4335618792407696 -0.7482162167451759 0.0547585837981186 -0.27383894173718
Ni 4.184359455185773 4.6229026478727535 3.252056368478939 -0.5018363996602132 -0.1411697615045117 -0.5558087401116105
Ni 8.474626673568405 7.110351578114134 0.1325063410027274 0.13472734831327765 -0.47656682646014703 -1.6946950833531138
Ni 5.793700620608021 5.541327044973209 7.150489933255936 0.8552157601258821 -1.2715974324557004 1.1702756561860619
Ni 5.853228471726298 1.4725877429811327 11.575030479081448 -0.9548043557544975 -0.6649263582765839 -0.9454488826815266
Ni 3.4835817325842116 5.747924250928858 7.137960393043956 0.07171192382300552 -0.10108266367563881 -0.20012901364753918
Ni 5.785056036394775 0.5405325729214451 7.46698571045877 -0.16035353352181417 -1.7258182871204797 -0.9251271404050391
Ni 5.242759262613484 2.5449804488077272 3.978737202336881 0.4080281581588005 0.021175605636350625 0.5934039247565652
Ni 8.31050028199663 5.723151156749547 6.596700783662901 -1.878026822937656 -0.6495277643333265 0.06351884648925189
Ni 6.498108882873791 8.683508055374173 1.2566282016203114 -1.4488901649350143 -0.33508056215648097 0.9964413145689937
Ni 2.202660485123821 8.4597516747396 8.170128390739293 -1.6734901671407243 0.05178741698493661 0.5265542141218674
Ni 0.15772234245053668 7.789587479690208 6.390391421005437 0.21269939411338207 0.21122923732575882 -0.1312404182059417
Ni 2.3862580830276885 3.4870358521624367 6.074548398120745 1.529913853077249 0.5254674088155917 1.4065204417195518
P 8.153384267525817 4.756359800286261 11.911177596809429 -0.48624111632511746 0.6648638804697647 -1.0711974245349616
Ni 7.936814684078197 2.192613825490382 12.215741805039094 2.758210565862785 0.6043545102307979 -0.08599902986963899
P 8.716814310554527 5.517306057476254 4.382330647463544 -2.06530931963983 0.8524433395870674 0.1271994153673487
Ni 1.6159337054774612 0.6236905017672068 2.6735331228308628 -0.8445773065754294 0.2671756707843915 0.22863123485229012
P 8.509400001042739 4.006240165215112 8.373257549215193 2.8694745409468005 0.9310604751703385 -1.3548836913798665
P 5.299650097709676 2.333211348752424 8.344718350463495 -0.9275807441518542 1.1130346722857218 2.673788136451647
P 8.69248690922402 1.242108828543779 4.533327670530994 2.534360554449222 0.6167896506703572 1.10302176813441
Ni 1.567873159948183 0.6085090891048477 5.7330065398687085 -2.621028585361428 0.7910605656042119 0.1988779148492575
Ni 3.3395208044762614 2.7667219263550016 1.9946482043732219 1.5510277522377287 -0.1494777671495748 2.0572625380759533
Ni 4.3555890765353515 7.719892260458607 8.026021036292926 0.9588818682579809 -0.4055223610178113 1.3105948967648202
Ni 2.9849814285210012 0.9433181997596518 0.8071915328871667 -1.2392634962096851 -1.4589640042312486 -1.4945329024747938
Ni 6.514033116950822 3.858855111276504 2.4860459262944192 0.2095888735088584 -0.16163214312392163 -1.8179661102003335
Ni 0.0216764574068972 6.002721281429037 2.2505603955221765 1.9796427334089455 -0.5001574692958934 0.7657560254011523
Ni 4.750909348156106 0.8044282372245869 2.454463016796103 -0.46954154418224936 -0.6537122347283193 1.1981289309529042
Ni 8.478034366808213 8.703062829115412 9.765422803210093 -0.6133230322779953 3.669567134846293 2.800544550744306
Ni 8.103865934970246 0.37773397462839364 7.146019076866379 0.7038389761813814 -0.18485614664886874 -1.0448346182707167
Ni 7.207716895042266 6.393064649571488 2.008809166117175 -1.5177481642489925 0.183005209483059 0.5558408789011265
Ni 1.7832170880615947 6.408589617138133 11.726069285853473 0.14214575226453582 0.25324466252559613 -1.6769336456046346
Ni 6.197544767962135 5.44516881284392 4.09797489582003 0.2616683678129171 1.5134197120769677 1.2884525563398261
Ni 7.091521055252199 5.337357569771963 9.272992559522502 0.27714075241690334 0.8784009399930935 -0.0962675016751826
Ni 3.460656406673897 6.181323405319235 4.841737836635123 0.453764998074283 1.5714312555947452 -0.7139138439188801
Ni 0.009167344783820777 7.1231373917141765 8.833711188054691 0.9317937537919371 -4.354936334358261 -2.9482649688831417
Ni 6.3458397781337155 3.5953299291539302 12.644748099288453 -1.8407535404084945 -0.3122108566471591 0.4431854227862238
Ni 0.4796620720961483 9.043080046413836 12.415595121076292 0.3513487031888852 -0.6241306644164606 -0.2106571668723727
Ni 7.211848839161379 0.284272184234363 12.856261854482465 0.5371330180789782 -2.939848205574356 0.4625982800951969
Ni 3.4068204246455447 3.248506610643575 12.742527539155265 0.3835779955362361 -0.7228638540233164 -0.8035088186698935
Ni 2.36239494508135 0.7464064565245573 10.24384343501697 0.32354633626463636 -1.5959842623437612 -0.5407788423616816
Ni 1.4880384284063104 5.298387301304733 4.393066273959091 -0.06452646181815984 0.09552059620682904 -0.24159807942560327
Ni 4.116734850647571 5.6354982298182525 12.493737148319479 0.40907408292481157 -0.061960500863196516 -0.7220536994171952
Ni 6.919576468290999 1.8821980415666384 5.634642128137842 -0.12770849379328325 -1.077732397440002 0.5387031907795754
Ni 1.896209510500889 2.999615010390039 10.08719168393033 0.33195075827824766 0.8114581554239573 0.3899121652843801
Ni 6.508805511245068 5.6855086815610445 13.17338253020039 -1.4201339187379285 3.588838352236658 -0.15484314522654624
P 1.4464404291846784 1.727431199819728 12.515168474659534 0.9077164011277592 0.11962957343989074 -0.8064532460101982
Ni 7.24393872427521 7.095541576159111 10.989400289548497 0.24409127816110218 -0.9869233477762295 2.0545826772509455
P 1.7807193510547603 4.4234829538363725 2.395224866029548 -0.017973810869601304 0.6953818465529636 0.4560041718174469
Ni 7.096990077917722 0.8348755584852237 3.349020561843148 -0.7047882274685281 0.036688356559969076 -2.2171075073924658
P 7.086785568733665 7.722287859520925 7.035750023438625 0.13250848628508793 -0.6873152674947454 -1.0660382489315252
P 4.632169345020786 4.42126377486004 5.461221183614982 0.2500734638864661 0.6070374563795997 0.08491453855620859
P 2.2990879900159293 7.647235040836003 6.040586603041942 -0.026840774341927966 -0.16495349418767075 0.32871631050135
Ni 3.5303980522439145 4.04916595771547 8.683814469207723 1.0944610230485925 -0.5709633363648619 -0.7949313614135277
