# total energy = -340870.5152755346 ev
CRYSTAL
PRIMVEC
9.25408065172526 0.00000000000000 0.00000000000000
0.00000000000000 9.25408065172526 0.00000000000000
0.00000000000000 0.00000000000000 13.54428245060592
PRIMCOORD
 96 1
Ni 9.81598840015291 5.478906196051485 3.198617443418105 -1.8613066819694977 1.6522034898478064 -3.1869705572522986
Ni 0.06890218269871266 8.666400234558788 5.383039473228737 0.9226434547512368 0.4033605774798021 -0.2474895052093738
Ni 0.6661503667233645 4.2551003038478665 4.90496719030414 -0.3795321076016367 -2.681552096667782 1.6695054714613635
Ni 3.6402499330671145 9.011873572437313 10.766431526929274 0.7555975968109115 0.30079875815547547 1.5342777864728996
Ni 4.245975780351985 6.842013763897591 7.918691804474474 1.350439539565584 -1.8623166112912508 -0.3248935943211501
Ni 5.731126163475656 5.391038700520664 4.180145027012586 -1.024550414100384 -2.5458143048121187 0.2249051921509546
Ni 2.6463431658210714 7.478638986388088 1.0342804701951598 -0.13275351241635847 1.5702500908024504 -1.2993442635516654
Ni 3.3098052221229817 8.751972718094702 3.478848587484956 -1.1622445583514693 0.7799839960750761 -0.17476842339556353
Ni 1.0966270621793877 0.5850550073936449 1.595732944955697 -0.1122844459287292 0.7096260151768037 -0.6604151006697916
Ni 5.16656246680912 7.292372851575623 3.2433276085479212 0.5332966750520235 0.8142884257839008 -0.21535740056151942
Ni 7.3714489705130495 8.379579259679142 1.887707517335198 0.6349501236294678 -0.472931800810721 -0.8629362686985913
Ni 0.3025149702109497 5.9832350819323326 10.93997422629094 -0.9573482052222738 -0.1413844486184791 -1.9839896975237317
Ni 5.977913985573172 0.6842393181203201 0.15484760568379835 0.3068969006334134 0.06490492820350112 -0.33024663110294733
Ni 4.942058470855701 4.711141397029418 1.948399479703743 -1.5412272212075393 1.4382424554131812 -0.2142662243798697
Ni 6.58559244386984 3.653742382617818 13.2513335546215 0.773339751285681 0.5784413899094619 0.8905218916263438
Ni 7.214795893699387 4.99005013297501 9.112186881000193 0.20769885557499715 -0.10442252668214919 0.4986338335625155
Ni 4.628761571309001 2.5930766777457257 0.9938632730671073 0.2042810881426998 0.26616985522769643 -0.5281765802166387
Ni 7.962035141896033 1.730651888014364 1.9802825636797656 1.7415714361896781 -1.4290517900528485 0.7729648844447656
Ni 6.806394807573407 1.5832621459059515 6.5221409146590315 -0.8546475463272378 0.6763328003413127 0.20118573704682768
Ni 8.058814317068368 -0.1139926905422011 8.147698836059835 1.001956587960268 1.0362005967448025 -1.104287265110395
Ni 1.9363793543804166 6.2196213174077695 8.694318870395222 -0.6137457216377108 -1.0030112544770275 2.4337499453139952
Ni 4.897916506276237 3.063165465315459 5.789151099808183 0.6191182988035338 -0.23083724136467343 0.21916906099812578
Ni 3.9350201632033146 5.01265785194097 10.037044325665592 -1.0690304987906298 -1.8024533592767151 -0.5147353671100684
Ni 5.7708261693553 -0.4598917161294583 7.591286133607469 -0.6427814467484285 -0.35102911506593737 0.37665452894352547
P 5.772815796689594 0.0631368904695709 11.369802210695179 0.11104543131530553 0.3018889058958607 0.9740102392589871
P 0.5408649215949326 1.3999665709739915 3.5722777854711762 -1.1524432559903315 -1.4343323217254975 2.219294230631139
P 7.33644078351009 8.832140818545833 6.002203170988627 -0.54717780390949 -1.0512477208859121 0.21427882278536
P 8.401613225646376 0.46552374959760545 0.3414265284213756 -0.7346230514417735 -0.5434227077424318 -1.5229752169758868
P 1.528255890673177 2.867395389701504 6.887294905801947 0.22633935349431988 0.08970630351789712 -0.5414689264501706
P 2.96969925100674 8.866436441340698 5.847242665521208 -1.0962890773962668 -1.9193948443614812 0.41183339083750364
P 1.6278575604360226 6.951674619299405 12.61450844398951 0.15832210491408216 -0.0581293000425644 1.0474049501010543
P 1.625275671941752 2.8540880217632925 11.852845785731324 -0.10304184428453868 0.4662687869682486 0.19642971041908106
Ni 7.474298822575138 4.199418500729494 6.5658349817362645 -0.027478922146559125 -0.5157252418271634 0.5038647429441516
Ni 8.905090736109758 6.086575400267527 6.190793930853998 0.04923739686957327 0.7985453040170312 0.36952331721538295
Ni 2.214621796521036 1.5171972643267493 5.167225058981843 -1.464819177460445 0.34482992823376096 -1.055997833976388
Ni 5.6735380197486105 0.3612682026886354 2.501926759817351 -2.940977176972477 1.5860379497643267 0.21785856971681833
Ni 9.20478413713826 5.147934002511748 12.956487441024176 1.0789973801953547 -0.7668148056829697 2.3501376705089783
Ni 3.0023569015310443 8.542997069429406 8.496328740839418 -0.4389073642361602 1.1205458930611023 -0.0647203229965208
Ni 7.639437891321583 7.3089654181355765 4.2789906383884 -0.2372344031402688 1.9176953451718715 -0.8595745513152099
Ni 3.7641065481471037 1.699780275050613 12.501576271086892 -0.6457996647494619 -1.4294433690643122 0.18467642653789484
Ni 5.385930448015871 6.367094346241803 10.917084257865929 2.4573842969034843 1.1686391490239034 -0.7434589045658486
Ni 8.354056505316423 2.8613617291342477 8.677713348122394 0.7982329149829349 -0.5703020486317791 -0.26684399847658563
Ni 3.51786471680644 1.3286546256806264 7.03659376474322 2.2717745599180423 0.4595209267214538 0.915028104297824
Ni 2.1964097658517727 2.523458229206667 0.5043048252712241 -0.5625787118455924 1.060568998286838 0.04266385741711362
Ni 2.037174800543839 1.477821151268967 10.148229328146282 0.9720286900525842 0.1759272195903551 1.2365273282254448
Ni 2.8680431753452273 6.425321021531949 2.8579654815450106 1.5463156914740401 -1.126001773969351 1.424902029550533
Ni 1.545524005118728 6.86293724018987 4.694367450489222 0.2885163412436967 1.0307745406332247 0.9889609470315484
Ni 6.342274902006558 2.9582519532740785 2.4482919593331456 -1.4253206051451903 1.1886641859955784 0.6447496262183929
Ni 9.019193550211392 1.7764410789450118 5.783272907795422 1.3752206031650056 0.41991076852899945 0.5594725621164429
Ni 1.1380853433777105 8.139519154195728 10.754756578813245 0.9939339747661076 0.3787168107891929 -0.793642210288459
Ni 6.680178401934139 1.110952378986308 9.5424618374986 -1.1473203329414692 -0.28886729682521217 0.06754545115014174
Ni 4.011051689615239 6.714908966518359 5.242490347518047 -1.1476622896619202 0.5719344420288796 0.8575330954051489
Ni 7.581377789482682 3.1137575240902877 4.445287392620985 -0.15069029940043727 0.2965299555767925 -0.28723593186937624
Ni 0.5607139991266922 0.9515786024690054 12.148517363320362 -1.4200094773449223 0.06072328602198575 -0.7881305364416105
Ni 7.296935113323564 1.7276443118113607 11.94873841997982 0.11235823658945812 -0.6807059897083437 -0.03469575160997251
Ni 7.461861338215642 0.5325529063778939 3.9757344163194177 1.129768440100635 0.21182239082506746 0.9544654843578401
P 4.536840788464594 5.04358498938847 6.714510115643437 0.130901032588652 -0.47465675392162765 -0.4343953352984196
P 7.738299234634458 5.335690044304778 4.502444296190923 1.8828885219053315 -3.012894531938069 0.6519577139310578
P -0.00934754683893436 4.9048385585834575 8.066378602570937 -0.16729988293266027 0.5472834762494188 0.5660306749499349
P 5.375889770538151 7.275595203403177 1.2300579490736148 -0.4674029005726918 -0.20763072134122307 -1.924118732199712
P 1.2115257272147397 8.101558915473513 2.7298094206068195 0.5704167198327724 -2.1819101335557263 1.9901271778800371
P 4.197280808105205 1.0891682731959393 9.153252789180032 0.4386826498198639 0.6317164471835185 -0.994200598163933
P 2.505394263827398 4.390450487063641 2.7683970859953835 0.9516264722471481 -1.390203192616767 -0.3806466808220541
P 3.3093610262529998 7.027419269211967 10.130662306896554 0.12147973927475209 -0.13382514821398242 -0.025131762070621233
Ni 1.9300218009912988 5.146083186386823 6.64886074228428 0.0766533269886809 -0.12776968604852187 0.6639315984634824
Ni 3.2244548365220598 4.372793701231855 4.861815412351509 -0.24238483699295674 0.26351519121366873 -1.1958131383355342
Ni 5.7829675231348086 3.2071034353508865 8.127476819078902 -0.3305284240094243 -0.18864672403955254 0.6423492443070163
Ni 8.851361544003183 3.4893528944019683 11.171134682437652 -0.33068063331657244 0.10995554068523644 -0.06676100757563341
Ni 2.3523872947798377 5.130184675873717 0.5765634630124885 0.029921727260096856 -0.5394992043183096 2.0098840487919905
Ni 0.7450885998594836 3.1449067594727773 2.553625606634885 -0.24106097597521065 0.9053162763266989 -0.9758580911010033
Ni 4.9791395719185765 9.066768778702594 5.12489874502093 1.3903353473192572 -0.06170467609864857 0.4504194786408178
Ni 1.4748043209853392 0.9662093039365385 8.010481179374011 -2.565420766189136 0.29903369583525274 -1.139812197489882
Ni 2.3428555917364733 -0.22557654389781212 12.856151922667799 0.6468831276216279 -0.12280977094008526 0.36849436173023636
Ni 0.005305364422097879 7.125105344285515 1.3291090010392954 0.589034592044276 -1.055768491574401 0.21810333873777277
Ni 3.353373433703719 3.6810881908635875 8.071687668625284 0.25091807127494853 -0.4971089122775568 -0.5601549328954483
Ni 7.09432627212801 5.956712886862155 1.895861287773556 -0.08938157318862672 -0.17107503370437635 0.7894716238505372
Ni 4.708911163598883 2.618923324930305 10.772810364703828 0.5552945194793534 0.9010873258470159 -2.1350422653595937
Ni 6.307294477245473 6.466566458875905 6.235936261548984 -0.15316370064159426 0.7564434897509746 1.163911147420615
Ni 1.5300141659918556 3.8399437388659106 9.595420164689145 -0.5950975104089041 0.5264099752345192 0.1901665031181886
Ni 6.278625335470383 7.664164794750582 12.796990585234568 0.2495780123072863 0.04613176136105603 0.42111378769816504
Ni 4.200038524131344 6.357460848311568 12.864142821287164 -0.5905911378981182 -0.6097959929613432 1.282098331987024
Ni 1.3607107609643296 7.4954814131249075 7.034073878589134 0.48118555617908104 2.135614592923296 -0.9858781943411666
Ni 3.394915001627664 2.2097078797093594 3.1330633870893814 0.2768710436952845 0.5012715282956787 -0.3304728881811405
Ni 8.795143004208581 7.814154933514515 12.7451964213866 -0.04780349263652412 0.32935060165123925 -0.6733870874494273
Ni 8.635500859353163 7.118775553138271 8.94461676527366 1.8297726159169585 -2.255757872774812 -1.8293548116532496
Ni 9.096446615265767 2.6402909970925657 0.16402025039892731 -0.43298482810413813 1.1030824461690165 -1.066361950819531
Ni 2.255700660413749 5.013990439550917 11.907144103796314 1.0278761360395072 -1.249734313834022 -1.8225974383247576
Ni 7.565220164712086 8.148162465499128 10.569009597923822 -0.9463225435357315 0.6499149724694162 0.9965981518618319
P 4.507209222304542 3.871861062940245 12.713462328108633 -0.6910605934697905 0.9832770092728937 -0.19803485012267186
P 6.708060946856135 3.1301279927152508 10.312982501730678 1.1667218773965324 1.059041763009034 -0.5596743937146039
P 3.366440195545691 0.8211053197424084 1.1889605770196523 0.7416012825318197 -0.9632586571694378 0.07711612555771236
P 5.653752795373161 1.726348740523913 4.293212309492325 -0.15073966458113394 1.2669447641750373 -0.8143989832198362
P 7.486819593660257 5.908721224742847 12.132981612767741 -1.4018124947209214 0.6652654867835575 -1.5695978019304324
P 6.416983094889161 6.941078696984209 8.791769891820906 -0.37945548872743035 1.0642130227973285 0.20142562097177566
P 9.320895086735437 0.5496886874705131 9.837753997782029 -0.9233685058427193 0.29354207659306225 -0.2663385195950768
P 8.512171726868779 4.473117189283422 1.328391809790887 0.3104769046751879 -0.7252251551666413 0.6687249060870677
