# total energy = -340872.49701599445 ev
CRYSTAL
PRIMVEC
9.20019054019576 0.00000000000000 0.00000000000000
0.00000000000000 9.20019054019576 0.00000000000000
0.00000000000000 0.00000000000000 13.46540882508784
PRIMCOORD
 96 1
Ni 5.89418470208399 8.416922876736873 5.0002040529952225 -0.614634037779935 -0.7019420162689847 -0.8899943012576478
Ni 4.193741133926706 6.892294944755503 4.095813388609069 -0.5795947867876148 -0.08075603630314479 -1.2281671291862073
Ni 7.5848484679778005 4.7151343172527875 3.3136619723450975 1.4022554957956108 0.5172123678956512 0.45192151710764106
Ni 1.5721653151378825 7.876016089835223 11.469039999875475 -1.0302160970265934 2.203567563924502 -0.5520577577096104
Ni 8.443309022448673 4.818802061283672 5.582354372885517 0.9440453174657806 0.9052550840714604 -0.8331366688386554
Ni 3.3574714384017414 1.8119682746839425 9.513055626685865 -0.20600758391550325 6.3374029103692475 -0.8638024733536285
Ni 1.2596256512691235 7.88454466622115 6.947975416325375 -1.1634892293918477 -0.35470579258657625 -0.44329546600152686
Ni 0.17601896038101567 1.2190160113905006 7.4210961212918845 -0.20144721823833048 -0.7959099232767131 -0.4931306443560991
Ni 2.2477812880619155 7.028135754181844 0.3388209274114129 -0.8816675265595074 0.2689366193395562 -0.42049235206408225
Ni 8.90350254005826 2.118343811067727 11.828566875522235 0.9223282375036631 0.028441800280460696 -0.2541797727453558
Ni 0.4047237303970387 8.855771952905952 13.485067574863873 -0.22362298300442132 -0.08344720998206274 1.1323680825070113
Ni 1.9553900408977745 6.399836359847697 5.030663122942245 0.16342445913765405 0.14388304667061672 -1.5033394450228303
Ni 5.167277668370804 4.075951097822037 5.36614070120733 -0.13845441945587766 -1.1687311945170777 -0.33860760147313296
Ni 2.9575575674810377 4.350199569761745 3.680001588891297 0.2788968158760616 0.27326198618778746 -0.1122042275100971
Ni 5.299097994646497 7.036314723337279 9.109928129301727 -0.7043956200157998 0.12866031618359133 -0.6823057300952959
Ni 8.883326522782815 2.6881667960071005 3.366837232102792 1.0393957066433324 -0.7736793940132869 0.20746642784921693
Ni 2.7653471922331465 4.541535926933409 9.23195117295242 0.5906878113769828 -1.5056493241029294 -0.5173784611598703
Ni 4.853560380146707 0.6902810762241063 0.6898560274333514 1.1763691706783095 0.158407722649353 0.5495172506759439
Ni 4.041358382383971 4.208636241983682 11.229423804192018 -1.342589704503862 -0.3144490019490585 0.2627011799528056
Ni 6.659051720876288 7.178034454350037 2.940750659884692 0.09982205179566034 0.1335567250439442 0.5612697632261817
Ni 4.871693955180864 6.196420152843539 6.228411054471529 -0.3486495590901673 -0.12718887384438743 0.4385342971674576
Ni 7.544110025435313 0.4064377258454726 6.039585429226207 0.4466183597271728 0.9026145611248196 1.0785381811707488
Ni 8.97596323867268 3.608912638647044 0.2538415298883325 -0.2696742688365291 0.5061535389783283 0.3342590946964501
Ni 6.518739618975771 2.4504246790828828 3.929879676808693 -0.31762380013261426 -0.5133785959718578 -0.16617656796149446
P 6.907337255856895 3.6408925000467027 1.6037974093451055 -0.46904892081654703 -1.7094367604386624 0.078497065065639
P 7.1886606741189105 3.0683370585953336 5.983408147381427 -0.407855122916046 -1.5365267304080765 0.19231671669197203
P 6.428872160359009 5.774398224689412 4.845419131771403 0.568308672350834 1.4918597265180047 -1.3018395191696934
P 1.6692733235019208 4.573966597656596 13.008271393882067 -0.05424410605554529 -0.8681334966288146 2.1995877533411474
P 1.5906024964511494 0.759644990791594 10.526152059298086 1.0510466606186994 -0.27749582176347687 2.034771298951973
P 7.800878135850467 0.41492858145126815 12.515504602600014 -0.5579440412870584 -0.33823222041158524 1.1031400388798291
P 4.631559788784864 1.3931756133167204 11.431068054549003 0.1536720077365805 0.09534319008870032 1.6316364643297319
P 0.4607685295018434 0.8785215693678685 5.067679168499031 -0.20451634408195746 -0.45969216219199543 0.08417637483860341
Ni 7.171042309740215 8.294413143020574 0.6536744391346063 -0.2672453476800623 -0.06702351720840069 -0.017927788123014286
Ni 7.122235300325603 0.8987767082796891 10.593640975087308 -0.8861895827995769 0.7073976400669172 -0.28639106737057773
Ni 9.037944920562639 6.482454068526907 13.115779297334191 0.46436951306300667 0.2038612269964618 -1.4472878534449012
Ni 0.0273181249867683 8.894743958915432 9.5360671426044 -0.3362514425361306 -0.4532062973573356 -0.31939451887979187
Ni 8.484397072221652 3.8496172168401603 7.806933701090184 0.9072960257608891 -3.560706369887132 2.218836060047798
Ni 3.505980909838246 8.172657824906914 6.005288959915032 0.40017858020739466 1.6060619582947373 0.17702302375769513
Ni 2.6465543353883847 1.5929761455423785 6.139674299239697 -0.9517444858822512 -1.3721491633285336 -0.050748691307777115
Ni 4.82503059010058 7.350722025832083 0.9721013047610297 0.06012164788224483 0.6535170879983777 1.2503601203434789
Ni 3.892287699340625 9.411242641014638 3.8790881863515314 1.405101192774522 -0.38702738753741733 -0.5555097208139529
Ni 5.160736333084511 1.4688655787180411 5.823802326452941 0.9499650253843253 -0.7072791122111819 1.02059117234232
Ni 6.859091458049125 4.990118804414583 7.183054998183694 -4.261508616124719 1.1794974318946463 -0.056890542539456856
Ni 4.077321926173173 2.5308435422861097 2.240576619056716 0.3821322642286451 -0.0929878024826463 0.7609287792158379
Ni 3.763347032621345 9.142367080196163 10.121867177977217 1.1686558611944518 -5.50062093146852 1.3266792039211925
Ni 7.387053577232328 5.668421232899231 1.120708298214461 0.7859468985267303 0.08625999684050951 0.8597051633558034
Ni 3.4760250902993253 4.8499539055584835 1.3476585919448354 -0.8961968305239341 0.3847725300649696 -0.4426933136411537
Ni 1.8984132625180026 1.3737356112633603 -0.5858552365144728 -0.6516823487824841 -0.7663360662743383 1.384288369794229
Ni 3.9981634890377693 5.992277130807571 12.81570221121341 0.8115386309529057 -0.1363193753907459 -1.6206308572478476
Ni 5.768261697775265 4.370375587037191 13.237654217921438 -1.6014396290313775 1.1646683373016136 0.3503667988915901
Ni 7.872639620003901 4.679483579932972 11.785760230205685 -1.0580943114941004 0.3584511185616214 0.26716204393763665
Ni 7.508974498770958 1.412735217843669 1.817843516194248 -0.11374868917908153 0.4272538391576319 -1.0812681785074023
Ni 1.6228307629882623 3.1697691563891297 1.641541189952729 0.8611637501792008 -0.13605583731671406 -0.04603920164724974
Ni 7.866153485859263 6.094344041730416 9.063337445724624 -0.21459532558451427 -2.2070334109859155 -1.746090149995638
Ni 7.364908719237801 7.71893204106141 10.376591926132052 -0.419352067812052 1.3773816153720666 0.7717837196524708
Ni 5.825459280721663 1.8848981830024392 8.594755194621303 -0.38162190025112985 -0.07180216954396666 -0.3938986607359539
P 6.393939037880729 6.446738929875159 12.975253751019268 -0.6408024686451868 0.8215831596731011 -1.088007554113765
P 3.816542532797648 2.5148720119668324 4.56704897458801 0.11476813158253137 0.3648174270992814 -1.315794695798205
P 5.9135603028054184 0.11989963973497476 2.7897230963696242 -0.6382023120181783 -0.0914428265930296 -0.3224687869297414
P 7.454776177854563 0.5507022294885936 8.433735304447383 1.2296732814180886 -1.3822613120618712 -1.456167415322718
P 2.9591123996376956 6.320392716813734 6.97442136327397 -1.9113310935167405 0.04813773604749129 1.816751263956626
P 1.9516179628845811 3.100362920946372 7.733978952257941 -1.0897589895872328 -0.5739764121595727 0.16216024771324974
P 4.366897915112833 9.307004485186637 7.692329690878121 -0.15760990933840596 0.606372311991775 0.5650302587098786
P 5.050278848629878 4.2640949889679 8.983299470398826 0.04248465152677199 0.2751412054883713 0.03996034244302151
Ni 0.7271103579182875 2.3274457356625033 9.419699455916412 -0.3310801827478363 0.44297587787857906 -0.4737653524556099
Ni 2.1048195313618874 1.5120144711128627 3.5548541606228454 -1.6233361719941526 0.7246194032618424 0.9046393048643324
Ni 6.482325265863042 7.396161765605649 7.169778203596281 1.3032816509328586 2.3714942818078835 0.33110178001439106
Ni 0.9264775611819424 5.336275963552143 7.747067142944694 0.6695939389555823 0.8273205763775107 -0.48895620126343525
Ni 2.089418412839727 0.23646513051389764 8.439108215568615 0.9993564313332596 -0.4195600700578 -1.0951194825681978
Ni 5.582519056291459 8.022933928353966 11.67659629250387 -1.0904120497901995 1.5436826247265674 1.2599001986234302
Ni 3.8252735133696487 2.7923497506934454 13.33152191927024 0.1819106908672996 -0.009278339978132408 -1.0439187913246666
Ni 1.2264589653238505 8.26638936343963 3.2059654649923166 -0.5144378904743077 -0.17405108561356478 0.6679633453306947
Ni 0.5776275063505732 2.9601980220902733 5.867672513765407 -0.11964551427949072 -0.2762418947517178 -0.9852174208287162
Ni 0.8025077572688292 5.586475138110174 1.6318993905433958 0.3336715976240963 -0.6536387011779066 1.4750850781628273
Ni 0.5059028229582432 4.528747662449655 10.334660218910756 -0.8348893898637041 0.3421657511380365 -1.4781773439349057
Ni 7.932256852992907 -0.029443368940543092 3.7081173703750014 1.175667773735911 0.0027001725399824466 -0.009853238644995934
Ni 1.9556384460352285 2.9645129113297553 11.422531197991827 0.9458517745469001 1.7463310623618504 -0.5091085078415942
Ni 2.1182610093552423 5.739189096502849 11.344660787495075 0.5782143615003204 -0.6072331173301736 -0.13332455442848007
Ni 3.3495684749545873 8.808998185542354 12.702593231921211 1.266308159032303 -0.024619598320893082 -0.4917124238523338
Ni 8.928527057609204 7.02032479263745 4.845500093445833 -1.4410040773187183 1.00086464044767 -0.33667361767521375
Ni 2.5230325807417167 4.368866755831914 6.037943195261927 0.8965858384322366 -0.35217659840681925 0.028262594390119068
Ni 5.721589132504705 5.756163447562218 10.996795153023248 0.9840293140578859 -0.892167911870199 -0.3257418012540583
Ni 6.881999931836567 2.5526479932404222 13.085401189061598 0.41383936552393885 -2.58424252688133 -0.26926314944103946
Ni 2.325936904457226 6.794377319647169 9.119475166751215 -0.2282599675558004 1.3327012417455564 -0.5681261240263829
Ni 5.224530452458859 5.119068671324139 2.887885446539302 0.5589886805014889 -1.0026420440630668 -0.4854900970917058
Ni 2.610673593311667 9.303232407173445 1.5166228464221518 0.7185379729544529 -0.33895907127528074 -0.16345145572084754
Ni 5.837732334549955 3.0561284060989733 10.700219659321544 1.3154195718469734 -0.09811226819340522 0.1613081841255996
Ni 4.123920889921525 2.9465357395302925 7.388564248475661 0.12001601024503203 1.36245250486606 0.8603911336792345
P 0.7490739721643765 1.170439006732791 1.8782363252235286 -0.9967547320443543 -0.009210977075306718 -0.8756511451620985
P 8.494213675246232 6.753160467210324 7.0280547925074135 0.8681977742078467 -0.13198603812271464 -0.35490839551568554
P 8.759721966423664 7.397762598713687 1.9996806769058575 -0.27516254564461 -0.08892134572275652 0.13881437389845772
P 0.0002631254418959261 6.680644567454251 10.532332747125558 1.4884751263164882 0.042497764152894545 1.6150466782918507
P 3.8127796549747304 6.994913867094914 10.702885874463552 0.18584036493900896 0.04011486574301478 0.8446960915414807
P 7.962654281665081 3.1720508035775983 10.18814350868805 -0.24459984236640456 0.20952536726077464 -1.2452371972946166
P 0.7863724635626378 4.484467146650876 3.9473443980097787 0.02205697980003943 0.4703167317853771 0.12941853450585453
P 2.878997142713579 6.988749739609939 2.3515042332344565 0.4465229717998891 -0.04087025585180058 0.45205829979582146
