# total energy = -340862.2149325552 ev
CRYSTAL
PRIMVEC
9.26203632730861 0.00000000000000 0.00000000000000
0.00000000000000 9.26203632730861 0.00000000000000
0.00000000000000 0.00000000000000 13.55592638599811
PRIMCOORD
 96 1
Ni 2.5354916922562127 4.686386590238626 5.607842497921778 0.8925900870092821 -0.4261714047267305 -0.47812645763778305
Ni 4.0275131157598825 0.05449411662627224 11.135773073068416 -0.20023288621525517 0.3156687332887725 -0.035852233811918904
Ni 0.6401058103751636 2.6753113918602316 6.139126791697342 0.21639329802520152 0.37874689269618 -0.6584950008289433
Ni 3.1231678938907512 2.7412293040278124 6.962229136178649 -1.5665034792758248 -0.21911455361110654 -2.3125908226034557
Ni 0.9311958650297071 1.6132151681591147 0.19950426135867563 3.4437147482907213 1.7309836333715027 -0.053434722780372486
Ni 8.337166380521994 0.905891981927019 0.5834703109621631 -3.972648518388358 -1.8424275856768075 1.6825641044175348
Ni 3.0942055064595264 8.506207804572929 9.154913415629224 0.695062515540332 2.584514035375162 2.097140090997182
Ni 6.1775188582599165 8.342075259747624 1.3867037352268194 2.5727005876800013 -0.14475233664944748 0.38280897858069557
Ni 6.074441656557934 8.212378965791935 10.619496056668869 1.118473583913106 -0.3790654523778633 -2.9338336239491603
Ni 3.0239714853879 6.349431513556034 3.1559147493438493 -2.407223102668061 -0.5286267803801799 -0.7743730776462019
Ni 8.383198700807629 4.480621192358201 10.518233287873116 -0.37913692904574703 -0.7947218165058829 0.16937244919097283
Ni 2.8646737234980275 4.802134257564501 9.937889840357316 -0.4556676144136346 -0.7558163976899369 -0.5942727005147637
Ni 2.8744173856590916 0.6776124262698691 13.166193886613934 -2.5646049551560606 -2.0606527947044255 0.7258586749855822
Ni 6.860482889089352 6.207101802121552 0.6311031111160813 -0.06220475566351867 -1.2136954179325936 -1.7927644141237253
Ni 5.95200679904167 5.40736201793974 9.672952997531858 -0.4669035923387701 1.2952757499092467 1.8678629950307766
Ni 2.0344340538633787 0.44497045152729986 7.285158366731362 -1.6268922647765274 -1.147343987090553 -0.285078004986109
Ni 4.507842316969768 0.3905096782316168 1.125823664289713 -1.9134229430487626 1.9151432681739793 0.032818332081601544
Ni 1.507424189828623 9.5505487047353 11.125565382889985 -0.24246685518380176 0.9220132773664057 -0.7151209768531039
Ni 2.657815405337179 2.118181385859904 4.6167416346740735 -3.165193313476207 3.904978111624578 0.7059799337837841
Ni 5.458766319264747 8.410984809631957 8.162280611581672 0.014205087855788438 0.8030951281712427 0.39596891300142123
Ni 4.141093466597461 6.20465662454501 7.692025727227861 0.4354016650757469 -0.39339601006792246 0.3429861901568029
Ni 2.9656113948205363 6.383376876503089 11.531023061465463 1.8007340625927633 0.9595570399481345 1.2225222721956044
Ni 0.3976321841269196 5.191102732959996 6.679872255527592 -1.5855345277653468 -1.5075277720725648 0.22396931060024652
Ni 0.7468730073290168 5.446781244325188 8.998912012449544 -1.5050924231581948 -0.10850389584037441 1.3507493574965188
P 8.252131625483274 4.214634034619183 13.08872158419357 0.2031875979682049 1.1096071346614114 -1.1048135699275101
P 4.439562585552118 2.733995653697212 10.300470774405975 0.02015796300511367 0.026843859665721514 0.027796196276661807
P 6.952603101878274 6.6766963032889715 2.6098686221535465 1.4313256736886897 -0.9517000057975609 -0.7896634281463691
P 2.7170646513869214 2.912187969587628 0.5371425317193609 1.0604746388008188 0.6948167180781131 0.06318151775449118
P 2.201817573421131 7.854651338751261 5.924536525654312 0.7228826230763937 0.5046376165544342 0.18894651466815846
P 0.7472277433183407 6.613177258516557 2.265805277229049 0.5250385488082894 0.5288702638495537 -0.09755588146930295
P 2.1930093769238193 4.632527849300803 7.71189835225902 1.4359384898703529 -0.4781755657081636 0.9996431093357429
P 7.9152065319157465 6.591920885265946 9.81445005190524 1.3179135419134205 0.015686814607637503 -2.4634865531464802
Ni 8.763497910249933 1.9352005972154287 12.187699580939826 -1.2798115928353766 1.5993359524248134 -1.9070782317776576
Ni 6.484018162664805 3.360452001214238 12.043084925156357 0.6414897245201985 0.8759915592206526 -0.6460302927030293
Ni 1.9811032489932185 1.592931308717355 2.3177921606357392 -0.5510475712775413 -0.70784706889951 -0.49643168370487417
Ni 6.50592287845465 3.0951872823046527 9.569955449341839 0.058671802809595726 -0.7462891749257923 0.7550026435393901
Ni 0.045321922103361535 6.423203632484626 -0.015810295921042678 0.523632412489382 0.13567557115915987 0.383487749815275
Ni 6.3010836842017035 1.0135909397301146 11.763154698009291 1.7944019497271484 -1.1208184299961987 -3.394815965707489
Ni 0.8596058818474533 7.153857888092882 10.910324921900465 0.38974890023363845 -1.1060507847687209 -0.38188081033947135
Ni 7.400459603908794 4.017250779567431 5.733749692837455 0.12114703852568168 -0.039073826073010125 -1.2732218554330008
Ni 7.8122404746490615 1.5499091502210205 5.3704917039371125 0.3687306461107585 0.539915980140754 -0.643824286190646
Ni 3.766434837246496 4.130738510042262 12.039072611042124 -1.2208813941580716 -0.5045777098507761 -1.1642600461196013
Ni 8.440123175752403 8.613452922598562 11.08565712098923 -1.0513839893534602 1.723348228313432 -0.9582398637986078
Ni 8.525648818713686 7.819400028689464 3.6945725501977638 0.352555836123109 -0.3040334630426893 -0.8330687917151975
Ni 6.1585779940780006 -0.010203059160293274 3.8041044649796376 -1.5907453825423248 -0.0828460860629541 1.1882846911689728
Ni 6.168960736742023 6.741317530378083 6.653113306526136 1.1332831381221127 0.5154719881657768 -0.6358600370382468
Ni 0.6620985155096193 3.891490851028522 0.8613489970743662 0.7174282848300418 0.634792772115997 0.06592077106252518
Ni 7.598222602447812 3.763989659669955 1.5301791605484925 -0.963832784505353 0.07104780787644538 0.34872437819216073
Ni 0.024535134091881697 2.8083790670199384 3.0160042817843378 0.27677359888547176 -0.9153942293879913 0.37140047963343775
Ni 6.918750359293968 4.787722529120949 7.747076492234247 1.0107592738535622 -0.5995989978236835 0.8998426548066374
Ni 8.86786253499411 7.259056096101788 7.494732313927974 -0.053286627238282425 0.14558100319832992 1.9200761866992222
Ni 3.8813952314890163 6.630154571008221 5.190442349773603 -0.5341443677642994 0.6116207048749079 2.0383410185811024
Ni 5.330524165004199 7.974261275203719 12.63711951469353 0.638557638475068 -0.7213862410365254 1.295824166213549
Ni 6.272760377273439 2.097823430127946 7.449998531128061 0.4501644252072183 -0.7329880869415119 -0.4389076213464764
Ni 7.431607831900866 6.393833715457311 11.774216347932256 -0.8237377441222588 -0.2943185497477705 2.0347155060133733
Ni 8.745835207073934 1.1478719416418175 7.552345884371592 -1.0883585096952804 -1.2984724024696734 -0.25991538967755234
P 4.435468765518667 6.9938006392284775 9.779245052024816 -0.3498250674555072 -0.10722811445174435 0.21872246037901039
P 0.7158090638670455 9.01875962998276 8.949487008276456 -0.08313919182334069 -0.23365697020165566 0.4275849972448056
P 5.159722954061054 4.724370201001481 6.338154984391495 0.36601684672402124 -0.30216864191980863 1.1288402718594106
P 1.432410958039212 4.134397014370798 3.914924729007333 0.9943880315843907 -0.2605699925424158 -0.38160930184563957
P 1.3677619448412752 2.6307980455236577 11.090767912605651 -0.5871083215558405 -0.2662940395103866 -0.5787761475410612
P 5.957953026330077 9.020667609455366 6.058089531514817 -1.6674136219293412 1.1010674726215168 0.16719986701968623
P 7.166157872265785 2.987923640206472 3.8276374467465883 -0.10564637178692128 0.43009902191591093 -0.9364770182002196
P 0.5610237660502435 0.7098239360262852 4.074803220571634 -0.9978147978777526 0.7469895434269264 -0.28002501594323387
Ni 4.064922480273703 1.1557724585842013 8.088942882154367 1.323114883608702 -0.27717546230958073 1.4428838108399344
Ni 1.354276420025201 2.2144602529362003 8.511955824285057 1.6394767863097572 1.981706815026826 1.1304731794771434
Ni 3.899474726297379 0.9874442113264219 3.3891031842266304 2.090620801821425 -0.4853617990439576 -1.2943419252410675
Ni 2.1460971631920787 7.124460184956743 8.021624550102041 -3.5260263020064437 -1.847885523467585 -2.380701916449081
Ni 4.309486548109164 3.9079124413437003 8.335308416045272 2.3248423862772993 -0.29886991656387885 0.9088746831019187
Ni 8.832240743481321 1.7098274685413033 9.865325490958956 -0.03682359658625271 -0.679140444993437 1.2898124128018302
Ni 2.0260982212160803 8.430898187622725 3.6648719784754396 -0.12654712649533045 0.7173048718783 -0.04944771310816645
Ni 7.960877632786667 8.637645361348277 5.913894445974595 0.4674574079597111 -0.5833681377871179 -0.40321788125435076
Ni 7.895654373339694 0.8745742586711188 2.878492681619993 1.607693066140257 0.6077586508163405 -0.3428787180446611
Ni 3.4571754460317248 3.523574984085594 2.592368004612357 -0.40073059605612277 0.4857114690738925 -0.4631029876457573
Ni 1.115677103550696 4.6191627309563 11.968852483024909 0.1685892911680451 0.01017822608458247 -0.07696288780929972
Ni 5.802424913204037 2.239338082370249 2.30121311570389 -0.3882365773541701 -0.13985387090656562 -0.08585916185766503
Ni 5.873742592519813 6.989095524800892 4.255828793358504 -0.2834211861089764 -0.2607090892234413 1.1133594026149924
Ni 0.944764748172254 6.422759054743437 4.884999843707668 0.952809693921972 1.0730869282481907 -1.3932581773930068
Ni 3.8733002117848616 7.32617807298509 0.6719699937712756 -1.425969037362467 1.0734430260360288 -0.17498722427458896
Ni 4.368383836780465 1.942045242022488 12.567740379570065 1.5353589353522203 2.550693230170975 -0.36891730820026786
Ni 0.956342293515724 8.663106699067637 1.0219388130245701 0.20867767454849867 -1.2236653846611119 0.3439696371159947
Ni 4.749683346140444 4.486132103941692 4.364439135531038 0.29114503711579537 0.0346651554823532 -1.3312398267086816
Ni 2.9173747099015026 5.268894575631839 0.5002120144809464 -0.8243357827175739 -1.1158816548162136 0.3111075962806513
Ni 5.189194753487391 3.9675692169895322 0.3165486137630203 -0.06921949641845498 -0.31035374883376227 2.547925951838483
Ni 3.5197497631041115 0.5017939702766783 5.6644928165928174 2.5718989177143126 -2.23603545464522 0.730902922277709
Ni 8.697820811025496 5.007973751735124 3.630968294691622 -1.0309622311639988 1.3378046244103927 -0.5309335741364857
Ni 4.833143555012452 5.872121736171727 2.1218139564868705 2.4783956090478285 -1.559241655507089 -0.30016086746116044
Ni 5.366497913895429 2.2338086467142078 5.170962435080495 -0.4117578004045619 -0.2685704942493891 -0.3708098972372904
P 6.145898266417832 1.2642586894706531 0.14544175562280798 0.4817424571238156 1.7375702854500852 3.386929878091193
P 4.319526595431022 8.309880421656503 2.8082595867519937 -0.5172853872254317 -2.389762226879136 0.30562471878920916
P 8.071410773689845 6.429807464348541 5.544875470511339 0.11078086480000919 -0.9899060845536373 0.12602107878853133
P 2.116458647112795 8.049506057899999 12.659432686283093 -0.6329564902382067 -1.1107127090207645 0.5493714691266991
P 7.7625774361437125 8.40218587517092 13.041424995956426 -0.3189962550001087 -1.866819898478243 1.1341650265064338
P 5.200355507198497 5.582544172040854 12.48762469199688 0.7941147790495033 1.6697260721126015 0.35383830237995834
P 8.614434698443688 3.215445561296345 8.337816575468482 -0.5328531597567017 1.9311213887697902 -0.8010757837483687
P 6.884221488061602 0.8899418292582272 9.433121830232809 -1.202637103235903 -1.0935292552629425 -0.7316171747359141
