# total energy = -381165.8277229553 ev
CRYSTAL
PRIMVEC
9.21953100804603 0.00000000000000 0.00000000000000

0.00000000000000 9.21953100804603 0.00000000000000

0.00000000000000 0.00000000000000 13.49371555474804

PRIMCOORD
 96 1
Ni 6.9798581243948625 5.138883700534263 3.1876473716466562 -0.15611841239454402 0.17308100839081159 0.23434114075287382
Ni 3.102067995478331 1.6689932893432378 6.8753584263515215 0.02337029929482427 1.5503158137723687 0.3410658332056384
Ni 8.153292393611443 9.076720635986208 2.2568776165981403 0.6465087750013446 2.1083423874709046 -0.22368520370092443
Ni 5.334992348133641 1.0613524287358505 11.300218018016237 -0.21892172087401007 -0.5116305029324995 -0.8817513445225653
Ni 8.99722061867393 2.246845844727853 10.280565528779796 -0.48180596337189924 -1.0521298663805494 -0.12611440983328603
Ni 3.81040457556672 6.707660686017541 3.3797842452163303 1.2005897337885711 0.9565195386733912 1.8218914133966688
Ni 1.450084741150882 1.1459047491314072 1.6184361462450898 -2.378686171570632 -0.5344626703356666 -1.6887761467655171
Ni 8.603030343803969 6.0781971951216045 8.151297287065418 -0.03343359706809726 -1.1472593977965468 0.9999279875660133
Ni 8.372127185554408 8.044363632792177 7.154489874124711 -0.30938829959669945 1.0112135877821617 -0.6199197116589066
Ni 9.198104983421372 6.392186768310077 11.056400140498319 0.4680472190249101 0.9507538398342078 -0.5574696727538012
Ni 6.821300627266655 7.286232364833718 12.190397865118674 -0.11499104622661487 0.5461041112293369 -1.1981726397066461
Ni 6.826316052225241 3.9544874087519517 1.1701106282284013 -1.0745879382737493 -0.8623174041676698 -0.941758578314133
Ni 2.4689996678934114 2.6433594414536303 0.3362473653484273 -0.42021852957740535 0.4007213400847421 -0.4021197630941655
Ni 0.9398205688019035 2.7241133150055528 8.310860635044694 -0.2098192443521096 -1.0649005357826564 -1.2199933351261636
Ni 1.1479238264584846 4.924114721838976 9.251655708291675 -1.2130492997081623 -0.38250558840766385 0.4257052637235894
Ni 7.411830038015341 2.825850841509202 12.046798135366954 -1.295264179945021 0.1220312409028479 -1.3084696228917014
Ni 6.276813555200274 7.5266685183170585 3.4476169458280745 1.0193063920926253 -0.8012459907776458 -0.5364010250089601
Ni 1.4784532385728781 8.65142366293561 11.321713354948113 -5.035481630119024 1.0235379136754694 1.3191623267188572
Ni 2.785395538718263 3.9653019188189003 7.739158428906167 0.6444063839463612 -0.6161648726021647 -0.5803812872446521
Ni 1.314493096176784 4.064605489092648 1.9095363893881963 0.4659931647093588 0.730082997479575 -2.278053193837902
Ni 8.18597563162281 8.601333950067977 4.9722858502693255 2.3042635336846833 -0.2555234312574438 -0.8977598041356796
Ni 6.6619318113951485 5.381385029000552 7.300761424010618 0.07889584316595444 -2.2101357040603227 -0.0663617152546857
Ni 5.8428410033150655 9.115009348951286 13.341682210690035 0.6109653306790962 0.35877739155278854 -0.395294512642216
Ni 2.829529434447576 1.089997512093063 4.7077415447194335 -0.04173311807272813 -1.345865032821024 -0.5268917999669441
P 3.26777984879746 1.7122974272669027 12.139702429052917 -0.1753042412943755 0.42875510629350677 -2.637020847024626
Ni 6.579914862072406 6.321445305612976 5.225414532319733 0.9556816161531282 -0.1806696193713469 0.19069743592099417
P 5.4788078149148305 1.7172759741007921 7.524730572864312 -1.0938812392857225 0.8935110561616547 -0.0934256613510133
Ni 1.8267210286657964 0.6321242475927151 9.119849602817569 -0.5962089983055281 -0.1423190446176065 0.1157361519227555
P 1.940158140229086 7.353203039280706 9.543471387053874 1.0901361704209935 -0.7956988357071716 0.0814998564477048
P 4.032558398732278 5.651369779896145 7.8300528647962295 0.2080878634832997 -0.06485453458153992 -0.4512766844347906
P 8.559790742598521 8.488210302564598 12.673230244412922 0.9701682398050777 0.7334231175964014 1.084403124591958
Ni 2.5350760478165335 6.271539983368821 1.6943654391337266 -1.2664374855213156 -0.2753993442457644 -1.9134352843439368
Ni 8.500592132931105 2.6101414706341783 2.4469502371379854 -0.5710409836803327 -0.5926603617223212 -0.10958813004348868
Ni 2.671774036531496 3.680399966483987 5.251889338038617 -0.1197103060791551 -1.283787546763989 1.596138271423122
Ni 0.0073018686897046 8.137526995304126 9.263179200305895 -0.6026305855611557 -0.788089655901346 1.4809477075911912
Ni 8.170874039560012 5.625628848858701 13.10887521925307 -1.648938188832973 -1.1718347731430658 0.8204292485743161
Ni 0.6948898938713008 1.6823708290765225 12.51392319940028 0.5864745446265835 -1.8320477851043802 -0.8912407720702393
Ni -0.039461437330396 4.637212131239332 3.880685061705127 0.4815822773968674 -0.7897806704505237 0.1558651587331574
Ni 6.765642317570006 2.1336115628503887 9.53250014495697 -1.2534683269551574 -0.9876630541557314 0.6846860574020143
Ni 6.664384206687398 0.08928562770022125 8.25816732657356 -0.8785901731857644 -0.8111956457911901 0.11762128476061033
Ni 6.134795896997989 8.538069527152885 5.819826287645736 -1.343313984264396 -0.14305232323920525 0.8817919679525136
Ni 1.4158618414334783 8.104032438549458 0.33174546827622686 -1.766604467898906 0.3530700567553661 -0.5763009465276914
Ni 4.5338888453737765 5.7445147033457475 5.5206027155853326 0.3158782781964173 -2.8300980960317066 -0.7926320238563898
Ni 4.939815583428075 3.507303268694588 6.109361054395518 0.5091028514146394 -0.1693444241665148 1.002670069087525
Ni 7.502421151329782 0.009171589611765323 10.861038274924026 0.6904283592024303 0.7412737239890718 -0.06183657369082254
Ni 8.88098998916496 6.468340095806237 5.531951036507249 1.4179181420335323 -0.30129986616161014 0.33774499636252153
Ni 1.4504535223978365 2.42701392292761 3.3595842524143826 0.23675746350385032 -0.16910042647650875 3.0631279741723247
Ni 3.6886053492287307 1.5595574543094075 2.3706973387051455 1.2146451834403726 0.09219513137802186 0.03912344836402294
Ni 0.6308242936971995 4.334645557175285 6.476834971829842 -0.17102309742051836 -0.35639217915006366 0.19489527605242563
Ni 5.219287231901578 5.828679803432002 1.6141592057335319 0.908819404383951 1.1301569337883053 -0.3349283528493329
Ni 7.24046661208663 4.363355177250714 10.171252313510578 0.7482028470087373 1.6150731606544122 0.4707782448028279
Ni 2.2518797087487856 8.492921482994447 2.409492203931671 1.8653075755987747 0.051783046109562435 1.8090482388854134
Ni 7.297129850681232 2.883629643375842 4.567218372520433 -0.5585479934196446 -0.24928953453259003 -0.04938549241166333
Ni 2.5955930504418125 6.966683414347402 12.263156561236617 3.1821754498565 -1.1099148957098173 -0.10131020630541261
Ni 3.289528722836618 5.08411968536148 9.842937432784149 -0.6395107464169567 -0.7320282941314037 -0.31809688311429085
Ni 7.7194950128185384 1.350006730258529 0.29568142818340176 -0.09248335204240202 -1.256198581402127 0.41775438430762896
P 7.329388990258601 6.680711996396321 10.073180472601662 -1.3608296245506564 0.411402216837356 -1.1472851088281595
Ni 7.883750180212197 3.3490223575015974 7.9712638140208 0.5097191448423996 1.0333376733747106 -0.9418675930881716
P 4.602989231521929 8.802116899972507 4.091294187934765 -1.2032091736892891 -0.1125263867362062 0.07673200274541624
Ni 4.894575343957897 6.169046455308913 10.64275020117967 1.0619188274465132 0.3539717426340291 0.3305021987571792
P 0.0971130096668364 4.206982709010714 11.085181672916907 0.473123862216869 -0.24359762635413532 1.221589990189322
P 7.84763727660415 4.590533644906031 5.633612962855272 -0.3291693388783686 -0.6584217243888467 0.739290632120772
P 8.716319942868477 5.003245957904297 1.713904391550508 -1.747095451331701 1.3780634719304397 -0.24577303673889928
Ni 8.921897048983418 3.2808715830643544 0.12194397297741898 1.4138699401060875 2.3022246488777833 0.9853678303636513
Ni 0.6150459880462393 1.362287145782123 6.065452115226847 0.9160431758258998 1.1701504434621073 -1.229380175657702
Ni 5.206628815599856 1.3761625401987967 5.213270565857512 -0.5893210129364431 1.2162102139346473 0.8035759244624031
Ni 2.12079641451871 2.6629693842604505 10.50966165891928 -0.05348717328486272 0.9203981103604859 0.9841303584121244
Ni 6.751167653627031 0.5417682323232076 3.8156043911487822 -1.2186216515896173 2.5580694680303884 -1.5972369038039393
Ni 5.490654912473253 7.127103256772731 7.651827341814807 -0.6361868242500462 2.0655715721622814 0.2582269462315359
Ni 1.8087337233455771 5.887472753727767 4.474232946960138 0.869222101707303 -2.575752744242764 0.5294361636553526
Ni 3.792481806964718 9.108408164630797 8.047314804720932 1.7388275548959535 -1.6496688963514106 0.4469253494446303
Ni 1.7333732755303684 6.348615263982369 7.325711319273344 -0.6958819261178337 0.1582303165312243 0.8207807183764638
Ni 5.860201380515462 5.257373115180834 12.365546830547375 -0.3777377347053753 -1.629742846851445 2.6102911443392656
Ni 3.9487252017682835 1.856555431544438 9.375852012734871 0.9300672580191338 0.2040923691706614 -0.6240206212011576
Ni 3.7001574217895894 4.266559319456259 1.2371569028310148 0.5638220973343904 -0.8193907800074727 0.6453414941661209
Ni 3.376948317427248 7.2846189468782905 6.190606328959007 -0.08653613332003161 3.1612194164301237 0.050539403510448444
Ni 0.28079649510318955 7.2766163938193715 2.4186813106526666 0.16172521705836018 -2.0607736365530056 0.6455050163271787
Ni 3.5327860528591635 0.40268238503421316 0.22533179556119093 -0.9871850860780482 -1.4897496221535376 0.3160726535954105
Ni 4.994616476725555 8.39519445255143 1.8361572188222517 -1.3413306352857803 0.7351544984652113 0.47150149612209763
Ni 5.055216455131399 2.3932612193000735 13.176397221664256 0.7449959100356653 0.9811489071862972 1.7815184088962608
Ni 1.4885947228641343 7.869404589705656 4.765238228932152 -0.7654027558267914 3.837055736750991 -0.3341721914095987
Ni 5.151975434801158 3.4382305411399585 3.439535104801061 -0.6644620170456556 0.28137021711721866 -0.2877480956191044
Ni 3.422280752209164 8.687776274354178 10.687737825495686 3.2598543898962182 0.37249756935235845 -1.3656463292130094
Ni 5.4337519660681295 3.9810580975950436 8.699048073167349 -1.409567970296624 -0.44124758233356265 -0.8525916922394736
Ni 1.0940541058095654 5.475525661816933 12.892125885261635 1.584959114877851 -1.911901878418546 1.0018354890013714
Ni 5.077288012761643 3.4711627064930197 10.97536968101118 0.19087998424544544 -0.2747969347750751 -0.31330460393197007
Ni 7.473010846885139 7.432030030817289 1.0852365461948767 -0.9659266909199044 -1.3536436483251784 -1.0985732454447532
Ni 3.2586064152794596 4.275400849852 12.173072522136739 -0.11460152409768004 0.5086739914073369 0.62343338123912
P 0.43125924386073883 0.3808634425581337 3.702135933179502 1.403129927980764 0.5727142576176975 0.2600449732768812
Ni 5.541721895645315 8.152010878778276 9.89372690806788 0.8364762747348498 0.5299881795040808 0.02553105439156893
P 2.7902450121157183 4.365512547545399 3.3853574518109344 2.158733952549579 0.34658316347944185 -2.141314471521551
Ni 7.6775645850397805 1.3637991488946377 6.535154960176388 -1.8518388516883784 0.16427806538720094 -0.38452904659559584
P 8.722155906101536 0.722750395125617 8.401888754136777 1.050981868819035 2.6583543183950797 -0.4573043786861092
P 4.673647718438463 7.199836138203387 13.44049622385845 -0.09559335842629343 -0.5274728692813949 -0.6772823087387755
P 5.994179607534132 1.4010921524929394 1.7147682616214996 -0.2934549161958946 0.3129546767917191 0.03814411516988915
Ni 1.762553091695665 8.871208066589483 6.816161660590341 -0.16343062978524112 -0.6388903392241384 1.1245123339080183
