# total energy = -340867.1387774987 ev
CRYSTAL
PRIMVEC
9.31036748036902 0.00000000000000 0.00000000000000
0.00000000000000 9.31036748036902 0.00000000000000
0.00000000000000 0.00000000000000 13.62666391388569
PRIMCOORD
 96 1
Ni 4.8275373336945036 1.8696335418541146 0.4809149357651429 -2.5152649712703523 1.1068593967129454 1.3835458352012493
Ni 7.282997826729547 2.861178382670009 3.840716573407347 -1.003092501336924 -0.9452552786134818 -1.6517838858118845
Ni 0.6003148142293477 3.027796721539306 0.155803415845684 0.046772480268848476 1.4447540312794538 0.2389313312267175
Ni 8.603058988902344 2.4257604203376215 11.739398769227968 -0.9267114541730234 0.09582912858618335 0.8716949887278278
Ni 1.0536077513491269 2.368324762509912 4.281211479201146 -1.6482144232930709 -1.216523374299692 -0.6649142740917259
Ni 8.09577429893629 0.00976192044615879 6.556129047559287 -0.42839643740250744 -0.1144338881715642 -0.6880354334902216
Ni 0.25773704466087227 5.837004632172635 0.8763606968085522 0.39723081043298036 0.6680582190373462 0.5462771464720914
Ni 3.23723344107802 9.16242587531648 2.585700432515426 -0.26181929156848455 0.19753657033001465 -0.2604843748071449
Ni 0.3873513274374098 8.164968951063951 9.9049500376343 0.7099571732639773 0.5845174209002126 -1.139783915355108
Ni 4.117035249757722 4.190894396061372 7.50021149633853 0.9699386402927747 -0.9248977980030523 0.020616390698770946
Ni 5.624765491981281 9.420043747271857 8.481412518732219 0.7048108531763474 0.136399593809378 -0.8743008017817911
Ni 8.394320546934885 4.718903964342304 12.904900380668677 1.1899253120961895 -0.19940601943858563 -1.5264009548279842
Ni 3.8312628261293025 8.84757717362096 6.66913456554431 -1.1579060788771154 0.5885183145294896 0.9025261151760714
Ni 1.943129583820712 2.8423807504517975 8.170520723273816 1.703845382393814 -0.896974589230223 1.4722509511481419
Ni 6.253718065962979 1.2854452153737335 12.561944610174962 1.3945221317070953 0.11619920760210309 -0.7333506124872532
Ni 0.8592957240038175 6.022178533702108 5.376468229047028 -1.0848219572969318 2.700787547858626 -0.6696250493038338
Ni 9.261990946609966 1.596392873037836 1.8743473809784734 0.3186193312766642 -0.4037357014310337 1.0807472730069259
Ni 2.296551138552412 7.063794531560865 1.8976763691157554 0.05837046951909303 -0.943422082059485 1.3099469787681761
Ni 2.403406227689813 0.49428927884659934 10.188711421857501 -1.433375871349499 1.2716069455373968 1.948647570579012
Ni 8.928381854166703 4.264129747734701 4.982794230961085 -0.4602323509661816 -0.9332590254835539 -0.8683435557570917
Ni 7.312493071339399 7.622826244740797 0.7432810952050616 0.209999992904348 -2.0934029925522526 -0.12373228275435465
Ni 4.800043818122251 9.139187197745079 10.681901146288563 0.03652072063385323 0.15961408425262835 0.32084513528338937
Ni 1.2616479157453293 9.136384777092438 5.808828666654075 -0.35886352350869166 -0.2742721726198567 0.24514748733975844
Ni 1.3392312090956786 8.403295741317429 0.25236682461953286 0.3296030839816775 -0.9550599234087294 -0.9754788533847137
P 3.5464400599977908 9.04480800121412 0.5300271249434811 -0.1368611068268288 -0.5766015084872456 -2.122865263677428
P 6.210862443823094 3.4218580309181053 13.018792245650815 0.18120877970426857 0.6351704671703899 -0.7723653031875537
P 3.4763423022113056 6.0316099360978725 8.473291085060131 -1.5735138491553868 -1.5127555961304076 0.19771860443383368
P 9.341278037234181 3.759675409524138 2.4753381278967974 -0.942808359734886 0.6580800247787117 0.22241019364324274
P 5.0126088211801925 9.11265265003735 4.007479222974703 0.5786519632583712 -0.34036109382913 0.07594730206059178
P 7.304514086291848 8.200506624257073 8.395428480681279 0.7286406086060936 -0.6239830830950027 -0.4586732340091778
P 1.8438531339233433 8.21822425383174 11.642458290565639 0.04912375410984443 -0.7770915050186293 0.4667837789314542
P 7.571777499098175 0.28041244499145856 1.3958335890216893 0.5840050000401684 0.887959015995174 -0.33716649815123223
Ni 2.12966279902223 1.3095590675011073 13.447840985496587 -0.9366492821120256 -0.44540377059378133 1.3316532600970161
Ni 6.899289646140571 3.674094510391003 6.243724317363163 0.19988501595753316 -0.0952388033003521 0.24961529330312496
Ni 3.0590795567315743 0.9267241993945812 4.644021608637574 0.6571719111421456 0.6176435140302202 -0.19807650199388468
Ni 2.9266395773833542 7.838044702569511 9.314315212616082 0.9934485504892568 -1.1586907795619399 -0.04865864154796781
Ni 2.0694619620123467 4.508945864217052 2.044053968786245 0.1746403824581315 1.0829563648431026 0.18134376262023608
Ni 8.27666543136206 1.2028715649808082 8.856418298709823 -1.4793109433187168 -0.6379863393526303 -1.568809244590866
Ni 2.3777747856409097 4.00614877144227 4.905313351654519 0.34158365338232144 -0.040713161448646014 -0.04017811488078242
Ni 8.310350341399449 6.170744069762533 2.9860788263221876 0.6164145267191254 -1.2144574929095986 0.6556271923628451
Ni 7.062202458698401 2.61629709361434 1.2528440321269338 0.07330549356237052 -2.530904220469506 0.6047391472637262
Ni 6.268177066871787 7.295743719996873 3.4219278586752306 -0.37688721377962187 0.3062649234763693 -0.5164760039502589
Ni 3.539876250827984 6.195714475710648 6.0410543730083 1.1491211335956337 -0.7736649958355837 0.9719906377257969
Ni 8.975771625335943 0.6539667386576117 13.22400950658562 -0.7590156213535251 -0.30857814499057823 0.3679168919602115
Ni 7.028349962043911 4.513768634642527 8.626141252297783 0.604208728681553 -0.03933916391925483 -1.2333059930746695
Ni 3.757915750044573 7.464475512315171 12.34368631731938 -0.4651575561819408 0.982179919553973 -0.8658135902463864
Ni 4.656757260500521 3.75294401373723 5.055751202642672 0.7735678081360872 -0.8403869226431656 -0.13828884041229086
Ni 7.570939566012669 0.021692225510257863 11.121824395510695 0.377531275121524 -0.5892616204534175 -0.43841345531887715
Ni 3.257315904027342 7.763682796414557 4.5003561190538415 -0.17714206583406267 0.8223058967717387 -0.4095523081128108
Ni 7.407402958824514 4.534521444060255 10.864021247239743 -0.7857954605505305 -0.6209795203819886 0.26322079990170155
Ni 1.848061420086113 4.710971531132836 7.006149390461778 -0.6626514461994781 0.3691371375205578 0.2655023968470266
Ni 6.3701814544808615 4.856473956247352 3.506100099187951 0.8472772220050956 0.3233802430004173 0.3700825321529626
Ni 9.052349398983685 7.169346169231922 12.027819992443352 1.4964733140306163 -0.26703477433115297 1.3238059961384556
Ni 2.628037467179058 5.949445941880084 11.00398121051201 -0.5494187774248667 -0.1366513048088679 -0.561004168269621
Ni 7.373187357832971 0.20147356211611103 3.6415212582470535 -0.32675173057581147 0.04705067363089961 0.5210741648439026
Ni 2.078818881467177 3.5578266395930718 11.579557446946898 -0.7778227267576991 -0.4146348648420407 0.2302839399643647
P 0.24828702152987447 0.9741530741078116 10.442603284692657 0.2115261997408873 1.555685048504082 1.5362955882338767
P 2.3729427048478184 5.88111715394078 3.9661765701532916 -1.3890186853903626 0.7241424636254239 -1.2569478008633255
P 8.914351130168267 8.019382732640883 4.803303377824874 -0.3429576509117126 -0.7899611618924459 -0.3469166355594606
P 1.6702985711795704 9.091015355696033 8.1014610714766 0.37890527265091517 1.1560422861954993 -1.2609396956315382
P 3.304361191594763 2.0987616889022482 6.344806047541418 0.4746187015948407 1.1951698483245803 1.305791561838906
P 5.856258472404067 5.53358906191048 5.717012614328006 -1.2338053013085912 0.5464949189098524 -0.6519345740026062
P 6.549908790954538 2.362859576718882 8.098531098787609 -0.27851346439471386 0.012221481766856371 -0.004733143809611204
P 8.979048874737039 5.229726594002723 7.4623834727116884 -0.22188388882612753 -0.86407732428157 -0.4513545888605775
Ni 7.2347235706367155 4.76773684249214 1.048631359857976 0.06116320177288175 2.2378100300471395 3.0537282781249795
Ni 5.746256479012206 1.5096667986878414 6.082697785284484 -0.6202732383435834 -0.4987647027134249 0.1463137675992964
Ni 2.8112934329794808 5.899039611603018 -0.15150668119055546 -1.0293624907770467 -1.9409818265036378 1.3244575136795256
Ni 5.689574960961453 7.895117256060168 5.743843231725945 -0.49197956147079136 0.3802653862232354 -0.5672676326808295
Ni 2.743094990186812 2.297863900386374 2.3633679227907556 0.6251215675748201 -0.6229854950684239 0.12119871769922352
Ni 5.4523188629838995 6.3761214690203465 7.925403881917444 1.2497060316992479 0.5933941545645522 -0.8875759216241422
Ni 9.38792297899408 3.2204002964269423 9.75827264412655 0.3513728715586013 0.7322098140145906 -0.9664540241782839
Ni 3.6631455180737094 1.2439209758030438 8.475498573222062 0.4109108790232342 -0.1260339343043378 -1.6542842836362348
Ni 4.854155674710783 4.095779680488689 1.4956491092040678 -0.5831259398693248 -0.4266313750822846 0.03920958031992602
Ni 6.032689938741415 5.726928155839841 12.905050277587307 -0.6342045037126948 0.6739599292337618 -0.19079873738554884
Ni 3.6968211177434815 1.598375981340203 12.009287705702217 1.742951090146024 0.4575069816152186 -2.0070486362257243
Ni 5.6570166054056905 8.321550713642395 12.882879499181549 0.3764246723209066 1.2982371465304157 0.5147315104553264
Ni 5.421333959555367 9.259467836985829 1.5613840287253453 1.3429311470036807 -0.8197903294387365 1.5746549047383656
Ni 7.885173783445483 6.673745990624884 9.845359960740073 -0.41180845113683917 -0.5857644059334363 -0.9447171467218247
Ni 6.046795145680785 1.913811236195577 10.293745403089066 -0.3126728838852421 0.8559387543348356 -0.8260437665476161
Ni 4.223694821175171 4.368573451659365 12.121844463968113 0.4489416085437107 -0.8095375413624768 1.279022521275178
Ni 9.39499885838281 2.871056682711377 7.025989783853065 -1.9866068234316046 0.27646275251327224 -0.4054927933314565
Ni 5.165317470830069 6.7576044717489205 10.23590008908622 0.19850536200118715 -0.10272482726475211 1.113097150092541
Ni 1.0944057822457105 5.505704510898325 9.11209589005387 -0.12214025567688644 -0.20043137537930644 1.3199529409409527
Ni 4.29163257367457 5.6948166979296815 3.3423754225739395 -0.17120770262749868 0.47481333410414994 -0.28252078578189405
Ni 4.964949049350067 4.3171336705768395 9.94096533268616 -0.02138695031620833 -0.0751093795403287 -0.8487540636609382
Ni -0.12120702081861538 8.104758803686451 2.2397197235830295 0.7013956568472115 1.5743944519881274 0.3829259637745341
Ni 1.164736299222614 7.096315645646161 7.417347362475962 0.2558617884334691 0.8649694970785361 0.23284630137490223
Ni 7.493058340898583 6.749308934202399 6.462281473019242 2.5279909034774524 -0.5651184475483106 0.4997972577429974
P 4.971447685946556 2.1574263152553685 3.1027917326921997 0.25505137671703176 1.015370804483645 -0.32655915494903115
P 2.951814811419037 3.29896117837705 0.3538982455536777 -0.16397621787606598 0.7106182038867439 -1.2524576263024558
P 5.47071614939459 6.195304819535511 1.5665214895762662 1.1665989786654232 0.4394382970389658 -0.2188301896014683
P 8.333635570808932 1.9049850076949015 5.2872004243376605 0.6879760410071957 -0.7835007509790829 1.6576246608633776
P 7.017075106860031 7.264069849364701 11.716273678141492 -1.3228243489514766 -0.25366015279645987 -0.5252288104422245
P 0.4366422756739896 5.075183801932346 11.21851908046794 -0.027887984659519714 -0.449644033927374 -0.5523776029428745
P 3.5149989485560376 2.6723455066671544 10.035820289002336 -0.008401850910450046 0.5260664758521714 0.776466726950437
P 1.2291733534981173 0.383796629081336 3.2264529664145893 0.63819357026743 -0.3439400694296399 0.7961102122129773
