# total energy = -340893.6918102315 ev
CRYSTAL
PRIMVEC
9.03372662363840 0.00000000000000 0.00000000000000
0.00000000000000 9.03372662363840 0.00000000000000
0.00000000000000 0.00000000000000 13.22177205678113
PRIMCOORD
 96 1
Ni 6.275729780426542 2.083791617952252 11.431927003199885 0.9194971958127713 -0.25487936991554166 0.35653256138266987
Ni 4.807676958838005 0.3305666359439445 5.991723874094367 -0.9871735161138225 0.6137158968410398 0.10572633309523725
Ni 2.6971003418948727 1.5482542452111463 4.869803702534492 -0.019915250866688283 -1.1146619234764998 0.022929869323295996
Ni 3.3597964484624994 4.057091727419695 4.65758069012523 -0.7452735891770842 -0.20357557743524296 1.261947310960446
Ni 4.831182715119378 4.2644518848688255 2.6342400596088207 2.004901250865418 0.660547769592914 -0.5408932564523589
Ni 7.2311728270611075 6.148218731267595 2.698973936765263 0.05629713192983207 -0.4230362015318586 -0.8841455557863548
Ni 4.88793258481945 4.697872013565104 11.258801055590833 1.03062078866418 0.47432662427571853 1.2293945738354053
Ni 5.4692890182289355 7.767893617970108 12.191412261938872 -0.3418983564092628 0.20669329712861823 1.0840974204260814
Ni 1.8318409866349985 6.257861069463991 0.5796400253797159 0.8248962832067341 1.2617819890271755 -0.9874313977608993
Ni 2.651190943961768 1.535281813996676 0.39009076304371204 0.3195883800581528 1.2840310302333628 -1.0107911555327624
Ni 0.5269535258469626 0.14626687206109432 4.687541043971184 0.22109147483181923 -0.3976277887610829 -0.0013814537285589113
Ni 8.551948805968928 2.2337966460276557 1.4179824892422115 0.2579783205558396 0.7001319596434393 0.43272617512611283
Ni 7.03606240270865 0.7318863209929396 4.88317090759581 -0.949540793362713 -0.07720508572709284 -0.5353684699793876
Ni 0.6668281330561356 7.545320665141333 2.388116181866312 -0.1720091154828715 -0.6545272744304469 0.8540225111487292
Ni 7.500224302590752 3.7498727575438555 3.7710080639988517 0.6938484406275728 0.015256669048754367 0.20118805103967288
Ni 7.708072281269396 3.7157614063837996 12.678343669394842 -0.215306492718926 0.9137847188090263 -0.2880602275428845
Ni 7.825736568573348 8.976154533663285 7.114291763842319 0.1680809840730589 -0.6482746086525157 -0.7707462795268919
Ni 6.743965890947728 0.5214899280764114 0.35961096992559033 -0.9226455116337658 0.48365304388296704 -0.5920990899022125
Ni 1.7154685222166095 6.545738830962269 8.90726965919274 1.6035003682151483 0.24853517286506874 0.8231350775412533
Ni 0.06890565204143011 4.960337902496316 1.3887755481840611 -0.7322355250462034 -0.9795144569066678 0.5070115161032493
Ni 6.350800047412788 2.0301132152528214 7.1273680829112225 1.3474498608096408 0.01751846849973757 -0.07902285566212197
Ni 3.3588479071828896 4.228533788414276 0.32340740771451015 0.504165562014022 -0.7167369151899721 0.17306840998532128
Ni 6.044863866696038 5.563149436277923 4.734623922973063 -0.9239120370510153 0.23729019607886878 0.19886968731914137
Ni 5.456605666261583 2.924849619992373 9.3658667835678 0.3862164616003478 0.08525418128381446 -0.14386556316911997
P 0.18552112370192841 5.788468641954329 12.392964636638851 -0.3444748588871874 -1.9595873574199671 0.7072857970794012
P 3.812729426339318 6.1801258531683665 12.771702715624608 1.064939873661024 0.4546579422021976 -1.1995924028723082
P 2.325723846611534 8.374101832905364 1.2849364758735804 1.0707989035449623 -0.2557229488627596 0.9829193688231589
P 6.3070587438330765 7.829404261521171 5.837584109412513 0.6563381023869406 -1.078508356374078 -0.9148566117169663
P 4.5816982911291095 1.034587524259896 12.554892376912624 0.5147237971458426 -0.3253425089331107 -0.3783455434927033
P 4.249040347506788 6.002649262890175 8.267230138618075 -0.8824956788877575 1.3878583465336742 -0.9571144919449129
P 4.742209543091998 0.9909184904919646 3.788963498735538 0.17596218659334859 -0.5226363671247 0.6104043159693037
P 0.19244095817984225 5.6783565499813635 3.6379177853705054 -0.06404617974763163 -0.5183552232508428 -0.7558055990566597
Ni 1.6885841522345317 1.073450615544472 2.485336242790412 -1.9442281013550775 0.40459779232101284 0.950748440517569
Ni 1.9638237303978194 6.479964268516197 4.673314731522335 -0.916303371465822 -0.4823739200602274 0.16891325016636713
Ni 6.057059397433877 5.798541246971135 9.561483096602718 -0.5997087839286703 -0.5467489439021874 -3.1920518284299475
Ni 8.821262259566273 2.380016542711093 10.187123760552907 -1.1728390460378642 1.1205947440211668 -0.1352806497135864
Ni 2.66760522496225 5.025407834277534 6.908984069047734 -0.2583956105989163 1.1598750296780282 0.04926902143845708
Ni 0.38509330555914034 9.094884800690988 9.189700083628116 1.1613428724728065 -0.023157926173702055 0.3767224060669835
Ni 1.181755962222943 1.0353553910100561 11.45168105287724 1.1131004925266508 0.022007357509026614 -0.5839970296203684
Ni 4.259203289788319 6.629111092576715 1.7001211243125263 0.030747308485185754 1.1997767509689725 0.3662009377103693
Ni 5.7737617352571435 7.777532604116236 7.922274583148777 -0.9792221224772296 0.8248320056277021 1.2793493084869774
Ni 5.215811687137833 2.803102088322863 5.230347856404689 0.3200007850052231 -0.7873530348456376 -2.0367083680736857
Ni 0.670644882490755 7.608177333936796 6.863249925408196 0.3902127272439344 -0.7867693944280257 -0.07600926564677878
Ni 5.0898363714792065 4.295591140019438 7.204001184577205 0.8036350598351129 0.9229085354871654 0.3240227616804226
Ni 8.215849012560595 7.119362394511318 9.182904011202876 -0.1525080693354664 -0.27063149054347585 -0.5625522294830312
Ni 4.845519239031192 0.3434577636201625 10.36277553808366 -1.5390806071781815 0.16385486180685327 -0.20011615813173278
Ni 8.179976084738406 7.190231978687863 4.848688270277735 -0.17202299943994248 0.19224601135503663 0.14605254351810976
Ni 6.957468982398141 6.042939682957402 7.006216777188896 1.5244476877563553 -0.8475204483641533 -0.2370852791569142
Ni 2.569354415847641 5.080341924956638 2.5403913854042477 -2.5198793301139117 -0.38694742622910133 -0.31567567526730794
Ni 2.3867737701125025 5.310268331134004 11.415638290997368 -0.8898914571311964 -0.48592847018070506 -0.4629654336266285
Ni 1.0377493285252612 3.4300517392389165 3.901837200891138 -0.3354613425346675 -0.25188326340169526 -1.5130978099611747
Ni 3.5145983852947853 2.4694865696944595 2.8821480983296435 -0.24595429951176995 0.10865044872056771 -1.3907899183581727
Ni 1.3815548906146142 3.480315393331753 8.256321913902564 -1.730410277366536 0.1304786003392527 -0.6941076078262305
Ni 3.5245896867733397 2.682483772462412 6.923025190103897 0.19719307094766683 -0.8884264425498958 0.7887298605885061
Ni 4.038888768577663 6.9452644179338305 5.818148046906989 1.0038424921290714 -0.08942296794952341 0.557807258598878
Ni 0.9276101353728784 7.354148945530874 11.22890664794813 -0.5285828145161219 0.7555166070613311 -0.004907978824578644
P 0.17784968318150493 5.59909463391189 7.86921499071271 -0.6374749469338504 0.058541704989634666 -0.3332828468261098
P 8.688222569806173 1.6954046157212486 8.02724196789567 -0.5425282209526204 0.8339488803273056 0.3327195181234721
P 1.7979103100043923 3.375813245498193 10.36565729682838 0.39901721290944187 -0.47283204200806306 1.4762752418161866
P 3.97544490756149 5.863882190546527 3.847152441062674 1.3797100063949268 2.580159615061208 0.5691296255902327
P 7.0421692018040405 4.074002863376164 10.451241918055937 0.04959015222330169 -0.3786319643848705 0.46402112858465244
P 6.381966403742816 7.870923268388655 10.115210780968793 -0.12147922505411983 -0.27379986096912845 0.7056570032267266
P 2.372798595259588 8.410570986674736 5.694842197420977 0.2572044185042925 0.7207141546701652 0.8407756734411521
P 6.7818081711409155 3.8954512596477473 1.6491645833992514 1.2422182079626347 1.5769002491291166 -0.4386178580201995
Ni 5.415881627323679 2.8502671742356416 0.4046386761549815 -1.2768985329536395 -0.02803428042939688 -0.845254535148112
Ni 1.6445447356812293 1.0230514555545487 7.093414821964435 -0.645769839952791 -0.014111499700717633 -0.09886457297839747
Ni 6.921966437361324 0.7550198877436468 9.181832611243241 0.16225717830243022 0.48902562104879 0.3788913886938442
Ni 2.8535735181245663 1.747131733502625 9.26034382464285 -0.23705391169834655 -1.36333645013291 0.28261437393696487
Ni 6.2040923294998365 2.000636165773144 2.499536357432491 0.5137452352826573 -1.0636856895389486 1.1525113902241053
Ni 3.9588589857580305 6.893474064067147 10.367442361179341 -0.14852465920768615 0.4568431227789745 -0.384283506243693
Ni 8.122205403946944 7.291879468956122 0.27433439877074584 -0.08636309807727707 -0.16626527102055882 0.5432982663494256
Ni 7.722481074992989 3.9081165441621537 8.040794364349672 0.771516067813381 -0.4655781886591272 0.9699512386982649
Ni 2.9036474639614807 8.486752402017094 12.385984276193572 0.8589860258015917 -0.9048501353235578 -0.4783349741041633
Ni 0.15334027988904017 5.008650271671097 10.223840438427626 -0.4019253876951723 -0.6867951333252171 0.03939547107848699
Ni 8.68937888679465 2.3552550984500464 5.913238858501527 -0.43658231564740946 0.26118037243290504 -0.1465521088623476
Ni 3.7548142059242977 2.760128651493312 11.457788755345277 -1.0642431047043157 -0.9317204773518405 0.2108967936870045
Ni 1.125792026725977 3.40781070466369 12.648793446730739 -0.40545422678403725 0.15644417116507894 -0.7434329364239197
Ni 3.4099155629317757 8.359259420311092 7.982420230629851 -0.8347289530264398 -0.02897864662053719 0.43220758361848144
Ni 5.57454096535971 7.901141083439075 3.6800420519116437 -0.29038501902131925 -0.030368584989528345 -0.22611541040897187
Ni 3.017788597941169 8.317505536555325 3.4984018171022897 0.7368586256405115 0.20047919789810634 -0.21790613512530216
Ni 3.5526755423762566 4.223556205127943 9.30089531940513 -0.843424938138541 0.5527283014140738 -0.24452090949935312
Ni 7.1825713786392065 6.1913728426265955 11.4508083949 1.4079088374266462 -0.791718768013501 1.2138468559087934
Ni 0.6182348149880595 0.20218202543510919 0.33925075720193215 -1.0655212000857908 -0.8074500627058286 0.3917980694531833
Ni 4.439904920417184 0.41201019695651897 1.486695722909778 0.35984722757819965 -1.168576414106768 0.7157850927996641
Ni 5.8612443424165654 5.48322805817596 0.2830817561140408 0.4574712432812767 0.10515066309742536 0.3135174912737246
Ni 7.913941873850568 8.678113829883477 11.411380695710893 0.21820232620948227 0.7238478152031405 -0.006453983155459852
Ni 0.2803535707193542 4.831227883751741 5.7726650408633855 -0.931253307907435 0.8542891345465546 0.558189067418329
Ni 7.704567195398076 8.850648971781226 2.404577438244451 0.42639457648113016 0.28637281253813257 1.1464430725428385
P 8.485207634790303 1.6804176635034167 3.5974855357976607 0.2885338247451934 0.02925401176911091 -0.5529370749907704
P 1.7508355613563389 3.256631292146865 1.524496447961191 -0.1662948387069136 -0.5805769481952259 0.6050021711171258
P 4.728270503144974 1.2296166450741017 8.20849917270259 -0.3391753010511449 -1.1396335058201728 -0.08894397143057585
P 8.27835336602363 1.59200458251733 12.502242915658407 0.5798801792385175 0.4016806186742179 -1.1832844097409039
P 6.228122041916612 7.613172984676074 1.275558564422507 -0.500092420385913 -0.12922698732033874 0.5966921085895337
P 1.6871387559989364 3.1923111596628617 5.982071337358531 0.7845235358166424 -0.460003265674511 -0.04689332211742892
P 6.912354552394613 3.951008677453452 5.98569476504664 0.3311344330245394 0.28065390777648436 -0.3016037705552741
P 2.3598080965921726 8.458901423302462 10.094875862679258 0.6701716658359232 1.24493946354854 -0.7165453680044563
