# total energy = -381171.5641509784 ev
CRYSTAL
PRIMVEC
9.20963358147943 0.00000000000000 0.00000000000000
0.00000000000000 9.20963358147943 0.00000000000000
0.00000000000000 0.00000000000000 13.47922967052294
PRIMCOORD
 96 1
Ni 9.023930394612401 8.242391690975055 11.736971444682824 1.2259858052641726 0.443009816440308 -0.4728996620212049
Ni 8.159376055116569 6.71336229854048 4.078087393265827 1.9852150852904002 0.31515065600177333 0.2798838623796792
Ni 4.112681539369137 8.049578805204778 11.630876467415266 2.5765155905507173 -0.9451634902306238 -1.4979488701348782
Ni 2.8666641826491506 5.666871650370983 10.075886039267191 0.38341678736802354 -1.426479401339982 1.1908573369921556
Ni 5.419657459850753 4.2069052991281985 2.671394166676184 2.2881650854609235 0.08378479582713957 0.44497079682142077
Ni 1.3646005969367467 4.3511373684847285 8.526461913572286 -0.3959737980974277 0.11009412314562976 -0.5504906703328067
Ni 7.334091592623241 8.86633514712955 7.16203998352434 -1.6708928387271933 0.79656761146537 -0.4349432373820896
Ni 5.4913176176735705 5.890334196240778 12.31989427251723 0.5793531030904538 1.5928120352633663 -0.34907559088399237
Ni 7.3016921021694845 0.12649615727129873 2.8516257721994807 0.9303148552535655 1.0769392121147454 -1.4324860125453782
Ni 6.0502686906182435 1.371655176154364 1.0619278357472643 0.9754027487311394 -0.05053683240728715 -1.0045356615413539
Ni 0.8345760616743377 1.7625028098573057 8.37108710871263 -0.3818034201343166 -0.1439028441649586 0.5559036138182619
Ni 5.31683190245559 1.7974441591414303 10.070008451203636 -0.461246908273625 -0.2200378367563243 0.9446628964451216
Ni 1.451751358211304 7.757679473217343 5.139805249370584 -0.07442443765816215 -1.1755348477024723 0.16013241864994357
Ni 0.9102497777517743 1.451244828371919 6.069265401521871 1.6154457135024824 -0.19017961574431116 -0.20862728092653748
Ni 0.9367670753252535 0.9039522304032017 10.839147304372837 0.2908377902880217 0.6508225718853501 -1.6111509427818707
Ni 5.83099652796518 3.9266101052794027 8.873013052339333 -0.7658010197064746 -2.8067092847941213 1.2867332596558743
Ni 8.095783536190137 5.965420337704527 11.79855810544529 -0.24258255482605962 -1.304588028449108 -0.13339140311067352
Ni 5.061494815238312 1.2637827396322368 3.070892409072478 -0.9764669283295958 0.26720318158821726 0.8241527201724902
Ni 7.109929114611751 1.6743481985374216 8.495203496702162 0.6272504409923649 0.7094635214570103 -1.2145503097337214
Ni 1.0172961101540319 3.5347494118976908 2.1400434441979304 -0.7873106116434764 0.7510485439876485 0.12940542187973195
Ni 3.119735700039361 3.2803424976581925 9.278494793583782 1.1329640642197971 -1.137034377634429 1.0649393594403918
Ni 2.8298901163097967 5.039511420209001 5.350431408147015 -0.5395783942956771 -0.03020969081416088 0.18749127027887064
Ni 3.851883139519944 1.2093353867150665 0.19656120658172643 0.6536626124373065 0.8074068681727192 0.27579889367702826
Ni 1.3998274448576156 6.683016556344596 8.302490995936418 3.073098455121475 1.9549100065489557 -0.7204002229741722
P 2.3981793390186468 3.4301371856145146 0.23471211312086346 0.12587118347422838 0.48499721661568734 0.19734168071038916
Ni 6.430709438530183 8.068108587692828 4.565872865703589 -2.296376417627122 0.15924538805929994 1.1438529432181592
P 7.476739605027512 6.963901166733765 0.04269493968009303 -0.04997761746970747 0.5109208784599846 0.6331374959007612
Ni 4.819760356616882 1.0553963637092303 7.969378554289928 0.06485222058869476 1.0701193609794344 -0.9458543456500614
P 3.1981188902758353 6.819936176747094 6.46335758908691 -0.3657479093333507 0.5264588261945836 0.051950424925362136
P 7.651216110612051 6.976315752615421 6.2159196044740055 -0.13700020350785436 -0.8487530352196737 0.35890234716642705
P 0.23567820366907238 8.736985845417497 3.423751225784886 0.45145383344260315 -0.7842749101409461 -1.7188282289558914
Ni 0.6867724964684712 5.689158963303925 6.498606540128043 -0.9208830204167042 -0.015386766868715436 -1.3621812534825444
Ni 0.5476020416524142 6.075318893584194 10.1854447596728 -0.8809021091483927 -1.4886625597369458 1.2886106791842453
Ni 3.8882980301550067 7.921730673743993 4.6088312009001635 1.289813184132779 -1.1145925036911448 0.9557890882652699
Ni 9.044081072586483 3.2939359166205984 10.109287537839586 1.1696269668584696 0.17397112430524878 -0.883124313610692
Ni 3.344552062025329 5.398742382300872 12.839828733379088 -0.840327787270456 -0.9781078063671284 -1.1569781677462074
Ni 2.2544445898680587 0.3726392674220661 3.959618352503765 -0.6649142740917259 0.6026208153691428 -2.2440308141458707
Ni 5.502083679168865 5.395344027560271 5.470127172083735 -1.8534699595338981 0.6352951656737124 -0.8674488118569642
Ni 7.101014189438575 3.62138443369942 11.155410721634691 -0.3431242583965639 1.3574193133175267 -0.11885490005739532
Ni 0.11353820301648501 4.087207693264792 13.22556409955762 -1.3145389690142328 0.8191642658189634 0.38865566716945965
Ni 7.760064768279174 1.1856113709649594 10.6023980203343 -0.6251701614245685 -0.3461666447673135 1.6370568640143548
Ni 9.159763278268583 1.9886085205253452 3.7566481620088013 0.34668806448842227 -0.09034059466778635 -1.15044499461338
Ni 2.6128006367828105 0.005231992759175316 7.823695046702723 -0.6224247374689473 -0.18717553881066473 -0.8863117101997381
Ni 6.825765874716743 6.995545467245165 2.1716251192019156 0.1943329757910524 -0.8243794914713157 -0.44866135829913056
Ni 1.0226653264515133 5.60869439590925 3.640011838301969 -0.0984493398178498 0.013722234682098947 -0.3341832471531922
Ni 0.5530836154779049 3.7281609238417865 5.058458399092033 1.0448410460286202 0.24733986700538696 0.5311793715987044
Ni 5.033552787371144 8.173743083288217 7.115226495768375 0.322118088458542 -0.3615431272233838 -2.3165402941695072
Ni 6.79452679807685 2.790951786111252 4.085001986055105 0.2943835986577511 1.2384685111122156 -1.607561425658399
Ni 8.379624438914629 0.28695191690165933 4.979133063354303 -1.0844056956951196 -2.7156266697539877 1.8145128615444104
Ni 1.6862009967790317 3.9034755060696713 11.625767883744231 1.074771257929149 0.6674735501784698 -1.3827004564818188
Ni 0.28511919984642986 8.572787290755752 7.019605634615955 1.4870468785103939 -0.33833840697214634 1.2755607879788227
Ni 2.890102699762513 2.615600365349594 7.022759013106963 -0.1432821798618242 0.25174133850719227 -0.46757336471228506
Ni 4.746718753777559 5.861931686701441 1.1170088114453383 -0.22183992296206956 1.551480266394115 1.3168521905284418
Ni 2.40998608909304 9.182382138005485 12.397062712102525 -3.051248963346551 -0.20142947762651764 0.19221001591077863
Ni 3.071716671265659 2.5177019618466296 2.365779848564891 0.2105188415222955 -2.460233850537137 -0.2726323230235886
Ni 7.666365957626385 4.7804536410806024 5.552202504367653 0.5297135856864554 0.3357917292908927 -0.12596528584993144
P 2.389540702848771 2.407149521992484 4.7099934984954555 -0.1786335627779246 0.8930953087804747 0.05745541390399137
Ni 3.062037346516683 1.9322087253181814 11.492700653011092 0.967711550734469 0.7918398669723975 -1.1044248191295238
P 8.009010369886758 4.643635326645981 3.3275906801126847 0.24562237009364793 -1.2559065040830049 0.6314963607529125
Ni 5.32876758739819 6.047422913884244 10.05855166720009 0.7039760159798779 0.691293535416203 -0.4709947316890082
P 2.8176781423638957 0.0670857328914993 1.6157961119945439 -0.39946278508729266 -0.6741908142976454 1.3364391115214338
P 8.796019595789462 9.021701663319107 9.286447312062126 -0.036150224668311935 0.13782732739484005 -0.6715536337851145
P 5.597504691275563 0.14386368401879532 12.593252770456482 -0.25664571778734513 1.311600198100883 0.6331500943062515
Ni 6.6206857571999045 4.612819893144485 0.21103506650131792 1.937365827017605 -0.9808432030204204 0.5384849041211823
Ni 2.700246106327556 7.194860354226458 2.819356137577276 0.035496136024080804 0.2981520645612478 -1.198430521353723
Ni 2.1874352969341393 7.907630724942202 10.378790883219446 -0.8118481917735244 1.0130061609062102 -1.4148040218845825
Ni 0.7757246620445506 1.0096060662288224 1.7325254529991547 1.506962386487398 -1.517394637564316 0.594101465044222
Ni 8.480377828785034 3.880801388532108 7.565446794353997 -0.46634412029087424 -0.3119493754556563 1.0016508837943912
Ni 3.813073744189606 0.8438916059023008 5.578797162862057 1.2199876786992085 0.5235048857725823 1.1408046433101386
Ni 8.185540623729166 0.2453280575910296 0.22331058691797834 -1.0852140505290278 -0.036934154022188005 -0.4681225523475357
Ni 8.387784174145448 6.874134869561293 8.537178243046984 -1.6541197330339126 0.2583465025285357 -0.7373543343300075
Ni 6.370202146807279 8.093149581025335 9.156305981873944 -0.5835008067102403 0.5646867593275308 0.28509446004634126
Ni 8.274441215357964 2.4078218252338495 1.3985509896623654 -1.6862053007145477 1.0123096490598178 -0.09055785288491501
Ni 1.4099027838446563 6.763517962273044 12.264616210663466 1.0800607884628626 -1.6988330167808872 0.8249880715895921
Ni 0.7267386217592953 7.970099668588543 0.7070511883474151 0.4737905492665904 -0.4683004726862967 0.6175082740039366
Ni 3.949634188887814 4.809463986427201 7.5108419567049465 -0.06463367681998547 -0.05154393351556285 0.08582728017846508
Ni 5.9914928099826925 3.2302144628259604 6.644383985976369 -0.7453260396815745 -0.29812943885342846 -0.36643310832583337
Ni 4.704391278471857 4.029067277336831 10.960015454646896 -1.5549525412134317 -0.2563904072434294 0.6666291999003034
Ni 5.689232640371472 2.4574617494935835 12.358728533857864 -0.7009380004845025 -2.001922370742752 1.363891551305432
Ni 3.800852560610262 7.0225757414014405 8.525882627628699 -0.0834199562885531 0.6132708388838213 0.8025803933183533
Ni 8.590617141102106 5.581176011180477 1.5537775194235837 1.0007545972323668 -0.08154845029745311 -0.7967506740104536
Ni 0.9686968744733978 1.8965398149920312 12.96035981106912 0.06446192712881157 -0.6013923422786804 0.33058781649245
Ni 3.132822589162382 4.607763804384077 3.0585045311278085 -0.5862084354493904 2.3228513239891995 -0.9536807836730156
Ni 1.8014227207889637 5.538249909700957 1.158441110380346 0.22741433172605352 0.7529671011666 -0.26782924520799034
Ni 4.353577921347219 3.3192255700560773 4.4559236568399845 0.22137840994461871 -1.1953822214457026 2.048012737342912
Ni 7.957823227208538 2.1925466434952066 5.908431125956989 -0.34500759146220583 0.9398384784732846 2.25012021487306
Ni 5.181763418375207 8.402353814252852 2.0041184642073153 -2.2933846819886505 0.38209318346059357 -0.4299110742748209
Ni 6.859712583588984 8.094273156305425 11.467076689881619 -1.8292324271427722 -0.36362469234276085 0.5555050928282627
P 5.961579920558644 1.0864051995130382 5.011240608427904 0.31073941430795515 -0.8108724581238163 1.2119318982742677
Ni 4.60771775621686 3.580594967178759 0.7193313135807974 -1.6717207339451274 -1.0320513504631192 -1.1915515348457026
P 7.495582515052636 5.084316286910968 9.584297909180663 1.1295452683462353 0.6677941667426822 -0.06973063172691862
Ni 3.2819541835107815 7.674884868561498 0.2527086578325418 0.3879959220982737 -1.4981794980884457 1.910960340440883
P 7.997599634050429 2.3291715556275174 12.6631161287945 -0.06881454767055245 0.030764277766050244 0.42141949186404193
P 5.11851165588618 6.206804830255108 3.447703640444388 -0.9612004890888285 1.1975751153319634 -0.3190805871837989
P 3.6842678108507116 0.2255743148183573 9.631057981062657 0.23368885188085559 0.2981893455570865 1.2397314369850392
Ni 6.241571196503809 5.670960727619837 7.689617519180848 1.1825151356750474 2.4143288604749062 -1.2073296236155657
