# total energy = -340865.49555468146 ev
CRYSTAL
PRIMVEC
9.24715607333757 0.00000000000000 0.00000000000000
0.00000000000000 9.24715607333757 0.00000000000000
0.00000000000000 0.00000000000000 13.53414763018976
PRIMCOORD
 96 1
Ni 7.460115209603087 1.3915397480086091 8.953609474013343 0.057552858713804105 0.7825813244886071 0.7067312101275119
Ni 4.488587925299701 7.344091145633974 4.270930221235607 -0.9332757376541024 -1.3798653010258688 1.525806772887411
Ni 6.360720855152794 8.224670052112552 6.0642857060134405 0.0652931647808553 -0.6673786764718184 -0.019109467135941284
Ni 2.2647949070843385 6.4163147558925955 12.322692330403513 0.6655488223519312 -1.7039788226478847 1.0130472985567909
Ni 7.304152679683341 1.1315652095191184 13.318751568089478 1.7353079717784694 -2.851592775570373 -0.17486869641885366
Ni 8.788265704522649 3.2179732338403935 4.1168439392300495 0.700295224694181 -0.8474859955817919 0.39050686144558555
Ni 4.651809472531613 6.942866302121115 6.688710998783913 -1.7540286881164242 -1.9963191656233616 1.7377446062444204
Ni 4.072160757632445 6.922023212921595 0.8139439016996324 -0.35481120781618897 -0.10624621015444928 1.2747496049314369
Ni 1.516700001919659 0.4056098447987561 6.434607479519256 -0.03467826810847576 1.4207463555109467 1.396345815179395
Ni 7.715743584861089 5.270194523125898 5.686074259169103 1.3440981707285884 0.6071130468125414 0.7940795549361938
Ni 7.191799736571463 0.969786218593827 5.725689074666327 -0.6654835163316345 1.035523882392752 0.16095414322029056
Ni 1.6788396319216057 2.5199979131750037 5.107746962835423 0.42698027378127107 0.021108756954157194 1.4922343362486044
Ni 4.904728431136794 0.8918604365688239 9.287321757660726 0.46609703727707463 0.299176134950388 0.7064041658053963
Ni 4.681603808556837 0.3087329416533019 0.7885918993263384 -0.13380997870533082 -0.19443504858655547 0.06078807782165015
Ni 7.083441564770231 4.496623703700048 3.2664126101287017 0.10915129961638623 0.7333765806291821 -1.0457100788971345
Ni 4.161599248642986 9.150643246470652 6.242341540598447 -0.6391551628497509 0.8775640459140951 -0.31797321305223303
Ni 8.587963062485912 7.825165179580664 5.468661604734018 0.9661627181901102 -1.0081022958466896 -2.1798594216742844
Ni 0.02848123989996555 9.189823445644729 13.382158390774565 0.7164602644898178 -1.0881217110941261 0.9728280460254278
Ni 1.3693373269047722 8.23679307338166 2.79894299181215 -2.8343990373999057 -1.6578583741407384 2.1897226876216096
Ni 6.263126372716353 6.219572268843353 1.8711499571903114 -0.372518652398281 0.6053150743718543 0.052757237097373656
Ni 6.593268329504849 6.032243386410398 8.299518380683429 -0.38590998610352245 0.09192465132545459 -0.2164596324867627
Ni 8.666230989275945 6.850579687120578 3.271852711892711 -3.6537013714586304 1.4623684019271073 -3.26472431639401
Ni 8.919575317048464 6.541650705764068 9.668564422180133 0.00935984394834517 -1.070218091340828 -0.635864407913621
Ni 5.083281762704468 7.806495171996889 10.27444824283261 -0.10470277692672936 0.22538753110401183 -0.8918030723316125
P 2.4288117097160558 6.119388582779644 8.061925658120522 0.035966905012912255 0.2530657137455706 -0.33289641002096865
P 6.513567093564004 4.142901499591774 7.1761701938185665 -1.0480297281692468 -0.9987825611076606 0.6305586794299914
P 5.907018402408667 3.512032788651726 1.6943128977412851 -0.21533683173622917 0.200812412867809 0.18226730287576998
P 0.4586691001305783 4.243741733718114 5.87388769256659 0.913036270678776 -0.6466334735046669 0.8687631597930136
P 3.53598292220397 2.3039196233235444 13.288610463721316 -0.9338480652178046 1.1013916887301547 3.973378711686164
P 2.359384063881984 0.049128289396278245 4.3581845340434295 0.8563203060439704 2.134080929887589 0.3474187720068597
P 8.482619463479285 6.840842432050882 7.462905076511469 0.1806426227881534 -0.7710129029247172 0.5364275073715213
P 2.9240708806778595 3.598761863009446 9.698055451494733 -0.7342512699246516 0.9807290460400594 0.067278056421368
Ni 2.2865164760859678 3.798315485425438 7.371129829227319 -1.7113236930487303 -0.9389676458325571 0.9123279317578417
Ni 4.443637500899138 4.578904896112351 2.84085849967532 -0.38063896751257026 0.426456282957001 0.04273122031993931
Ni 7.777052227892509 3.8701381446147343 11.873019788162116 1.0926093145518343 -0.656169180909244 0.4089290727065151
Ni 8.507882693156787 0.09062582581676051 2.406371636707859 -0.6314274551881899 -0.9905606874185005 -1.135637497286902
Ni 5.006909502855827 3.5401718837866594 9.472833573976688 0.5485690278300618 -0.283462323759557 -1.3140244912716597
Ni 4.175423746581443 3.1450594102653193 4.950601721687362 -1.3038984585812512 -0.9031100127039995 -0.39251206480107237
Ni 6.511495730662189 5.8666638144465075 12.978949107624521 0.028247424881467482 1.0990774387746811 0.6197135091853714
Ni 1.9925493928327522 7.751345134736046 5.526032808820825 0.4515800746078223 -4.1270733451305635 0.5873883146901046
Ni 2.634736622486294 1.572885720631409 9.23697469312847 -1.1620635526889147 -0.407457373256995 -0.3745472527925356
Ni 4.33745241071365 4.420223702383971 6.966648137437587 1.344455039847375 0.508870423688859 1.1459985288062522
Ni 5.4640426504060855 5.151664479931821 5.067956451377776 -1.0927499538947567 0.8101391795022177 -0.1761997565254514
Ni 3.9653930966308204 5.649910482220796 9.47110158169316 0.4261801464774789 0.21480924136753327 0.13433628352244606
Ni 2.9245517327800665 4.757513710614895 0.9318007519506197 0.3907182061254432 -0.62690874138223 -1.4695314953344498
Ni 8.501687098762963 0.6813443109380882 11.185187672706556 -0.29677806703185666 -0.1816201562100743 -0.1913075587011673
Ni 6.409471860591955 1.4223142825498705 2.118188649414847 0.4259819144237437 0.30099107667193975 -0.2523758867673976
Ni 0.09185014924622657 7.299399641596139 11.813889775039927 -0.5395786514059934 0.20084917964301538 0.8361626001491729
Ni 1.9517601885474445 7.026774993956273 10.163224377445339 -0.39298489067243286 -0.5027293437881277 -0.30219538139268604
Ni 0.17243911214499272 2.915110386696344 10.093928965939375 1.8008073390328598 -2.1437310513828436 -0.8561588407654417
Ni 8.255204160602709 2.770050253478565 6.993432524246109 -0.5083634021454535 1.1496932040490198 -0.5251295658601989
Ni 1.7442632592892213 1.3426130466090254 12.471445777652477 -0.7154598482497614 -0.615777664466075 -1.922012998710619
Ni 8.55051208144862 8.953595603279624 7.288192088752386 -0.29338601063117214 1.5487605534701068 0.6841823782927184
Ni 2.4873554531597835 3.7386250946610624 11.917655809265082 1.2074890320115657 0.08823074741363515 -1.187991071187954
Ni 7.469991172009958 3.859060051952345 9.556840285663451 -1.4779053212204416 0.74784469233837 -1.2979970054951517
Ni 1.3954975306960067 1.4718605433888365 3.070545828734825 -0.9385210452134417 -0.26182931887081357 -0.2247229009368194
P 0.3424138572661735 4.795297589261407 10.916169415833243 0.07399712031275643 1.99920291492906 0.5449831102510162
P 9.04940538464441 2.34723330114544 13.275793905766331 0.49547497621855957 0.11304112158909563 -2.6679651020119666
P 1.5121966370393722 7.26036739691505 0.8581980152675757 -0.28248016235194573 -0.5384249974175243 -1.1438493436737331
P 5.594926893764564 8.448922827701534 8.175031319715469 -0.7842304300562559 -0.6597067617488573 -1.0127755329526429
P 3.2672050913817627 1.8273212127897054 6.630013752553711 0.35245299199665747 1.327397827254772 0.4059964724407524
P 9.257697569302438 4.793762561396669 2.30597526606048 -0.07689346802394499 -0.13467052693341322 0.21361187862532244
P 3.1160418353282764 5.609407939765649 4.73513836769738 0.4212143178317713 -0.26046457731280304 0.3652424304518419
P 5.45298305205532 1.3867959570772186 4.010844716876376 -0.01534768610066389 -0.13120570831326436 1.1025828808247786
Ni 7.487163140352242 8.325796948069053 9.24697641685438 -1.2385132483072216 -0.727865678113282 1.318174508884291
Ni 4.131120623087698 1.500119851549322 11.62384315351392 0.8191138721970022 -1.4312912209063287 -3.0923200223552487
Ni 2.4120651105411084 6.100025038509991 2.7341685147825143 0.3729392848754674 0.996633890195774 -0.3352353425667904
Ni 8.426933091181365 6.454524003706446 0.8186266614026657 1.4891721523835129 1.6856756534633228 -0.2563032468462618
Ni 8.661635152837542 2.482066080035504 1.7369182434280062 0.01858856163546476 -0.9478587776745998 2.4755473409657562
Ni 6.547568885483542 3.1383922109251 5.081747659555311 0.015080291371890158 -1.1879100814383736 0.36864888503022963
Ni 0.8551575504366962 4.7597700166329435 13.085747284240323 -2.6415346757345795 0.09769780636380593 0.9005908458265716
Ni 1.6726810261510285 2.665307719599698 0.7948762664159541 0.5959272053990512 0.6390147806171446 1.751755061590899
Ni 3.178663574484954 8.32622231723639 8.72524818709723 0.5287393946986443 0.08033411827437778 -1.0923478333603316
Ni 0.6770628777972818 5.925817870173806 4.522272539774897 3.743217670452908 -2.456208017207196 2.3670902392029167
Ni 0.08619366403622367 4.6633221815171515 8.093704433782932 0.2309560263307248 0.9985419058517641 -0.4210585089801974
Ni 5.692549117668439 2.347325772703557 13.402365275654242 -2.532630459131993 2.610537970242749 0.2178817096452699
Ni 2.1743669704019477 0.16618248652281198 1.2370133013864162 -0.16318740342618346 2.6916573034225837 -2.286145226817417
Ni 6.451361476418853 5.9395129079309 10.713022348668835 0.47159457005653616 0.16484370808268384 -0.7864156106330328
Ni 2.8288714115966433 8.488454418796454 12.875183073399368 0.015097517763070771 0.34251439272670686 0.23064106619346728
Ni 1.8660390541731975 3.7882175912790865 3.120892893267082 0.02056059776017104 0.7094915464814684 -0.7780978347959567
Ni 5.5595657699407095 1.8895545714022923 7.300414054588679 -0.5230534000574605 1.0105157903841888 -1.0114575854721677
Ni 0.6722340130324239 8.999424507482297 9.23897762707728 0.6053934930182735 0.06914853397120349 1.1023764212409273
Ni 7.746499625090728 4.22988024715641 0.6544332380949454 -1.0276845888539914 0.2708253517218368 0.35684212220328865
Ni 3.570400836135032 8.68400402274599 2.772415675935192 2.2418669737253327 0.3234954284220429 -0.18603191212452475
Ni 5.432870488164922 4.0837104552412296 11.910631669710531 -0.7888825841162865 -0.9632033784514702 -1.2231143972536482
Ni 5.985831911391591 8.382916629517782 2.96227273076706 1.2907866037896416 1.3761086621969139 -0.8171544344777861
Ni 3.887226888554714 1.98614111385526 2.5120324131588254 -0.36655677838789125 0.4107018483362217 -0.10193447015297284
Ni 5.088608124451994 8.044295030849979 12.547372324590997 1.898955345560207 -0.3692893468277059 0.06237547691342806
P 2.8156017430068867 9.003918625206772 10.910756130821088 -0.1679223470080076 0.42218850881958264 -2.9963381702412843
P 4.287748948225885 5.654534060126634 12.584807585463409 -0.5049721170757174 1.0417966027753411 0.6346457050151715
P 8.633089182846895 0.836586487420105 4.334852110499406 1.4898596653688407 0.3378234150089408 -0.6914323749869123
P 0.3091657085452884 1.4945992995297506 7.991670391841304 1.0710989512838844 0.06685639550291711 1.5662831357349025
P 7.230369623461969 8.035214323842911 11.619809544148868 -0.1811275328443719 -0.290384504800687 -1.107224493361848
P 6.072514749970252 2.204947314671164 10.733566754735637 1.8842054409445421 -0.504807309363079 0.22060347945180717
P 6.635370629915416 6.747612607157553 4.322292623475986 0.7099543450504999 0.6240602161898413 -0.8061087181865859
P 6.836376055793842 8.29975695730337 0.8083364264154314 -0.2831226810319511 -0.10737492444225379 0.8564876848597701
