# total energy = -340859.9576254042 ev
CRYSTAL
PRIMVEC
9.41207298237354 0.00000000000000 0.00000000000000
0.00000000000000 9.41207298237354 0.00000000000000
0.00000000000000 0.00000000000000 13.77552019662307
PRIMCOORD
 96 1
Ni 9.154586753887408 4.514858391823868 1.90629770086812 0.8965382730237527 0.059344403396588113 -0.2319764971754392
Ni 8.462131143688957 8.268411860695597 6.025081949883463 -0.379896690029907 0.0926306762535437 -0.11062531305875141
Ni 5.6024234073657375 5.6176521412051725 7.884529175824167 0.846078316600988 0.13410154180382067 0.8984046368085302
Ni 2.015585984537219 5.245508193567699 6.903629299253591 -1.809157510769768 0.2284214328343292 -0.13831403722327149
Ni 0.9478710305944659 6.22151190985195 8.864271367436617 -2.148992814002415 -1.9981060823204557 0.25591963825459796
Ni 3.301152776210237 4.92729542324788 10.861529222551379 -1.1885862815697916 0.6656038439595827 0.6308744108981974
Ni 3.0463114922568693 3.822223952241643 8.884921455226308 0.31845246668149674 -0.30111448962368137 -0.2541018683195688
Ni 9.028624983199421 5.512679292928768 12.257719871028117 -0.8258684173120163 -0.012678366798616872 0.19777876824780777
Ni 1.7093453708575497 7.078641146289435 2.8037040205683335 1.1542111465240315 -0.41237049428789624 1.4481404312531834
Ni 5.180781368713685 6.614211824550811 4.282726557195463 0.7486692451221945 -0.6435417219532207 -1.6509822158461953
Ni 4.232420910332043 4.151524144355562 3.0684966891251837 1.9612215505892805 2.4190488916583948 4.2931550393854065
Ni 7.5355219856181535 5.825809543920221 5.957981400261644 -0.07180268376459892 1.571014993992933 0.5508243995231417
Ni 5.630998460478546 7.75434326684994 6.224799546891576 0.6092912854107828 -0.775930909051625 1.3769458133862285
Ni 1.3397615070299205 1.919705198614891 2.4249320912437593 -0.7124467724550505 0.3192201980854567 -0.41782843207867393
Ni 8.020836696967226 5.1475191033313825 8.836610226595628 0.8448207900448031 0.117310695498727 -0.14778469571786806
Ni 1.3462934855741528 4.267113810784551 12.48381668455773 2.2717218523032363 0.04972796335274662 0.8097992796642957
Ni 3.753675825818523 3.5510056615635426 13.08875507675086 -0.5451317200137386 -0.4017112148018372 0.5393297686199808
Ni 4.066250764512989 1.0835366483704978 13.152577401405884 -1.0398754744932286 -0.6952921150526348 0.3920186701044216
Ni 6.741171274958811 8.635492113150365 1.1252255425577726 0.0715165199827478 0.5517895916498884 2.9855235961242843
Ni 5.4600375695888665 3.425627439391035 11.413101161796675 0.04063011481653648 -0.18443885660579204 -0.17488309459655688
Ni 6.329308379977446 3.584597349494905 8.954638561094951 -1.2136907899469032 0.011203582025303286 1.9891131347932258
Ni 2.8144074297909576 3.0415301592590738 6.548124955172818 0.23122984881740177 -1.5230428369890285 0.39531353880560954
Ni 6.887001931391573 4.831056978558002 2.4684488099746797 -0.359194167375233 0.2547932379596386 0.11974553019246473
Ni 5.712779961301076 7.886997021320274 11.358646673229657 0.22814066836911676 -2.3323692907819638 -0.4630029717327833
P -0.05222665092808546 3.787945182993668 6.345445378845006 0.0548269751422088 -0.0012729531751526464 -1.1920436439907727
P 5.220453255693425 8.489633220499112 13.36349442387478 -2.6524904034151353 -0.15171359845862903 0.8943826601333308
P 4.861043842595356 4.432615699432653 1.1131724420912825 0.9835724290261254 0.8342808097454277 -1.861594645523562
P 8.380810834435113 1.5480506787645945 12.341322607943312 0.08539353507515615 -0.904268808898791 -0.6124635124911776
P 8.195788306736956 7.2683320621114245 11.561918268938495 -0.6373011403601476 2.0313748716759146 -0.7593251821741439
P 8.61317608846971 6.895990460944515 7.682690097600102 -0.09236790951046028 0.21619378041988574 0.5943521476024474
P 2.371051739119389 5.455030346843144 4.217458538153705 1.00829949945916 1.1727925090706446 2.3176381552193766
P 5.180753132495194 5.735547765477586 10.239757338101246 -1.8880613243555227 0.3846326620529956 -1.5216513559581406
Ni 4.022221087812817 1.4943359791220374 8.988802503054396 0.23593522471287107 1.7947410782341222 -0.41473770896849216
Ni 3.2961832017558357 7.254110420064831 5.319789213551759 -2.33149357304523 1.286986770427577 -0.1265288716628853
Ni 3.837396213644096 0.36836688281067065 6.920476909619839 1.7414421097006652 -0.8178977404017139 1.1768995892604828
Ni 2.9505248270628446 -0.0005873133446111001 1.2493152519598112 -1.3671784495868196 -0.32231632051227715 0.6888617860462588
Ni 1.4861286516140106 3.5378005233826233 4.377171060803886 -0.9500866385638541 -0.5837718009834398 1.1067740360879905
Ni 0.384889776664273 0.9406915014395083 0.23943372073015665 -0.006142365452312002 0.2632593664491208 0.6029326901826068
Ni 7.0310348819137465 -0.17497419874452236 12.78759509998499 1.9771557053210336 2.085057963021667 -3.0801818443308178
Ni 4.084086642526419 5.269763105251398 6.065017374902451 1.547804874425057 -2.2346825401617516 -1.0746990099303169
Ni 1.6577013272376602 0.9673822575716903 8.232567863735943 0.5873664603132337 0.3838469329269067 -0.19098874190916784
Ni 1.9440071706627413 9.04864446210948 12.921906320480742 0.48279326698583297 -1.2255181215991344 1.0338017574953227
Ni 8.026963956379754 3.006517248330335 10.815794078254354 0.4227258693802914 0.9929713537425221 -0.4114996616471687
Ni 6.972200014651503 3.7058248475492475 6.535685018513001 1.9591582403023486 -0.1499829889207675 1.533520853702217
Ni 8.2364861096552 3.002931248581988 4.221563143115001 0.1732733269072758 -0.26853475591544723 0.49685488728522176
Ni 6.8504548525914934 6.842294585447619 13.26100448041101 0.19129418896472863 -0.9854645038425158 1.030134850166697
Ni 3.450192949478134 7.863739789356587 11.55419001593753 1.0573528053423853 1.215701906839661 -1.626373673268896
Ni 2.0668535452438963 9.46590988689544 3.6749645431532403 1.380615806038648 -0.031199051310623685 1.056961740551554
Ni 8.75403717044807 8.129546138157261 0.017447159405538402 0.8377340584013507 0.6007899328079911 -1.0417963456650252
Ni 2.18812810366239 4.677037818762872 2.361634019045385 -1.596532164427431 -0.2814193251875992 -3.126131057367423
Ni 4.427824954362028 8.639153409481354 9.109888820016284 1.7260730834437628 -0.264125571104158 -0.37758989627360134
Ni 5.4437829198109275 2.6105701685050184 5.432803736854376 -2.266059768921452 -1.611836141774353 -0.4739075344604289
Ni 8.911943516322117 0.23144381210450982 9.067653084397568 -2.8941627877220997 1.4152115417356466 -0.8695630299864896
Ni 2.57801380858499 0.42908322343169225 10.768544531438938 -1.1433294666145213 -2.6393844621607965 -2.3363645279842857
Ni 4.486989244173332 9.304916381133056 4.78000871914827 0.8269050861066469 0.10919757947328936 -2.006673255164176
Ni 0.31985800065055614 8.713282895092846 2.1113190009161116 -1.0139510413179829 0.9822794212463146 0.3226523636954572
P 4.8424361746098405 3.4065303436183436 7.5220815456164765 -1.6412490477188315 -0.36465261938664295 -1.378722445670677
P 4.157811409006206 8.247997074726664 2.6588126890040353 -0.03026239842896724 -0.08744836072165585 0.5416453041270349
P 6.138666844799596 4.675597771619835 4.618876855915278 0.08136950151742761 -0.8804961319592256 -0.5080237594178476
P 1.1294299154910703 8.609034776424375 9.481455807589258 0.8238251616297425 -0.6674864056942762 0.6634916827125864
P 3.932185199118109 1.6929589520599868 3.73065860171201 0.18131110961008773 0.8541929752883225 -0.44364025093545534
P 2.0679735819107026 0.8122910626811896 6.097320550063344 -2.508879122348666 0.13636231281353933 -1.7152353693983104
P 1.5997700189671265 3.2492169583326085 0.5719481357156254 -0.38025972979628064 -0.8822205708494999 1.027885392010888
P 6.403983765813095 0.27814463507392256 6.070058481110363 0.903666913648734 1.3060399304042862 -1.2500644434799308
Ni 2.720879662076206 7.3279010710544314 9.284797134250994 1.5398118289172513 -0.8206421359160705 0.30306544270246516
Ni 4.747590716698847 5.782824607304214 12.609119610147594 0.14616850027068373 -0.18276558266842718 0.6443161382254
Ni 6.157387457659075 1.9828037348692629 13.501070692435365 0.7274597009241149 1.118011813785339 -0.5836008226232143
Ni 7.0734268579414445 0.4830426369678371 3.5464248057170327 -0.46237356567890053 -0.15225687255660877 -0.1905917635810653
Ni 1.5961181347089677 7.977230563544418 7.118058907302757 -0.2069072129116372 0.431121035422522 0.1330198787038677
Ni 6.09112646493372 2.6778194288775556 3.153422763480319 0.33893850244999046 -0.7384560520346185 -1.1047186962208586
Ni 8.674580451614627 1.4509933837384779 6.554406572579763 -0.40063597945978746 0.5309454012110275 0.9529644743322814
Ni 5.408572355352752 6.628847597801937 1.8146627009995426 0.16698415146445436 -0.06606089618481527 -0.5173069844919865
Ni 9.19190562265957 0.5725749797661238 4.370573197749842 1.060577225816954 -0.14826600622966077 -0.02002915073673325
Ni 0.8941328007698331 6.714205686299984 0.6473953115233589 1.4903931692748076 -1.5275188704825111 -0.7419782062552641
Ni 6.835442596427156 8.050447078091368 9.485575471867083 1.641047987451619 -0.6517623100908001 -1.2416538508187327
Ni 8.727504537139437 3.083508004082239 0.017004791982514016 0.7901681356969295 -0.1996374187231013 0.24690766456397473
Ni 0.1487314572790629 9.090819960462083 11.547646742905902 -1.2995898039035683 0.06902254991630048 -0.9643752872723842
Ni -0.43995510875797883 5.331845137640098 4.1969053947141655 0.9410926625953598 0.22481031844430313 -0.36574096735481526
Ni 4.864761611363328 0.5616908587451578 11.044426504204454 2.9888431474158206 -0.4846655443078814 -0.2822459348539526
Ni 0.7408280173025246 3.2351929698154516 8.542199647256371 -1.009341053349797 0.38261897405707657 -0.6909541497989132
Ni 5.097484524165476 0.8836082209309849 1.6767560686826148 0.7596630251295368 -0.7116070501625745 1.0450238514633874
Ni 1.3908031779886705 1.850545287457802 11.85464785207026 -1.2813336859068578 2.037216932278988 1.3999854688145115
Ni 3.3524203369169148 6.772457005046748 0.7606856085599043 0.29033951049536444 0.4456086875157358 1.360447558620889
Ni 7.042254072727471 4.454931724113309 13.336990026784639 -1.926981398459488 -0.1654520310906441 0.9807652985946334
Ni 6.86352822175279 5.431471928548888 11.210380172348412 2.1635920519728287 -0.14953330297785858 -0.2690500049889689
Ni 3.5529257244209247 2.605026457607968 1.788998802013147 -1.4572881591907225 -1.5714633943842613 -2.5541282239944527
Ni 6.249917545653814 0.5591015975095406 8.177671948953183 0.7507826919207714 0.8742740623089138 0.15626265128189218
Ni 7.267080256424993 7.279777142673076 3.244093967091073 0.8709239148897582 0.3563834373993153 0.5051718917913492
P 7.46714327650598 1.648317490625845 1.387869434887464 -0.11408190414878418 -0.4214089503410807 1.5828505531752806
P 0.7144233881843838 4.222434701059088 10.477495003307382 -0.03517063436386201 0.8529300494154988 -1.0040371246383806
P -0.09199171742884567 7.544595223826569 4.0850062020419395 0.004329480613289318 1.2112058187415207 0.045271984463922034
P 7.975282264468545 2.445002395347104 8.603583303841063 1.2436302578188132 -1.860737696839905 -0.31372446507820806
P 8.26971072674618 6.532515032383754 1.4984179951085412 -0.5142404297515208 -0.4011034060145092 -0.7397012372956293
P 2.6095724887850063 6.495902069073863 12.656686343817396 -2.9361797555838334 -2.935661421186518 0.7871943977805862
P 3.62317743602633 2.174094703072404 11.033102839382313 -0.3986611151216038 3.7576868106033605 0.8283191928453542
P 4.001213341255574 6.966505710589169 7.425335790201043 -1.669926618159182 0.9933279657509925 0.629894306373115
