# total energy = -340896.1966415181 ev
CRYSTAL
PRIMVEC
9.01246764349791 0.00000000000000 0.00000000000000
0.00000000000000 9.01246764349791 0.00000000000000
0.00000000000000 0.00000000000000 13.19065739045586
PRIMCOORD
 96 1
Ni 6.3348816671982835 1.9828330487042212 11.267208842305589 -0.6586240702076399 0.06502962670682348 0.4975308303063238
Ni 4.8043122794643605 0.4835306156354019 5.920428913789159 -0.6303182812844111 -1.1031922322740033 -1.1967302508331648
Ni 2.7449273289570684 1.676102718357421 4.884461057180971 0.02900898563784036 -0.8404090341303526 -1.0825519303158324
Ni 3.5794007384046957 4.155477682512572 5.006553860208564 0.13117434085469665 0.6552638954861555 -0.37558546424906286
Ni 5.068386599541094 4.695558830081542 2.7397127150668803 0.9465539428202473 -1.0690137866200815 -0.7393713647600363
Ni 7.076148134281023 6.337251946239278 2.7643528021318198 1.1838053152413806 -1.5675663733227005 -0.8398135666381987
Ni 5.447919645070989 4.319648796621912 11.989806883511841 -0.7798868083755793 -0.32246261628215434 -0.9570491859246163
Ni 5.571796015483423 7.765115250508662 12.442628416241217 -0.7565388776782583 0.32587652705970976 -0.05391757595406198
Ni 1.7640553919736406 6.419481702779332 0.4821327818739637 0.6441533873952906 -0.6207326944785051 -0.44436401647535734
Ni 2.715925207459272 1.6335818951049028 0.29237617282363637 0.005329896853345659 -0.9178902563369676 0.7206802161084362
Ni 0.6081775520478546 -0.0348575218511582 4.639603121025182 0.2618012938463556 0.631201712330629 0.5400468492916635
Ni 8.707404812684112 2.299224744571729 1.2350532711160567 -0.49036002358949743 -0.6180165810989228 0.5505084109446197
Ni 7.053932401064096 0.5405777345467604 4.621874695544039 -0.911472782846398 0.32558470685090374 -0.48348206552274153
Ni 0.9000958915053978 7.385591217446604 2.55307802487511 -0.4536392711296962 -0.2924652985891157 0.057266694931952994
Ni 7.593166376656438 3.739453154712765 3.7257542036013134 0.007307846515322898 0.9191156441036364 -0.5568281825150604
Ni 7.727461159887844 3.781550391976968 12.631584718147666 -0.06961518919497688 -0.13740360959386014 -0.6504379348524217
Ni 7.93326086293389 9.053474565137154 6.677981811499203 0.42716385054698686 -0.5450497018228935 1.4674337322651567
Ni 6.7369458823193815 0.7738167971677583 0.2701541308792248 0.4958182184905913 -0.6571104617765908 0.002721769806537248
Ni 1.7909846458690466 6.649272595206093 9.180420582094694 -0.2519303145895468 -1.0883011740947837 0.3227534080496957
Ni 9.075194612623074 4.693639174432371 1.4401563103983441 -0.3036645097390448 0.935328506418073 0.2520185034279789
Ni 6.352627216368315 2.0082391955352614 6.948310784254455 0.9091577615599762 0.221612894552928 0.04885198850569651
Ni 3.449188603103216 4.117508155517476 0.6651913248282181 0.10664833068887439 1.6631710446029035 -1.344471237797291
Ni 5.854958742437825 5.664831720959418 4.869700437358382 0.6996200530040274 -0.05270067282782537 0.5621724775461092
Ni 5.384498908905672 2.793648730081085 8.995606410405891 -0.1414528399625693 -0.20822670305400912 0.8106374592948749
P 0.16140608897710848 5.456256177819734 12.371979680871041 -0.012375490846217396 0.06483705108004317 1.0702718273968987
P 4.041487989316758 5.913918307024085 12.58477125646463 -0.2800075324417371 0.5135760566946446 0.05040184949131965
P 2.462359424879874 8.351087884300993 1.3281809037639838 -0.19840791719137443 0.8829271099982213 -0.39192353928745405
P 6.329663448320961 7.743719651864855 5.680398055406589 0.0867950434083731 -0.361593520845345 0.6534985760556165
P 4.680165535016831 1.0437068627393742 12.484271425126462 -0.12132958685013298 -0.6690959162732412 -1.0754824250635606
P 3.8231789809136747 6.110281956245336 8.277454219583376 0.3459303603867913 0.39430438081480484 -0.0030688687333108437
P 4.628983730173455 1.1351203240048027 3.708659354609076 -0.112270047751026 -0.9878409744944923 -0.2911535217562276
P 0.1931903592960266 5.510619383809389 3.576185089880639 0.326758672554347 -0.3760526336934685 -0.03646415636430494
Ni 1.357349755916755 0.9508243692165993 2.513651181830856 0.9972244725919213 0.8937931061784478 -0.8357699926964444
Ni 1.820734802197271 6.686773473873691 4.740313844110723 0.7110370365917174 -0.9323208299400007 0.12480494699324311
Ni 5.658153482292586 5.525760329774678 9.454377073154129 0.4581795822022109 0.03552184705569366 -0.354815321581247
Ni 8.497414312094103 2.2107403353531567 10.291747089764401 0.8778975179941139 1.1504699343140443 -0.6178211772586649
Ni 2.2597771728514506 5.485411511270752 6.878149623394234 -0.015487811222953972 -0.9395749403992527 0.6040449494101792
Ni 0.3727178173519477 0.058196208560509825 9.06485731201463 0.904428731515423 -0.676301432882745 0.3670074927720647
Ni 1.4873906543293418 1.113643613150468 11.444768878632807 -0.2401754880464638 0.6815364560294392 -0.8664334832185723
Ni 4.035278398977423 6.782945518156781 1.6317766977972556 0.3585382789587889 0.0814314651036146 -0.29423781710850616
Ni 5.669383017216841 7.6745489612198625 8.057829390876165 -0.7006068423973288 0.295295311838743 -0.4209790618925137
Ni 5.59869823197532 2.786763204654014 4.714129921305394 -0.6922625841976917 0.35795283876896417 0.12706031868632311
Ni 0.8371978784745957 7.499409673753524 6.9344081513699 -0.616245605241429 0.13941729758977928 0.10398132537967254
Ni 4.992681869714653 4.544230482639187 7.230696636481353 0.6498144423358099 0.03347473471867783 -1.19051435183044
Ni 8.058245766890211 7.098877578164628 9.266225584625479 -0.004965828645707577 -0.1982374530517812 -0.1016292802077282
Ni 4.48400917255582 0.38767040273945363 10.16737232988061 0.6457145612348234 -1.0288030187291508 1.4937983383016145
Ni 8.278186031971698 7.135405110305887 4.632888832487003 -0.6557374926884642 -0.12343326345669711 1.0418739929804959
Ni 7.451805818641231 6.324048680858833 6.992116785420456 -0.15508842846813292 -0.8805763503778576 -0.5067202101150758
Ni 2.344088809461732 5.144361703402631 2.6061966090565463 -0.6791563858330368 -0.049892256844752784 0.6558714471631673
Ni 2.3041816018817936 5.277142392037508 11.301860879890075 0.731842660483159 -0.22068086965696188 0.12943267557324162
Ni 0.9945979254983883 3.272697445461405 3.7702063987111893 0.49411229154307806 0.2886225278042578 -0.6524433953182247
Ni 3.6468590601607573 2.804968389683706 2.7085692312111362 -0.8061012619874183 -0.7134106790302165 0.2583742704426776
Ni 1.1606616578533904 3.3710234695574144 8.111040803476318 -0.9030992140707221 0.6033723488231867 0.36032288166303755
Ni 3.488528025209456 2.5546020331862587 7.000255945123582 1.2438346605201351 0.36292072429720074 -0.11990673836067736
Ni 4.115237013622684 6.951821140476765 6.130054409431793 -0.04054244019873663 0.3358485506707571 -0.5035940057812682
Ni 0.8421367108489874 7.2591462937007725 11.549924550855302 -0.36322077203612285 0.9749798022611079 -0.8924946990819983
P 0.22151924944643783 5.52593156666357 8.153580552911293 -0.057438958843759144 0.5252964304553662 -1.348104463674504
P 8.524253441311144 1.7198312123000277 8.105856831976775 -1.0775789025812732 0.5247958366698638 -1.2447510016868175
P 1.793805548301865 3.253158415191914 10.344891810102563 0.12290130221262703 -0.6853296045232843 -0.6950828272553061
P 3.916710372120676 6.054449717998335 3.8719193082201486 -0.8623030059899666 1.213252416857904 0.4398008225847071
P 6.885101841083295 3.9622864219697616 10.293751462611235 -0.2235031695971054 -0.437151557887318 0.8659974241224183
P 6.116067960596357 7.716601136144884 10.220636014794213 0.6502574434104995 0.12010188509061896 0.33823170619095294
P 2.4559515602481365 8.607753955816142 5.757840389031903 0.06686796546714291 -0.001809285294596884 0.9229764126106234
P 6.955543289693232 3.8642487968445196 1.559531854373239 -0.9030614188542512 -0.3747413710812127 0.2750892692045133
Ni 5.151121054279992 2.599069549491457 0.6534192393402064 0.7248155784330486 0.9858077461145475 -0.04876431388789666
Ni 1.3012922059738423 1.2376641830482853 6.906733566384417 0.47106852234973706 -0.5979336943061185 -0.020703808206254663
Ni 6.818977364567032 0.6611086768982921 9.194033914761699 -0.2551164256270122 -0.3854934673913942 -0.6468936691445891
Ni 2.9508171566814805 1.6402691462395718 9.057919514274106 -1.881640251320527 0.06810852274246335 0.7153894000231421
Ni 6.364100087924156 1.7937785108983555 2.549239614823553 1.0273773420262178 0.32099065972231816 0.09729337183653566
Ni 3.969171947396833 6.901243170978432 10.485490814585589 0.18487234459878482 0.22429326959856855 -0.4786581617715369
Ni 8.148721931500646 7.1457063610429845 0.22726289519862727 -0.5079309425937252 -0.17199625996706505 0.9335773280549213
Ni 7.553908066760726 3.9010376905530353 8.151153495322928 0.7661584030458934 0.01215977529098551 -0.025363418465453095
Ni 3.075126125550065 8.25897145054432 12.234955021131967 0.1463515628157673 0.49941236359975283 1.3973071506513999
Ni 0.0864620114360657 4.791658774621941 10.279031398893911 -0.5474441701969991 -0.5393279688477679 -0.6125591575287773
Ni 8.546667448820472 2.409924887007227 5.588578131841735 -0.22446296240721345 -0.4442362326482414 0.7515059432400413
Ni 3.609141882265084 2.7452517777991816 11.433371711806792 0.5986327772556722 0.1733931403145917 -0.2138803017953607
Ni 1.2433510502531049 3.476442305840735 12.471476424539011 -0.8029966549201655 -0.4437742054101583 0.7124825107889923
Ni 2.9877772872788895 8.373583004020851 8.036566275509557 0.5133361727696966 0.019325182691173167 -0.38129074216395625
Ni 5.505437214803412 7.880745212850715 3.551795549421554 -1.0838901895112816 0.7077719926872004 0.5274718408401303
Ni 2.980305951442447 8.484003759953417 3.537352168466809 1.183575972839394 -0.03451731705057926 0.09248720869714394
Ni 3.4046489870553263 4.055989050065656 8.999695367063303 -0.6003543879324693 1.036715588708008 0.8265405036783764
Ni 7.143074720434732 6.192547762656736 11.441471216651438 0.5144458608941076 -1.331829894884197 -0.3099344019081566
Ni 0.5818196886132818 -0.018179048872966157 0.24931009526701117 0.4043126569804263 -0.028702253030698954 0.43171341759088233
Ni 4.620394848325289 0.3127758937715115 1.4703886337558203 -1.0384302574062698 -0.5756905666372021 0.5045437712890471
Ni 6.0785310320574135 5.629043211180752 0.6339270739034649 -0.050883417113428496 0.468557068781793 -0.3118295620483404
Ni 7.9855512013211545 8.748096104965827 11.235960813822942 -0.5288995744255923 0.06973937347766698 0.2884212104267291
Ni 0.18215188868990445 4.793073732072268 5.830297025450078 -1.186430925789686 0.5387067903240013 -0.14592373124972932
Ni 7.963659916946343 8.710081515631549 2.2919688067165778 0.07118047679956772 0.40289392225602866 0.11723819038957874
P 8.574606099113565 1.5049739790783168 3.465871582315326 -0.9879597594605435 0.9362870136766005 0.21678102038192343
P 1.710061697165282 3.177003061973648 1.539428643617184 0.7270218420557478 -0.35808730746429945 0.6657393410961825
P 4.74702002142785 0.7728831054998989 8.012466936514805 0.6106429143426709 1.4377927694702721 0.9051383559879379
P 8.456110171999509 1.5484861737928477 12.369262421818343 0.04154259932847684 0.2135745976294838 -0.07815510834518798
P 6.209211815686389 7.8005522740417055 1.38125983308694 0.5790399427254093 -0.45710537530142564 -0.021625034468943403
P 1.7890379528163665 3.3608303684343546 5.914084136432276 -0.2697362324227161 -0.26625932961770915 0.11258166545417385
P 6.89054537165653 4.037044842673373 5.9902466996248105 0.19707917107762188 0.4029196332876416 0.16611691836815262
P 2.175798997551119 8.485112293497306 10.24159631124152 0.8535139469434269 0.5979786886114411 -0.7142180054228603
