# total energy = -340890.77611548436 ev
CRYSTAL
PRIMVEC
9.06019228099968 0.00000000000000 0.00000000000000

0.00000000000000 9.06019228099968 0.00000000000000

0.00000000000000 0.00000000000000 13.26050722151056

PRIMCOORD
 96 1
Ni 6.282409761472835 1.8419098961623501 11.141465138448476 0.13132783571342543 -0.07731692871460878 1.9565624545507145
Ni 4.691639333240283 0.5209846087008916 6.0177506747240015 0.5371888110175781 -1.5081972873357639 0.7569983338131803
Ni 2.91542489080855 1.6087186690049078 5.056761455314805 -0.524930048254883 1.6001155109033154 -1.3512527794954985
Ni 3.5956731822922676 4.2033674545407385 4.885369799236737 0.09730185647696792 0.22086856018773574 -1.541542181344797
Ni 4.764320195166501 4.666017109664199 2.2582510968508465 0.5074192930646294 0.42627630573571096 0.5488019697764742
Ni 7.237526164290086 6.232859570264347 2.530051427101331 0.48913823536725437 -1.6983851306101911 -0.9121906348490291
Ni 5.365944138632802 4.484160931581046 11.721983364156472 -1.5564496945842485 -1.7000411781563753 -1.5405211962794503
Ni 5.481398167992787 7.917819756734866 12.418027194742928 -0.38639695304227 -0.08378736693030087 -0.41429779321759613
Ni 1.650585817217455 6.518491189945967 0.27770123343828657 1.1749391231000024 -0.18316950297506518 0.9953200564803568
Ni 2.70818205414683 1.8170034277710296 0.5391983131050646 0.2576656744114272 -1.6015167621262159 -0.21873891543924268
Ni 0.7432057551278098 0.24646531476752745 4.800647941860514 0.09096640117724335 -1.0401451832148472 -0.232543939643135
Ni 8.726197286483426 2.37195832115232 1.492735524419731 -1.010558470696666 -0.17130000523098884 -0.14146132460300154
Ni 6.862932517276937 0.5659222560541513 4.744106000321875 0.7671318227027563 0.17025999400224873 0.27594390389532475
Ni 0.5574899351622625 7.310143604870818 2.4316323711387136 0.5753354972906285 0.7127303651337402 -0.26427289531529974
Ni 7.808798463845538 3.703616312308344 3.963207127533676 -0.24792222187141819 -0.4513743863549194 -1.2059144884355941
Ni 7.467256398022471 3.778154513638061 12.847216654007537 0.7903776806045743 0.061445508899990946 -0.7344762414512641
Ni 8.278460707741237 9.015471103434349 6.723249721903103 -0.4244829612807141 -0.36750243013061223 0.7960248515880226
Ni 6.783746437342363 0.7118919188040258 0.49421898886762883 -1.0274580746654822 0.4821571760637309 -0.5193222151498025
Ni 1.8168584646956343 6.409207151482486 9.023947819268077 0.6598517719671539 0.24401620194879264 -0.05015708047036523
Ni 0.0291674767887153 4.757189823895504 1.420518544334777 -0.7397089506051132 0.8010487871651752 -0.12182812375310631
Ni 6.46997386064967 1.6399491515603395 7.138131325626214 0.6850660664492524 0.908239620621081 -0.333417058411129
Ni 3.1102552641395635 4.128358123215986 0.35548117154152736 1.0693074066011004 1.9088939448301578 -0.744845243390414
Ni 6.159770999688581 5.404495256495686 4.5639350179901905 -1.0488259988182969 0.29056113958786733 0.9163576217425251
Ni 5.47633352054617 2.7911643546183122 9.12615947169072 -0.8824231737786092 0.7374088417170268 -0.0976417563148899
P 0.29237783880281926 5.489778845789066 12.111179322958014 -2.4108900099966863 0.01867237959852268 1.849868101115253
P 3.9434849011261726 6.057282105384245 12.60424494935703 -0.6027984785975876 0.1015125521242058 0.17553589768920735
P 2.209291630174594 8.472113256084667 1.4025639614278727 -0.16443078891498134 -0.24102729452379779 -0.3724104089551909
P 6.662647908234182 7.668075558405745 5.957667104049617 -0.9122448851257322 0.07856468507878081 -0.04370978218312472
P 4.762770902298215 0.9378204958841737 12.67025569777663 -0.39590566386365367 0.585461787091353 -0.22904106869619906
P 4.143543005363623 6.201764990592098 8.24021129427902 -0.37758423984664646 -0.7736063746835065 -0.6190841031314885
P 4.842029463770487 0.6441515796911169 3.7421284713447154 0.5374258667290487 1.885950705770423 1.6686107275612359
P 0.016741423169691586 5.604417457849953 3.58752444541662 1.2871459217132606 -1.282689942824436 -0.28708989320981526
Ni 1.406612961327502 1.0779726092145987 2.559980866055092 0.2943560878539253 0.7736853075505579 -0.1509741491894432
Ni 1.9993216756570042 6.689185211223697 4.607535380972931 -0.10649072206508757 0.1701329815060812 0.8925029266121146
Ni 6.165642004242082 5.491772088075749 9.263087062612826 -0.19700358064468007 0.1784895810008926 0.554831978020638
Ni 8.957766739234886 2.4241540884867683 10.28197181627716 -0.8995351508685476 0.1101512016358103 0.3239011485008938
Ni 2.5682564456217096 5.1962739190750495 6.641127233672558 -0.9122513128836354 2.0947343097691666 2.3995725281013383
Ni 0.5019264943825421 9.028264094837967 9.178963177922606 0.5376228132312031 -0.5251815021440568 0.15859258496664946
Ni 1.4355421550610368 0.9960231706553063 11.431471924949365 -0.04432941804499462 0.8922874681671987 0.20535092416811085
Ni 4.058612763566519 7.23601311219065 1.3438330774507692 0.1812990254252297 -1.185761667636803 0.09876892794079764
Ni 5.674425563073575 7.904446913029668 8.113520814537472 0.18487774391542353 -0.6521063236937802 -0.710990242514182
Ni 5.322373674284362 2.6844624709353067 5.001810483528629 0.3747765951945223 -0.24863698855025565 -0.0920866308246156
Ni 0.9708811372664687 7.381954688344667 6.842474603261803 0.3689373628049259 0.25404530405002057 -0.2777483040939152
Ni 4.969578849733749 4.428368267938357 6.942127657403722 0.5218773774714883 0.5048445903589177 0.23468772545901515
Ni 8.086828582261127 7.306157120297454 8.661511138165249 -0.2177402989713992 -0.5543444968612583 0.3661340890281759
Ni 4.2989162416105335 0.20685959053114375 10.431656157834032 -0.08469933722160897 -0.02129001972702785 0.5923662275206703
Ni 8.400573978377185 7.244910220943024 4.704416922317139 -0.6289144589583491 1.270537109511986 0.2644438736755252
Ni 7.017979586604208 5.759083999104312 7.082821570228436 -0.019501046147405127 0.699131543403383 -0.8826890258454863
Ni 2.190129323645804 5.407548541271195 2.5647275007550605 0.6353216480362736 -0.22794783563202034 -0.4585133113925458
Ni 2.16289438585595 5.790468504927351 11.304091964580468 1.1800862145185804 -0.6620945452547435 -0.6949825542320159
Ni 1.2992587438052186 3.503132379036921 3.915960037185528 -0.43069937450407114 -0.36223449686345355 0.4812166665273325
Ni 3.688141504009917 2.565456846228142 2.8246073361119617 -0.43363763119678866 0.07698371374490613 0.20181128644596857
Ni 1.4283302420601305 3.6487568484635107 8.400743403971552 -0.37499719584576063 -0.11743642244331387 -0.20267080623278644
Ni 3.6683087432574246 2.6200898052676704 7.418458202767595 -0.6915478175188541 -0.8371342200338228 -0.31464466289963233
Ni 4.2654750721553265 6.828929615904573 6.10890345653244 0.7382123114549286 0.6002764835066823 -0.8659904821438827
Ni 0.5827941459916984 7.7273110950890675 11.663915686249302 -0.4068307954165897 -1.3264110378614704 -0.5133544276021417
P 0.19227811718483914 5.558301079489887 7.863056330927481 -0.35531848646991065 0.24425274343963096 -0.28965611127509466
P 8.77303848022047 1.7386237049433417 8.182316666043102 -0.10352006947253785 -0.46547431609141127 -0.7216325527193767
P 1.954845192087345 3.246049425015923 10.580120997519145 0.1759184778396067 0.05408521188017782 -0.063079187848672
P 3.9926998652228094 6.133360539390036 3.7753857188980153 0.6950594302165385 0.06524662781363602 -0.24523413351629383
P 7.0016440600456225 3.7353179248588093 10.4327306966304 -0.05870522715069244 1.3061522876124345 -0.2326275004958768
P 6.408165229378084 7.835381067796114 10.228995966393242 0.08409384242712614 -1.6252994663681106 0.6334028337470059
P 2.729473505845485 8.633294075539593 5.6662940405631295 -1.1353575041526383 -1.5532270738818927 1.5964048948209475
P 6.8579403513680175 3.806078026036043 1.6572849233391511 -0.2776886545005734 1.3945159610595081 0.8270498392146273
Ni 5.205107606481938 2.8508347805278205 0.5510997815950023 -0.07833637111805863 -0.053247803580547 -0.4243001558459467
Ni 1.4977313144055346 1.123962144883694 6.940429777383157 0.3309027766297076 0.11110919467370542 1.1861324207126605
Ni 7.0855595603149615 0.5684699821042202 9.231090087796241 0.08558353959877518 0.5925076381945408 -0.09100342506276585
Ni 2.3975896049206167 1.4350257241049416 9.261681826800713 1.0593284410115176 0.5628592192004888 0.019952788972843055
Ni 6.292312551560763 1.9752396847569933 2.7498045771696478 0.8460670037470784 0.38377365648681 -0.20822053240642205
Ni 4.327863555728492 6.774387258787167 10.38678283784548 0.0045436535066244324 0.931161519524577 0.7075341656447814
Ni 8.340894492275464 7.147277589664424 0.26710352660768355 -1.3663780651727113 -0.5926431353311405 0.5981581516120988
Ni 7.659694880609466 3.7098497245503332 8.247704073238502 0.8408515209844099 -0.6231454176850559 -0.3914573982843129
Ni 2.898654475023779 8.613887143821074 12.58367740701613 1.3205661490449194 -0.4923150904333392 0.3137956846357757
Ni 8.902128098859805 4.969424826466143 9.994762817131397 -0.12482217338442374 0.30875400844681017 0.5548723443402701
Ni 8.6848646896114 2.258714978692111 5.913191526499179 -0.04823698062951692 1.2152488784626425 -0.28402513824156245
Ni 3.7389148211670507 2.5358209575020565 11.58612940601151 -0.04507940883714172 0.3005629879955856 -0.41679484860783705
Ni 1.0430727488132283 3.1831535706788743 12.758994844379743 -1.0992522737896486 0.5484268458252426 -1.263079110572044
Ni 3.1895319459962588 8.342081377455262 8.054206454181903 -0.2507236958759553 0.06230168625269914 -0.15067435856083727
Ni 5.884622022396469 7.765889393528589 3.555924307018931 -1.477003892452095 -0.22320852117482204 0.17182039651083314
Ni 2.9943119844001203 8.632514899009344 3.416225203299116 0.5497363086652854 -0.9288297860676068 0.5433872265188061
Ni 3.6445438590848402 4.610260686790358 9.661035167091347 -0.3213853240575755 -1.4768051461777278 -0.2520691541602562
Ni 7.086293435884149 6.0468991251090705 11.597149317799202 1.9586252506170139 0.9213730726792455 -1.697059212709916
Ni 0.46553079624693855 0.18166682006591783 0.25695520531080535 -0.0804377337317776 0.32856435830451797 0.9036815689367532
Ni 4.53679158814168 0.5452269650030583 1.6846548579929672 -0.28897142650324426 -0.6983913228032488 -1.4984240099990838
Ni 5.898375394174579 5.720378857973821 0.23067611779933744 0.3785442897670706 0.25268981846339056 3.0757996561027223
Ni 7.725390334340083 8.94910519548003 11.606073607128213 -0.06288352689809815 -0.5839111547747814 -0.3849455653077241
Ni -0.18394455238806334 5.0451952139367195 5.703649213054005 0.8915498186702259 -0.8580406311691868 0.6375487375945794
Ni 7.908351855873122 -0.06659694285573006 2.374731645988473 0.4472310536105072 -0.1996821559181077 0.8940666715548086
P 8.688071997654516 1.6441893215156462 3.6269081949438053 -1.4973886267560341 0.15250626956325347 0.6127327069921641
P 1.7010692082237986 3.36816269565187 1.760531249712426 0.6459562449319843 -0.6994609017183437 -0.15034217203239916
P 4.829934107167207 0.8438907651626976 8.419507062043005 -0.8501679132893294 1.0120736217896118 -0.7472880485039517
P 8.27425677855478 1.7239190129829511 12.534799482069786 1.2072365496811273 0.8206290232899479 -0.6501777392124996
P 6.334360903617554 7.7325478861877155 1.2080679091894886 0.1619393899516953 -0.09074374364347597 0.7660835839439
P 1.8265075694016208 3.379515116493749 6.132573208686797 -0.13623170077294602 -2.4700402951045977 -0.6230076065556109
P 6.926299501609019 3.6890928241921968 6.114778085162826 -0.40888819216625066 0.6067908875864323 -0.7178409468874283
P 2.1811597333557327 8.167364630835317 10.4853214883453 1.8692765875488517 0.5000368845576292 -2.1132843048572125
