# total energy = -381173.66199329746 ev
CRYSTAL
PRIMVEC
9.18736644092228 0.00000000000000 0.00000000000000

0.00000000000000 9.18736644092228 0.00000000000000

0.00000000000000 0.00000000000000 13.44663945952179

PRIMCOORD
 96 1
Ni 5.588821854651182 0.547906039071218 4.420972556905555 -2.359258916083956 3.072633856780231 -1.378464306913284
Ni 0.703302988377074 1.851575846233086 9.230364906882805 -0.11188772471094278 -0.673518470820969 -0.40570799466605617
Ni 8.014819397532648 1.3479703682204995 10.797046039809617 1.9200846713396547 0.0788603619423287 0.034631731141256485
Ni 5.831745004229415 8.393302135327167 6.918941170353604 0.7086978469355794 -0.7057765595237264 2.3746451687320396
Ni 1.5846736708843012 0.05695432051985089 3.086742813567217 -0.8561912366652737 1.2180338974069476 -0.7644568469737545
Ni 1.1023553203469525 2.483905512012422 4.289517883905471 -2.673216837329209 -0.27509209741799073 -0.4990830052847921
Ni 4.043166927999654 4.366451969690923 8.442767833660973 -1.526400440607352 -0.6698945009151367 -0.32140769265507874
Ni 2.729897241899989 5.807609793233536 0.1548163077622931 0.5941343751646865 1.9833078409653582 -1.2348293716977314
Ni 7.5387943928392955 2.6135668111311237 8.742372438983045 0.22899530305992818 -0.06501317164659126 -0.999675248125259
Ni 1.324680394914618 7.498765038325005 12.219068417040004 0.360883639262514 -0.003723471598174233 1.6808414652994728
Ni 7.142809722442133 8.508043151744191 0.5051847862616126 0.08504746458964708 0.09169813713694529 -0.10100964434585828
Ni 4.933413524988464 0.2652319121744224 0.49839532264305375 0.12038650621057331 0.5190121401085512 -0.0892869565922914
Ni 8.854269046825909 6.81865188096228 8.180975671390188 0.8607767991534272 0.7735690936876678 -1.890063956607848
Ni 7.939069563249811 6.335570979030696 3.9805412463272507 -1.6479334017175427 1.8754405502677187 0.879315224277247
Ni 4.716453872279038 5.449761879914368 5.666091279302775 -0.5795161110308794 0.03468058210132091 0.37582354840179794
Ni 3.4978875569237626 8.406706502606568 12.39047251446848 0.21828691550348855 -0.1036167429514022 -0.6238313880084869
Ni 3.2202177883937178 1.7585997003334717 3.877391929839233 0.874744574187429 -0.4414188178041043 0.2957725085854777
Ni 5.483314141260751 7.632009410259996 4.946292374921476 -0.9843594437037949 -2.655461827338633 -1.0083753470024182
Ni 4.744714210696746 5.89996119823185 10.145650751701144 -2.226319770019353 1.586650386537345 2.176184286815542
Ni 2.076510132800306 4.771091139044355 3.395101141400471 -0.4456585669170647 -1.0167756552509715 -0.740860290600737
Ni 5.123288822153221 3.364799370214097 13.10561893660832 1.375075078726077 0.483596993834051 1.0017593843477974
Ni 4.076186322106691 8.4164818602387 8.57828332251952 0.6182446379493288 1.0704435770880727 2.087968966020875
Ni 1.826558648082429 5.497618870427321 7.424561437772889 0.2469755416874327 -0.5119590899165118 -1.2860233780730432
Ni 0.7377850111824528 6.469927022275356 1.1213364189070911 -1.4997812953579268 2.5362063494087095 0.6296109708047415
P 8.412770164295672 5.15626227942928 9.24412023155088 0.47964880781958036 -2.0782687080139755 1.3823461584661934
Ni 4.090582924935219 4.706026211647016 1.6238835123339428 0.6947398420935905 -0.2917932122227555 -0.04395069454933721
P 7.978593612623341 7.145786429089512 6.1582915609201265 1.623052836425779 2.737668994266008 -0.15204372810453815
Ni 8.304377617919817 8.944185799782383 2.96103024443939 0.851372989341024 -0.1397433134706303 -1.915252540058334
P 7.787523957853156 2.9877131120813116 6.20614855143308 0.3787224672161477 2.9889696456913555 -0.2549323346406642
P 2.786298482974864 5.459858795363347 11.276579699653075 1.5660630493042964 1.7068692568218025 -1.2367376444640379
P 6.504655266494777 0.9948723232244632 2.19665607675021 -0.05135392899194382 0.7192416838896968 -0.23005511178301022
Ni 7.054509945936085 1.9043480776606934 0.199128812396979 0.3936358939928705 0.2081238589275577 0.48539110961999626
Ni 6.889045480753076 6.996739787298065 9.841514018634772 -0.2462085816144211 -0.19752011526978241 0.026134749413838858
Ni 2.532111622440809 1.3047070608053528 0.6376702817488461 -0.687984268537312 -0.2939585953051905 1.7950254422437601
Ni 7.518150380997751 6.247115017299324 1.642453016888518 0.2643230318269448 0.06101819155458523 -0.1901374496524661
Ni 1.6222132491595804 4.212811644801668 9.582613120505748 0.2067694017821923 1.1192868238430207 -0.9802641905884989
Ni 4.920073469272432 1.8269077679978623 8.397627547332062 -0.8370388321065391 -0.3068387937019683 0.7280194300823268
Ni 0.5297288350531956 3.423635263330809 7.416426943743292 -0.9683931501825257 0.6978382785132563 -0.4714883834959751
Ni 2.2958585007205925 6.767083194506299 9.274335641495016 0.5501078330720914 0.5606138748097377 0.9271876224784935
Ni 5.667971014426398 7.204548823276659 12.292742825299253 0.24306592222038143 -0.2248578838527869 -0.18955792299991223
Ni 4.545284052688552 2.351432878837862 1.8883381733282165 0.2045302280390284 -0.7511740138219192 -0.04572655550283738
Ni 3.7741240963272915 0.7374156790613892 6.389614741939777 2.5285262071556325 -0.7303743034677487 -1.4149572596329953
Ni 2.055461876846154 0.4335049552034314 7.509114606344364 -2.9560770087283927 -0.687106751028365 2.235606080417285
Ni 2.5141778836269704 8.113905141952348 1.164578595379988 -0.8814032171545272 -0.19929417645106967 -0.7908520491378315
Ni 8.28338448616284 9.073295856929349 7.5459577822620165 -0.2582572852488391 -1.2116573044566423 1.332410707088331
Ni 1.9100350573357787 2.6021377275837794 11.127752635913703 -0.2158068293941122 0.13405937571197557 0.7075670757652459
Ni 1.1448468890016676 4.409356969824441 1.0790010354777015 -0.8241802309763162 -1.7547712227094039 0.814264771634817
Ni 5.759826301650147 3.6262534374088826 6.992803919619863 0.05130070715650519 -0.6154313368702499 -0.11920328453574953
Ni 0.19665557341711967 6.845184994535214 10.461821097010528 -1.0493661875924831 -0.18784196875007003 -0.5095358251869999
Ni 6.539677506432459 4.912549016358225 11.625076711658346 0.055952089885587517 0.5857271249375977 1.1202103640985543
Ni 1.1724457370532926 0.6236668981934911 12.114628275601502 -1.1769898349814438 -0.5011116056790467 1.4136434259175783
Ni 3.6994491838893397 1.663051091899085 12.190373516201243 1.2535611437792797 -0.7370105778373436 -0.18601725683650544
Ni 0.26866706839496246 9.051613672707699 0.8646239514058619 0.5198202378321435 0.04085277235030384 -0.6804722764309828
Ni 2.3738041155241825 0.39699803688853924 10.38653338724733 2.0119663852423155 -1.1705240247514421 -2.1667167136447394
Ni 0.15158786728115428 4.937263031424426 5.289410184019217 0.9652787729232601 -0.127132052464523 1.4385214201061804
Ni 1.2241062971712304 7.568157215200478 6.186503206296998 -1.289286107984715 0.03408074373379292 0.38802266157115106
P 2.49584908806672 2.6304899396634447 7.801013767638176 0.7567741336175161 0.6071433858298446 0.6841008743225057
Ni 2.734729796518882 3.569916507897377 13.214482794870008 0.5498928888478077 -0.872403070538446 -0.32029080544181615
P 4.563061606277065 2.443756721737588 5.57016231390789 1.1622540714331662 1.2736448019030324 -0.9017591551030599
Ni 3.990569256529764 9.13422646953866 2.5841755079347344 0.5881354772687742 -0.21999721332637592 -0.0319608691773127
P 8.388993260581424 8.763360058320306 12.16369524224242 0.37439041549969715 -0.13490115488698057 0.09754713971855458
P 2.3337839483760874 5.857901435788327 5.2211149786675 0.5867218847506992 0.6452646181815984 0.9250196682928973
P 1.5554119095512704 0.3796008402605244 5.28938354065725 0.7817878820530343 0.4072347157232277 -0.8914333476970195
Ni 8.833239165604148 4.50293029452677 3.143300239867417 -0.12614166352679568 -1.3354767476081646 -2.078967533853213
Ni 2.5521676428458346 3.5790854993606 5.554846974459801 0.8695478604778379 0.8233407657941563 2.1820967956452355
Ni 0.9984645834069483 5.101707698959723 12.069313429314876 -0.977385326378807 0.5144929120819591 1.8919015240372192
Ni 9.045981817229787 3.6065649116516814 11.126220183232274 -3.643158048725145 -0.7888003088151254 -2.276717505745615
Ni 6.120136429109741 2.882168649226097 10.639491896921031 -0.12779411152855408 -2.2187807813298304 0.4359187139214815
Ni 4.348040487834912 3.908250455417061 3.9013544183506337 0.16506148052044475 -0.14211361347501977 -0.529170825809108
Ni 0.9894793392676379 7.06775812799016 3.7672106032650916 -0.18046933043508276 -0.8593472657957523 -0.6377351425737727
Ni 9.137074553059302 1.370295668075842 6.208730201334048 0.8074348931971771 0.10697794611415125 -0.2956796917613553
Ni 8.120731355035687 6.563794342695946 12.587439539599629 0.1032966406078221 0.9407843873263217 -0.0906720098652761
Ni 3.594887769217056 7.3689659287133695 6.671415150311369 -0.11397108960253274 -1.0615064224994428 0.133374433829809
Ni 7.469255218104693 8.823647555295926 4.91641414131672 2.0320191901281324 -1.332540547797976 2.254362792199498
Ni 6.5617731221329105 4.175069944470086 4.51378149274041 1.0024201578602479 -0.8172498224050699 -0.06192373408799013
Ni 3.996770728711803 3.7433372322057883 11.101706452749136 0.0796121525066887 0.32488459546008563 -1.1141970680249391
Ni 6.519465300802108 0.11571579597037905 9.268405196615745 -0.35327780189079805 0.6973430840443926 0.15924564516961606
Ni 6.610447788237274 3.7786902173265116 2.1017230218509297 -0.24133094180714565 -0.08697219241618569 -0.39442933642844324
Ni 6.253270552650385 0.5036688708393362 11.837331514139 -0.44467409151660836 -1.0330736210800466 1.4177929293095775
Ni 6.124950608996243 7.973163879201734 2.6262224080655816 0.5858672500598878 2.395287013352107 0.01873434318470967
Ni 6.334009126777441 4.657737414922868 9.29395434326913 1.1994363369104184 -0.34468980311147085 -2.0095870863768615
Ni 6.602463967013286 1.3068201550303442 6.485824840740247 -0.9344795281542164 0.3732586158880991 0.6276160518618997
Ni 4.5503462914623345 7.0584237639354175 1.0143403521929695 1.1812601802220235 0.01577783165954702 -0.15530928622968737
Ni 3.383311913098259 6.671865331254954 3.066922908473418 -0.1683748611643939 -0.5146546344708041 -0.7113957054827168
Ni 7.145051439793862 5.390742239473743 6.3438818704912485 -0.6776098672815233 -1.2333540727037855 1.5602963220238484
Ni 8.12739219552751 4.427841950610016 0.107336917999979 -0.34169395370794053 -0.8176683979997273 0.12365566388014831
Ni 7.744710831381594 1.8920278195923752 4.2369284810651555 -0.2429126844719687 0.7707195400540147 -0.832767715535011
Ni 3.126791461550518 8.239367814719653 4.57356460331189 0.07496745464582573 0.9837637191013251 1.1849332581982368
P 0.6990887435031459 8.748798082900258 9.217187467548436 -0.18571360955315758 -0.68407336351868 -0.572799361132336
Ni 8.89565813153715 2.0855688758691815 2.020935754683036 -0.20004673834637804 0.11180390674788487 -0.2501534251947821
P 5.937675336464845 5.435466338113993 0.3996256236204849 0.10603589391585609 -0.6696160504427694 -0.6720262025461587
Ni 5.608207197323928 6.021408991971672 3.230918313801749 -0.42442434012863683 -2.9769847054153376 0.2836970654781824
P 1.767539007641804 2.7600777398525813 2.239174288766893 0.9074605763632114 -0.9675192322180046 0.05644188503781248
P 4.648899168642687 0.6923957472296409 10.59439203500338 -0.5019490139786774 -0.5483965068079394 -2.9132496291502212
P 5.149270693754417 6.321725618173905 8.094083399385308 -0.10688821461382238 0.6953455939983896 -1.1575684930320387
Ni 0.4441476002044308 2.5227313215550873 13.038896608349292 -0.6239823117640544 0.38322806839598517 1.4531314567098716
