# total energy = -340877.49775854 ev
CRYSTAL
PRIMVEC
9.16104038746980 0.00000000000000 0.00000000000000

0.00000000000000 9.16104038746980 0.00000000000000

0.00000000000000 0.00000000000000 13.40810861921531

PRIMCOORD
 96 1
Ni 7.755828208736444 2.7321336506824925 3.320907288952469 1.3142540907839622 0.5278256246351233 -0.9890067126678193
Ni 3.221681314681805 5.832541115743749 10.100663312942652 -0.7577149002642305 0.49380478760498825 -0.6657527108326212
Ni 1.8874949090927504 4.617026824370179 5.8903161316084525 0.33276605509069146 0.9301675310424239 -0.5035112162594748
Ni 0.7713357626560825 2.4990126617646715 4.8257125708727635 0.10235304574763018 0.982324158441321 -0.6497815322153454
Ni 1.3533879457616391 1.4712905326037955 0.7252502340338484 -0.7388856833728694 -0.8625362050466951 -0.09572654157004803
Ni 5.18330736073856 7.633821475903202 7.56128802434287 -0.06968358053906709 0.9222287358113215 0.9095166875612917
Ni 2.353617793406329 2.2761337157442503 7.047663314598527 -0.0723385016634109 -0.36808067123158544 -0.3589607112081883
Ni 1.153210057254416 9.14154546521805 7.583893807038419 0.1965757490786421 -0.9471576378425172 -0.3200200682789327
Ni 6.469865518542659 5.172827130797034 3.692566107669864 -0.2133506545441358 -0.23887785228096278 -0.7546038654390747
Ni 1.1485012826128569 1.5396776973883095 9.410749043008847 -0.3508895041642796 0.5479139107445661 -0.5469428050805484
Ni 0.7460412146739629 6.566193855811134 9.732114667359129 -1.322904824480425 -0.24110262784642347 -0.32672936197830826
Ni 4.237530735797038 5.182830986650308 1.8709674765424835 0.12796071901340544 0.6682171132127137 -0.08851742541611853
Ni 8.24396507255132 0.4515247668207292 13.43197479520333 -0.3026314404888401 1.2095019486765364 1.8821277324799068
Ni 6.035375705896987 7.213283927419193 1.593848760054591 1.9649198253764741 -2.3943092228198704 0.3371551852973226
Ni 7.406407815004235 2.553639944230855 0.7852926073378249 -0.5024897169734959 0.2701422096118832 0.22870091174796095
Ni 3.277646109011155 2.1684640107593345 12.722243363198277 -0.018272315946626597 -0.06097936789684981 -1.1135015846198113
Ni 2.1905787617023775 7.054651356031564 5.975457922739169 -0.10910630531106372 -0.21800178016290195 2.0581071454644357
Ni 6.677995189907613 0.4602589025080106 2.3980002846630657 -1.0436310848809187 0.8247736415859408 -0.6821442648167672
Ni 1.7388112273174436 4.792231717404851 8.36529205620479 -0.16077596577121342 -0.5024354666967927 -0.17726753566833342
Ni 7.912344579847419 6.95112244119837 13.443907966114018 0.8565725312640925 -0.41575638004099363 1.2206633646099945
Ni 0.40411821620761407 3.423874632023937 1.8034579394051704 0.7812088696211126 -0.17596861435125177 0.7964447127342607
Ni 7.536219754052671 2.1380951626333244 5.6478435528966555 -0.4997854306684554 0.4322716040871975 0.46547842985646926
Ni 6.170290344313805 2.12816459510132 11.944934602358739 -0.1990262675016637 -1.3895547603994907 0.15174059504182255
Ni 5.654404689858299 6.693477347775775 5.511912039022225 -0.2632645086554433 0.0665630326322144 0.0793846098769149
P 2.5583578799125726 1.9874601793042197 3.404827913430034 -0.15451532957348227 0.26844296753258934 -0.06726237269208415
P 8.82389555875613 1.0303696697667335 2.1473221622811427 0.8316811673390516 1.9109374576227476 -1.5147464013081913
P 6.2844918709318565 0.4602030201630427 7.984957732457131 -0.28576397530954006 -0.9410497251725666 -0.5163816444642397
P 6.418563693654074 5.015504588152097 1.0714725086466637 0.9090760004794474 -0.6151320604622761 1.2161366803842344
P 2.884573358922856 6.7399146603401014 2.5843724856511643 -0.10012004265205338 0.28637949740635193 0.9869652567577583
P 5.965577740928038 2.7757768459984233 4.330242294410867 -0.9970545226729602 1.70612826489072 1.6738712046292268
P 5.668384437140438 3.6303278330398525 9.281240334389665 0.9283736723667947 -0.037584386011677205 0.7851429145681962
P 3.970779568456718 6.703068956821908 11.856710121214629 -1.3495936466255207 1.2480206735770247 -0.4323032286560813
Ni 5.939587869997874 0.06737212153493292 5.508640631581563 -0.17903105532665942 0.14864807215942788 0.3834072742863268
Ni 7.376029805838067 7.672563514734241 9.046195527038522 0.4206854419114949 1.205770249548246 -1.0076343550713358
Ni 2.170626016236782 8.32775194584257 10.3162519032048 -0.2982147994783832 0.36111735253987487 -0.5435142390149736
Ni 7.854181135879988 6.955666317117074 4.941853489692407 2.067372887037078 -0.8042068731781827 0.3295892000246066
Ni 1.2810706947490529 6.236652919223252 1.2375255225628197 1.4967077986389257 0.9911828943835318 -1.5328891336554893
Ni 8.624816995067947 2.6027431194813566 11.989946457074376 1.0252016745311376 0.8633083073260293 0.372362586436391
Ni 7.680267949507688 5.149109197826222 8.85358832211843 1.6264482352605731 -0.5173378377299219 -0.3508504233962281
Ni 4.358639686694731 3.936737143227079 11.004101274686837 1.6075285155379346 0.0888786654102792 0.9648889936840092
Ni 1.166401955082909 5.987298567144257 12.032034107771363 -0.898738108888549 0.7214471761814478 0.390853703262043
Ni 5.151023855219386 2.1553545622922696 7.087579798777908 -0.7724190392436246 -0.7569623383689221 -0.03347884848373589
Ni 6.998631595461262 4.240874515454954 11.167117403790392 -0.28118561191023833 -0.607792075157437 -0.09228023489266042
Ni 4.641376869111938 1.2766550733925712 3.80330384500392 -1.1337963303131053 -0.1578423370641862 0.2746393261512883
Ni 4.578431362181678 8.294909616873717 2.7450149892496065 -1.234502841596248 -0.15961974067958318 -0.701382801331405
Ni 4.494992608416459 8.075356128430895 10.028218723471861 1.2430394183123494 -0.13992483335381709 0.5820386203424169
Ni 8.483040737572281 0.4164581373013503 4.0744156674597685 0.28973864368657193 -0.7621449110111261 2.7717631077362395
Ni 1.0126522180998545 0.7045746824997332 11.781905647798961 0.7172711904268874 0.6967432456768646 0.0003548122362574534
Ni 1.8256670490618478 0.44489767036994315 4.978162356257303 0.11877828118318899 -0.016554047703939232 0.5650346295852526
Ni 0.06355471610081276 6.513655290501129 7.268213524210612 0.36277134320353005 0.6176777097022653 -0.12588532454161544
Ni 8.54691150955857 5.771574393487762 2.1791531124164774 -2.525475593254767 -1.91516512255085 1.6440970586905876
Ni 7.436190356560091 2.8913158844796416 8.161461660986303 0.07565856717557938 -1.0084735631431794 -0.5899640458370807
Ni 6.071030474194553 6.17827877133217 10.026046640850238 -2.108137984769582 0.2916206912006333 2.853232625166641
Ni 5.738466394354308 6.161037693753542 12.75721196958796 1.0248298930140156 -0.9378034503211269 -0.6798935211093775
Ni 3.7274256976816567 3.559183195167577 4.903184739182636 1.6745438052162192 -1.5171619527282194 -0.7600970273431619
Ni 8.845982826578696 4.28165030520122 6.26094341720398 -1.4376996955358337 -0.11417343542132595 0.21692345949705868
P -0.01400539819458343 8.747483322792615 9.570439714534803 1.3499870254091977 0.43236544935258436 0.17593698978236796
P 6.469590687337899 7.772428013503966 3.6959987494173197 -0.6082510170717267 0.650618426294344 -0.6573881409180098
P 3.6571421975842964 4.030940119178742 7.017965054612132 0.34305483861120917 0.9138579952491228 0.43805144399376816
P 1.4241386589070917 3.388513017011449 12.887029405260488 -1.9313059939767705 -0.20722088749731407 2.1430720776426058
P 0.11255162328547394 3.467013970131141 9.506482828771023 -0.9645840608490807 0.761662829168385 0.5339913871262029
P 2.9170309242050445 7.233978717137641 8.294148334436532 0.071083031989755 -0.16193553329695337 -0.039524540457183545
P 0.23702267592140086 2.048417740520048 6.92240532861297 -1.020801488580913 -0.05601868145746482 0.379610783358372
P 6.226465842566805 9.242115364079993 10.988413909519123 0.28000778955205324 -0.8189976583341121 0.7594197987704793
Ni 3.461911270762758 0.29834118211948085 8.281746118269716 0.2577908871353818 0.3895506681799033 -0.06531193383393268
Ni 1.8930281773485904 3.738070826346038 10.891446131647571 -0.8266664877332796 -0.035904427206093 -1.430508834214349
Ni 2.2146448141992185 4.479061559580523 3.2475374344256513 -0.7674457543987493 0.6107776401483224 0.8440561439646367
Ni 8.597599544756521 4.621561539248724 13.529451926907702 -0.5449882524573388 0.08268950588043178 -1.7594735132810795
Ni 3.86879886941034 5.933688160135687 4.421940641983148 -1.2030083705323926 -1.5147739121120172 -0.8843664135479091
Ni 3.4305438692594525 3.002274402881522 9.14017314140228 -0.17639156082128332 -0.056846833785715 -1.2986292397625119
Ni 1.016738042010624 6.532224718902765 3.9773278799621394 -0.08516804932791137 0.08480912332659588 -0.39100231302476535
Ni 3.3846745411849635 8.968456772460032 12.551195750187611 -0.24151117613875178 -0.1407676409700866 -0.5626543022785342
Ni 7.84150225630038 1.480708081886914 10.112717409583437 0.3170021073882154 -1.3728901552596164 -0.041952947393018074
Ni 4.996660328545701 5.3314047359437104 8.256565167185563 -1.0741037995484792 -0.16454263190249727 -1.606841259662923
Ni 5.009861387414352 3.5937569607264193 13.349340380764042 1.2199401132907248 0.744349277590602 0.48415235211688884
Ni 8.057171463715923 0.18651969373465335 6.774983122067512 -0.06259144957897607 -0.5576347375767557 0.5867038870285701
Ni 5.257282760019866 1.4798652661923157 9.602109430363344 -0.0113979574242965 0.1397710813847722 0.37753847421037556
Ni 3.0159060306376313 3.156262326908702 1.6115075810644541 -0.3318581985644414 0.052612226879077136 -1.441701360496059
Ni 1.686849807537435 8.731369053153504 2.8171774186835106 0.427188018916703 -0.2481014277617598 -0.7529876699918903
Ni 3.7329864490579725 8.146271740299204 4.727551109468538 0.377569327448311 1.6964799431676785 1.582104161927559
Ni 8.366686366516943 8.32449061554608 11.70652586106133 -0.46036527699962 -0.6872677020862616 -4.042130010218948
Ni 8.570244678842716 8.061642051313358 2.29646023164832 -0.3603856165801729 -1.071343977415155 -0.6154375075178368
Ni 6.097698262096458 4.123741455986127 6.23207514745596 -0.10430091350262038 1.4649240784694255 -0.7189532061150006
Ni 6.026462013822596 8.580092797013291 -0.2072795268382284 -0.5764408145396653 1.7041778260325682 -1.2985683046175893
Ni 3.774073714169633 7.19255249354011 0.5654413850898458 -0.44862819106834995 -0.12746038233821919 0.39292241286561364
Ni 3.02394026285679 4.773753899404803 12.860534761017583 0.8395865382290573 1.1114195052798022 0.7518813243015889
Ni 5.408687270722299 3.226041969797335 2.2570137088290783 0.783564771447799 -1.035427466024204 0.5968049800183141
Ni 3.465227567300199 0.8506071592531192 1.6831066065286002 0.7385936060537474 -0.1426993107751607 -1.232321003453581
P 0.3226454216604475 8.160169038219914 5.643727497553363 0.7722712008118505 -0.5449918520017646 -0.2289870755298121
P 0.8482848355728949 8.284081267406162 13.315417965160481 0.889434829209752 -1.0220495020554012 0.4537657694052314
P 3.6474040118956244 0.7237872159205079 6.140042421917889 1.0832885513715407 -0.9831985906264744 -0.4333290988174343
P 7.821265518589866 6.188905577916233 11.394478846760453 1.0334240624409299 -0.2481407656401275 -0.11004527218556531
P 5.444204623417485 1.4050104070557767 0.6711451308567097 -0.5101251220315666 0.45714008519410304 -0.18296998536974943
P 9.227457699826111 4.436050476035541 3.9503641904631097 -0.3786119097802124 0.6746528415357285 -0.11673476839059894
P 7.130651345187939 6.15648465679468 6.968394666313538 -0.9609742320106353 -0.6708838614115994 0.5125666415935236
P 2.9495434557281843 1.3286714594135318 10.568713680105617 1.1508026350631149 -0.5611075266167046 0.9796489256020032
