# total energy = -340890.3291612934 ev
CRYSTAL
PRIMVEC
9.06065985481287 0.00000000000000 0.00000000000000
0.00000000000000 9.06065985481287 0.00000000000000
0.00000000000000 0.00000000000000 13.26119156305083
PRIMCOORD
 96 1
Ni 6.745724798227823 1.694234692986129 11.235650599491175 -1.7448195108133304 1.357919907103029 0.0852418399886403
Ni 4.56624645868217 0.4245136668110431 6.061903196672094 -0.03084089664025656 -0.7863665025626522 -0.795189757281237
Ni 2.6846554381158367 1.664823790610399 4.655248415843771 -0.021978046932987955 0.721833355876273 1.3043018646672568
Ni 3.325207857818424 4.619033863870402 4.972164932965267 -0.6026838073965942 -1.3338528388514965 0.47630894481306996
Ni 5.2290246773766444 4.7488912430598536 3.044517671528302 0.8380814144384406 -1.2302306965834553 -1.6479904802077232
Ni 7.293804121920952 6.219309512606279 2.560563356887468 -0.14031127015895836 -0.8879649295324449 -0.25848997008493546
Ni 5.226877300955496 4.274411660586088 11.636920955191787 -1.399696476819183 0.055169960303924334 -0.08059508524524829
Ni 5.741694941770836 7.855483496281355 12.427844994400797 -0.10260372830585555 0.00789997157336704 0.5441313037736822
Ni 1.8815547779263138 6.629730228845785 0.17585381970405206 0.6024446948025948 0.32338075722104953 0.0014315902402039862
Ni 2.631532788507425 1.7835093760138758 0.40403113880408836 2.602570121545924 -1.232561401599161 -2.3042226531444188
Ni 0.6303836409791487 9.011306589799526 4.4800551182540715 -0.8957412310437541 0.7415552597852325 -0.5079941917314929
Ni 8.645101894383668 2.42042847105452 1.3449100071592996 -0.4898604582452596 0.4301139343142464 1.1896514896095125
Ni 7.1258194854311085 0.6720454617474306 4.992135533681949 -0.8503358063257612 0.5960243930985477 -1.308888969817307
Ni 0.7823979581444507 7.5538541247200355 2.366525698619691 0.44206030804284513 -0.450771719773914 0.3555982224938586
Ni 7.94959657175169 3.7476883125243794 3.786255917901007 -1.2474048943698968 0.8407345357905714 -0.008068378830431265
Ni 7.412978982964691 3.732366736456185 12.681227257502313 1.212552305467086 -0.5381493751586345 0.4567171387240715
Ni 7.925739853958931 8.827520162261232 7.049371072706222 -1.0705338228090338 0.5494761130253634 -0.41894891883636237
Ni 6.916083327638936 0.7195532203508394 0.2297357526208698 -1.019574301042031 -0.237900575969358 1.3223996027092322
Ni 1.7940288022795021 6.176072043063154 9.361433144036784 -0.012010651307630928 1.3910645121757979 -1.307483347719032
Ni 9.24232623794308 5.134703206726198 1.4839802654416787 0.04991899631763016 -1.4117685774923687 -0.09330764771591027
Ni 6.32773843088427 1.9330102660938338 7.066849085855569 0.5879364738840906 -0.18800934756586976 -0.47849643938269204
Ni 3.451930248646199 4.545832791691252 0.3157531283768745 -0.9884027605352331 -0.8975775129215444 0.4060694917705329
Ni 5.924131330968409 5.763929801422727 4.934104724548912 0.6372486898556573 0.22409323777262055 1.1704744024604294
Ni 5.47947038057059 2.8235553559901247 9.096129770566892 -0.31457061512858725 -0.2868991173552478 0.5904456134591897
P 0.15734107918215087 5.403324593889866 12.509931855846698 0.06034584807790898 0.316833443020835 -0.07326358458084156
P 3.9835101104705046 6.271825097994366 12.33131725303917 0.23111080674103424 -0.4809641841968942 0.6248968531585237
P 2.528340931712235 8.577382521507449 1.460945349511359 0.1112539477816858 -0.5342340992646283 -1.2451592928688295
P 6.250070453322731 7.888473359359 5.722508994210575 -0.32619380118981245 -0.7869154330875867 1.1372395516666995
P 4.823134291139562 1.2388731031225877 12.402847539513427 0.49741255956090463 -0.3853101477359945 1.0955807384753324
P 3.989018991753451 6.1297630097783875 8.354020037133989 0.03907408318332625 -0.4464592084414892 -1.334745782979411
P 4.682005450904081 1.1681184091447459 3.8633566981462426 0.3722034351507074 0.25363675575769223 0.5581857249842193
P 0.22723501045953232 5.636364769214502 3.6632982313052453 -0.18121752145501693 0.4538585862293539 0.003831200820632112
Ni 1.7870883367157901 1.2906004110902531 2.393154072307933 -1.6360847299090728 0.10151049524167678 2.6458011643204173
Ni 1.85002368110945 6.703647093165318 4.685019932487694 -0.6592203090307421 0.19548354445572785 1.0998757663062606
Ni 6.272984862474986 5.406187762451397 9.143260605714097 -1.2160688032607765 1.3156491713592762 0.02965510386227151
Ni 8.806010155409727 2.1560655940931306 10.058573915799636 0.0361319698358668 0.2612950436338984 0.4309096907426643
Ni 2.252434773904672 5.291189865669892 7.131325648516053 -0.3593417486966908 -0.8086242855195881 -0.17693252092641787
Ni 0.47426756302965295 8.93050362387631 8.96696553186781 0.5257126920571784 0.7689827598685659 1.1174603121572433
Ni 1.485132781394295 0.9616984529143461 11.451450150958589 -0.6324877781319043 0.6958315324958726 0.38651162424326335
Ni 4.056810849909708 6.752846476991631 1.6412053681757675 -0.7269837897289608 1.4086138339134708 -0.26878698113556937
Ni 5.601698684035962 7.821506021263183 7.881152346075083 -0.22799694370240087 -0.3987788716463906 0.3256317580387553
Ni 5.11496002857564 3.018721972494506 5.084977398553603 -0.11013963167158451 -0.7182168421696083 -0.8375096010953705
Ni 0.5843029363265033 7.4748632907977886 7.1278907523082164 2.106399919032553 -1.4670493523425443 -1.446133942346116
Ni 4.885281358112799 4.706469232917166 6.891218158387637 0.7562964226501492 -0.5483345432217525 1.176310549526232
Ni 8.15072510253926 7.087465711630596 8.95159593430159 -0.8592284808297008 -0.2515857867659344 1.4367550722343772
Ni 4.796459708085295 0.21935314232131684 10.363051052800481 0.011537054105322065 1.6188267141595734 0.3817833655296586
Ni 8.047741640924182 7.2644204015252365 4.729922751339709 0.7826337749930973 -0.32300331927697273 -0.22061119276129101
Ni 7.5448568893352235 6.0851936232145505 6.852667768265019 -2.4976374879965757 0.4315802344471277 0.32223533076269667
Ni 2.345687086674546 5.366647042190249 2.754190567257026 -0.7219842796318404 -0.8577439258643743 -1.7465022978323923
Ni 2.4763871072444483 5.0943651483846235 11.227588424218862 -0.6562139181042506 0.25341127001044744 2.6467504156075643
Ni 1.1996404453016047 3.5232738855243557 3.849763896006973 0.7256216192741117 -0.5432373312045031 -0.06362940392518719
Ni 3.812336121658955 2.9901718328192364 2.693706131394677 -0.5701261851755471 -0.5773216744827219 0.5205486313577357
Ni 1.1995407780415517 3.3070231131886985 8.38904311231672 -0.2213331585289801 0.2631462379100243 -0.9711036071351533
Ni 3.6615214358782953 2.565580244332152 7.17193099632777 0.09568000460282876 0.14399771787161006 0.43164939712216627
Ni 3.8163952973411264 6.748497360189305 6.202140467963097 0.9801572326969894 1.5425521106665496 -1.0979605515614188
Ni 0.4102558122274175 7.105804487480404 11.128937770218101 0.9442690034408124 -0.38077857841422813 0.11838593084077678
P 0.19654021256111578 5.377211771755899 7.948135087292909 0.5347570616476338 0.9734875339862977 1.2275068698943892
P 8.611015691445438 1.682238379139713 7.9242520935861345 -1.430572340462433 -0.8821488370713001 0.47078364411946666
P 1.6087111232003886 3.327509265459655 10.428309550419383 1.4694944714489273 -1.6316673175676675 1.0414348485605485
P 3.9380709005462022 6.214607030063764 3.7996367005961633 0.03652509150922742 1.9994836793942725 0.8862687727769446
P 6.896766000508604 3.8353230160912495 10.439873670783568 0.34239277954717806 -0.7776471204117833 -0.43698237929930545
P 6.408894762547675 7.683321895529279 10.344671503980651 1.4750699086541756 -0.4631448966272862 -0.9546680872869494
P 2.281890979580426 8.77761404695454 5.7461138256552 0.9342190754039782 -1.7876132089400891 0.7541750054317721
P 6.972685270689208 4.139570918393971 1.5830948252346881 0.8513966434901079 -0.6913061338216933 1.275284137278668
Ni 5.314811006302525 2.9361431172103405 0.6906035055693561 -0.2983757505362797 -0.5291335448132694 -0.634182649335824
Ni 1.4572712518793938 1.192292250037675 7.008685991086462 0.37599658364455246 -0.2046860368906023 0.45629264959214316
Ni 6.86493590191158 0.5737046823188351 9.128712810010317 0.5996830728970576 -0.3814344668306721 -0.03261135827711803
Ni 2.650478628577558 1.313288303742387 9.319660783216444 0.22604881883709457 0.19478137618238067 -0.5312904432552721
Ni 6.395892715440722 2.223830270269373 2.8854097636452063 -0.25145800293881854 -0.626450827909205 -0.6156943607236494
Ni 4.224233725479251 7.109881784482585 10.193440933905768 -0.5353047066209878 -1.6078637873901667 0.414795301679305
Ni 8.461641650605548 7.122394555949277 13.540605489113934 -1.162485984938314 1.109635416796186 0.06375770197293536
Ni 7.755698447647988 3.762955524632545 8.10927167695109 -0.10935827342086973 -0.2057702710937166 0.011795964193663555
Ni 3.370529279162663 8.38449919132429 12.145607247381847 -0.8447557411348225 0.8042742360810085 1.5108717488441334
Ni 8.906520056843481 4.696466264271816 10.40729063134014 0.22731225893055046 0.3965803213331751 -0.698683400122371
Ni 8.777124771314277 2.4658133170187937 5.856818781726408 -0.8132023918085736 -0.10723042844458952 -0.4982566527287548
Ni 3.4691545633154113 2.548799902003177 11.373169672780723 -0.11475090519135077 0.7046108213503993 -0.005791924091428734
Ni 1.0059688376980234 3.2842627352565255 12.894108370382169 0.023335589402146906 1.3828302971914634 -1.5937497165862875
Ni 2.9353639004499232 8.265994819120909 7.845069173671786 0.07099535737195514 0.23412079721195164 0.9373776756376179
Ni 5.4713701505262575 7.752817157766446 3.57511082747808 0.21372012206841254 1.0296946773054847 0.15662826215142703
Ni 3.08138549708802 8.5243776604791 3.718716852158885 0.8975600294200479 -0.3611428064611716 -1.0308573301550181
Ni 3.6082991190098297 4.284931086851714 9.410764813499169 0.12758045285585123 -0.5905625986530281 -1.0283137377975582
Ni 7.062594199917294 5.881355955085532 11.728052167454525 0.5120807030960407 0.8867027749905696 -0.8860538285526611
Ni 0.6297983223428357 0.3153734867226715 0.42707149113041104 -0.48782748697563083 -1.2373295124117658 0.08943505213438145
Ni 4.641912030382638 0.7673536382724044 1.7645472267557345 -0.28817489874387786 -1.3635809620435486 -0.8951267373882068
Ni 5.632767687192579 5.399066083687587 0.5669889211232432 0.8488211694534478 1.5255658605211984 -0.8051139583734844
Ni 8.11278811909897 8.827656072161304 11.50914933993545 -0.2610721289898149 -0.29801219654927386 -0.07063026072305255
Ni 0.08277637767227136 4.908132342645021 5.783762680107335 0.8197296514041301 -0.7006739481898384 -1.064531839589328
Ni 7.743276282781344 8.575380115646379 2.5562405159991566 -0.42502880648185504 1.55510475052058 -0.18385084531280593
P 8.465954524767854 1.5243110752552487 3.39750377006309 0.7321843600932938 0.013648186911053916 0.4043635648230197
P 1.9793283600386062 3.3618854095180404 1.626087656957682 -0.8800801274677293 1.3233827925581079 0.5933465891560684
P 4.6393025603012426 0.8103872429654202 8.280394020000612 0.17019288820973913 0.978168741512051 -0.4078126997138848
P 8.553118074014472 1.7247509958824503 12.42235514050386 0.3786466196728899 -0.38423748349710596 -0.001158024863843167
P 5.993925594985737 7.788144671125341 1.4113355177868259 1.7260548286113175 0.2828789404522612 -0.4855867705705702
P 1.7806643287723545 3.2254409305050658 6.251802851515658 0.901175514685448 0.6924785568632397 -2.1665267091211207
P 6.836349519596292 3.83880230953311 6.025553640864652 0.8206719607127414 1.2115140940105587 -0.4433003510975333
P 2.196965413355005 8.367157088075015 10.273352330884507 -0.12822348575648887 -0.741172422524517 -0.5240990677131554
