# total energy = -340864.6168224964 ev
CRYSTAL
PRIMVEC
9.35352000154356 0.00000000000000 0.00000000000000

0.00000000000000 9.35352000154356 0.00000000000000

0.00000000000000 0.00000000000000 13.68982199055270

PRIMCOORD
 96 1
Ni 8.119322950392023 3.909284935741542 10.304986135602974 0.1261527192703892 -0.25960660018788195 0.006491778371930756
Ni 6.410238440492155 2.3721461821887235 11.481256737840692 0.16112537869083218 0.08691151438157935 1.0552249603661052
Ni 4.7164095215514354 9.069406734374594 11.313145924653206 0.052560290595219154 0.047097467708435016 -0.047153774867667184
Ni 6.948505450256811 6.90392657440684 10.13159058367121 0.11731712325663021 -0.0309671378054757 1.8367007104953592
Ni 7.245114919849441 4.897250475324697 6.370476627391393 -0.7038667440955233 0.3988331219230938 0.5331848320645076
Ni 5.499261723217251 3.936690749052582 13.653831542653641 2.108761220175878 -0.2184982601833463 1.0285793327541188
Ni 2.009482155052556 6.076224244813911 9.603040010380107 -0.6651161056898868 0.2621638193920969 -0.08094526949581543
Ni 2.6398345682462883 3.098568598289519 0.47108067631305095 -0.013653072007060358 -0.39777279897937945 -0.5674998032962937
Ni 5.295962968160779 6.797006488414176 6.708601695066293 -0.35661997889015357 0.5671154233736814 2.0648128396193854
Ni 0.5685873798769663 8.040014455148231 8.871551727900725 0.3908742720873333 0.19671124621524186 2.304115952363225
Ni 3.1630424109697244 1.4084717337894497 7.8393533927039485 0.47985629584469613 0.008243985176347094 -0.7358867486455456
Ni 8.753370003946802 8.43002817447603 4.411983315377225 0.7539317790727145 0.8898112387125642 0.8021430486706186
Ni 8.26180511904973 2.8450320878427404 13.404471378842828 -1.0687651609443851 -0.9047215801654935 -0.11895131642594352
Ni 7.133106519030427 2.982697193751236 8.307092991708227 1.037821163067361 -0.6269491077018622 -0.32712582608577856
Ni 0.1603380381494385 6.405907760777817 1.4688225148971272 -2.5375242968891842 -2.0299785055490203 -1.4397367805705206
Ni 1.4436596756584374 9.117848613943837 11.103718743357351 -0.8653718747232773 0.3351461252870938 -0.007130954617826428
Ni 8.86425598237765 1.6486794783767633 10.942521116728976 -1.0892959339078854 -0.6375723917436632 -1.3247161666575509
Ni 3.0205041211926105 5.941814163831095 7.433888593851061 -0.16815863138852974 -0.4654848576143725 -0.5968952257392753
Ni 2.1378685692188837 7.037850272354784 1.9064587454508073 2.3047818680819985 0.2310706975317182 -0.06149693096321667
Ni 0.5212033834085705 1.714818217599414 1.1315458114772827 0.6647864902646099 -0.7886720107673771 0.05618091806694196
Ni 3.638378938837903 5.390742185321452 13.537371801713563 -1.0553846258724213 0.5586418386850315 -2.427269479795975
Ni 5.136391918643253 4.4838061886439435 7.687451294153564 -0.5925096950770699 -2.2235033836164804 -1.9258241449265932
Ni 8.588916417040757 9.487649376764756 13.067687605921787 0.7379680566546064 0.0250397165774472 0.17426037341089343
Ni 6.989791887101498 9.095961377374609 6.644108239994295 -0.3299476118052898 0.3633238732728904 -0.06891970578984905
P 3.1511073195755652 1.3856210846703807 12.747989907804595 -0.1727323668021412 -1.1005049152498274 -0.2271320245989443
P 4.7516255239801275 -0.16018557577504602 3.3409734847016663 0.0448526375383163 2.912555431296674 0.441220328640053
P 7.645230440670729 4.777198047390498 12.494056808113998 -0.9225835480475788 -0.14389461663484251 0.3007401370033982
P 1.249387067306796 4.130514388448958 4.594673460034988 -0.23800804808149975 0.5161952394850464 0.49501603430427
P 1.093061689195049 0.6243960917205341 3.255849906135187 0.5821229525261071 1.8886035700122377 0.3903122289362762
P 8.355031651906774 8.745737531707276 11.009080764347187 0.06880272059601053 -0.4318316883363015 -0.7955674523356298
P 6.6001803691294585 5.778688776751047 2.8198159335406126 0.7075470211605879 0.5422500275905693 -0.7550288687916351
P 3.2190793486988856 7.232300597584552 5.699072550702499 0.515464531966609 -0.9735083599219041 -0.7965876660700281
Ni 3.5899557663084636 3.9668745577743327 9.696692128392664 -1.2893447291367925 0.819511364745737 0.5046499578496083
Ni 4.058174265531693 3.227029840615058 12.097818321291829 -0.70948280473072 0.5316323999757232 -1.5771162217946646
Ni 7.7745054392276876 4.573010707943395 1.461278901096665 0.0839586024008425 -0.12556727908056436 -0.40765894774483985
Ni 8.192879030896469 5.323724215228072 4.185224997056103 1.1008880096208589 -0.2834960052109698 -0.08778543234610042
Ni 4.646903515164289 1.4402830549740397 0.7751084225394635 0.10497402831024501 0.1456465663289427 -0.31331488834461524
Ni 4.761175467799435 6.611264290212593 11.657732403875977 -0.056760958940128045 -0.1911880024041675 -0.29979988457731593
Ni 0.12217100019186156 8.441177570198475 2.2931547712695877 0.08333665254612745 0.9663164701591552 -1.6895623901122385
Ni 2.2791721943690164 3.578825077625823 7.684179432892061 -0.7169382325675008 0.6614869935777318 -0.5099042642700121
Ni 6.007419752419368 2.17636765713296 2.9940738800072833 0.31090447913090974 1.449981084006348 -1.9460785243002547
Ni 2.79870410377121 8.37548779993109 7.52890913182519 0.35686809034521766 0.06143985247303611 0.48027435721872125
Ni 5.167221120238199 8.44914676915445 1.5283997599089607 -0.13217527131538528 -0.14170069430731724 -1.3181169161734785
Ni 4.748763346890305 6.055581026391568 9.040608181950239 -0.08179553331125267 1.851244412637489 2.3135866108578216
Ni 6.938328820604111 0.8438390221267864 9.84399510120754 -0.39471061511428795 -1.455285784048713 -0.5449198611132486
Ni 5.670056996616432 6.110140107976312 4.708956636894016 -0.10968943150804335 -0.17865541715479555 -2.0075849683451685
Ni 2.3298215046349835 9.353706971777008 1.64031462552896 1.4744309895185963 0.7051371261675147 -0.776094945433315
Ni 7.206662599534872 0.6479950224317133 1.4707250208450677 0.4261094411405436 0.14103992079486677 0.0609027490226435
Ni 1.719083422674443 6.952705180692531 11.973323906756466 0.10568570966528897 0.38333065541212047 0.6596864500338832
Ni 6.461804395708457 0.5843022286632732 4.355854713153029 3.436539827808836 -0.32436780372466717 0.47746722678722936
Ni 4.1504654463985995 1.2327190948425386 4.999522797278365 -1.557174745675731 3.45650984317286 -0.9467164365400403
Ni 2.947939513797712 5.051228119941198 3.4391293225467376 0.41530617987745255 -0.9096401005130335 -0.3221710531836645
Ni 8.62272939148424 0.515054379425404 8.181776402773531 -0.21706229906776808 0.6598705410202313 -0.4643417451488648
Ni 1.35556822522725 6.564141256949446 4.547772105193504 0.0456332244580827 -0.6236231286524228 -0.4055899810309531
Ni 3.4342570740301093 8.041501664812552 13.33373631994064 0.1480358924967257 0.6193445558817269 0.31935749499426935
Ni 7.442146816571989 7.288851978908289 7.934880891456731 0.10640741832266191 -1.0343509451305732 -0.11874357129051162
P 8.210473001830962 2.5173408716178294 2.164415729402978 -0.87184359849055 0.9829584495912104 -0.4719169863929615
P 2.0004653618676267 5.045868553037708 1.1347316203556923 -0.5606298156493378 1.2284748902346134 0.36787832541279225
P 1.1232080838371934 8.40974038980994 13.643194719821793 0.1190292208517305 -0.6671153955081026 0.7641025489581292
P 5.503835594449025 6.879167807227889 13.838767467439727 -0.346137591301591 0.11422408615360327 -2.7540471785137153
P 4.585413475332623 3.6075965048424643 2.0411110825990693 -0.5863344195042934 -1.4471024769069722 0.31362702026839534
P 6.961965165394895 5.108499722297342 8.710792781355725 -0.5888623281324697 0.8302122961030088 0.10624723859571379
P -0.01992299738993723 3.1183699999207386 8.263614089798658 0.2595976013268174 -0.04402782764417579 0.5002016922702676
P 3.9530032877605876 3.1445505021246984 6.252319222589214 -2.191462810241168 0.7336755999268396 0.28643811855842927
Ni 9.065468902496113 3.4228644867902296 6.090081484547805 1.244557911839405 0.806005102729186 -0.1528186585973497
Ni 9.092407039812084 5.775536640544282 11.298771435268767 0.5626527596166374 1.3984955145325462 -1.667755321539476
Ni 2.6856106946436373 2.365898030894602 2.656879487562571 0.6069523528649612 -0.7448616984506463 1.215989870393725
Ni 1.1215338037748466 2.159362957952253 12.229651507541817 1.8140312939223018 0.6342885787860689 1.5294909066072175
Ni 5.826410435287882 4.391028624742165 10.485596057434673 -0.14937029503743307 1.1411663975249313 0.7070975923279952
Ni 0.8833698032859844 3.8795407424551573 2.4604172202020167 -1.900829165544152 -0.2031803988793533 0.2791788658928547
Ni 4.744124001019222 5.727487608810898 1.734651421198298 0.19835495246625193 0.5725283668591364 2.4004104506216013
Ni 1.799224381189458 8.839721699676332 4.939150503074914 1.1832787533139493 -1.4177307086130744 0.5325245727726894
Ni 5.027535654031005 8.784395629459675 5.473355279146402 -1.4454202041085429 -4.404467351208853 1.7004075603568587
Ni 5.114560803193435 2.370013579651209 9.496314477601393 0.11894540288867257 -1.55214541078194 -0.8698389093556955
Ni 7.351857288963977 7.025260434567528 12.715983098054066 0.05074329199113841 -0.228723023235148 -0.3088321699829133
Ni 1.1660284979457065 1.5819982349998325 9.069205633696715 0.7593863744293825 -0.5300833103210484 0.9221837415059989
Ni 5.851823948859929 2.3262578135525582 6.527484812455941 1.0530096978823413 -0.7012781574327406 -0.5420800776716084
Ni 5.1476535566045145 3.693994968171502 4.549209741202346 -0.2418942705097834 0.5756993083879505 -0.03379946504794824
Ni 9.386631361829863 7.764936788368577 6.717924348351997 -0.33847724654285577 1.8823848427960357 -1.8213589379319663
Ni 3.2374403082652927 1.3431654578380217 10.543325982265982 -0.5939016903285901 0.7244425113643459 -0.23053333697100942
Ni 8.650883486387391 1.2279207391331313 5.71780016824904 -0.0607615954590889 -1.1538694469138966 -0.12291390061811737
Ni 1.7743066041721844 1.7202806732218194 5.040756854411604 -0.8602132133404734 2.502297612476407 0.6530553178706107
Ni 3.8031131313409894 7.430810350451518 3.455886153450058 -0.7759275666175153 -1.4034392316910667 1.3080415342153473
Ni 7.293987061334145 7.949388200823771 2.743480922273469 -1.5153945764151513 -1.3396128812637251 -0.21713968927292282
Ni 0.4553022235914148 4.702613079696902 13.22364258464544 1.2669493921607275 -0.5708548358114556 0.4987253648350572
Ni 0.6149368770442695 5.689671327849624 6.640439789488974 0.6963318691710588 -2.6194221601062564 -0.1393514773488503
Ni 1.1478359017375244 3.888099213164919 10.119954804913895 0.11421920105759684 -0.611754659349611 0.5017649229923294
Ni 5.386823060482775 8.360176087852533 8.993911669194594 -0.015583456260553808 0.5926235949471149 -0.4098839804206167
P 6.595943224614134 1.0622511946399067 13.1339058500636 -0.7070461702647693 -0.02557013515962048 0.22158178420467645
P 3.4177761719638795 7.691867090899005 9.724058656920118 -0.10824061487665874 1.1428761811271864 0.8672094421526485
P 5.179539705948315 0.6532835025839531 7.6251624637223205 0.24879176896056504 -0.8730880124206124 0.9420537409570486
P 9.118933622252396 5.997346011485583 8.60135659850959 1.2739453638625868 0.4703851231294673 0.9066756185680708
P 1.1739509293021746 0.3776782972818608 6.855767171138619 -0.24143789969865515 0.8238508726613553 1.1348545963742909
P 7.503861340881287 7.150316995648965 5.397663790048472 -0.8948863392426266 -0.7709545388829561 1.8414559657921579
P 7.2793581562083896 2.8155404395936925 4.905870679265808 -0.1969776125027511 0.31851494448831597 -0.6360338436119497
P 2.569309028189891 5.101465875331503 11.534510068047203 0.6117227776704109 -1.9466871044185314 -0.38843300963569233
