# total energy = -340868.98494295287 ev
CRYSTAL
PRIMVEC
9.26076162926529 0.00000000000000 0.00000000000000

0.00000000000000 9.26076162926529 0.00000000000000

0.00000000000000 0.00000000000000 13.55406073655749

PRIMCOORD
 96 1
Ni 8.862483917614806 4.76881060614645 6.258791191141428 -1.7386411499167602 1.9691976268162215 -1.3782958996562198
Ni 9.616559943207074 7.656306776994492 5.639803745510592 -1.833640840623113 -0.7521201797852725 -0.18962425746147343
Ni 5.01573028967116 7.781632662196453 7.554667141447525 -0.27323087583953587 1.0438799676669313 -2.3614872911938427
Ni 2.2771286420091945 -0.11797191450522967 9.522960500783018 0.9665753802474965 2.275810163439997 -3.725912860625873
Ni 7.373242341386484 0.21176768507280758 1.3190787882114783 -1.2387585315488083 -0.3986431173994747 -1.784899409553352
Ni 1.7867064959484318 1.7931242036588404 2.7357789675607656 -1.1399368959932044 -0.0640891171704251 0.03937593069446122
Ni 4.041257401452611 2.4796800172502578 13.497919184674899 1.2107216800162504 -1.008830689372282 -2.567284815981069
Ni 3.735522621724717 4.569074502397399 0.7558883566152502 -0.3142487130127943 1.5613828702198076 1.3904785577653407
Ni 5.36019357393719 0.5335430297721271 6.0484181767485445 -1.4634742333967763 1.4063142392460168 0.19095788867123242
Ni 0.8829839733373551 0.36433410018843027 4.611064647131214 -0.3338412904327412 1.4897071989513764 0.3603146541329214
Ni 7.468054017489172 0.9365871129757204 4.916857769656475 -0.3574635578373715 -0.17488206615529236 -1.3166750415206292
Ni 1.6969882386635275 1.8404559556182898 12.891917178800966 -1.1828437226590596 -0.8027202613303273 0.24288645921972363
Ni 7.746321378646975 5.8837322030750405 10.44935429359013 2.5982599242063444 0.47673677637910794 1.348400140538052
Ni 6.933948859494792 8.255922561747068 6.161756932281887 1.8762478766603625 -0.5311870849081884 -0.5647258400955822
Ni 5.416934259567311 5.99991771668945 13.651378337197857 0.4173563775382619 -0.22773751939342715 -0.1873452316193096
Ni 1.328317323870791 8.868809017710348 11.478256381371676 -0.9368709112045285 0.5502525861800717 2.2568351649993907
Ni 7.838827125139431 7.578034820907372 12.724850263349186 -0.3574062222368748 2.559111279031341 -1.7576344031898115
Ni 8.912482768882478 8.60344189730377 9.739324301781766 0.013857474708382587 0.4571817370653158 0.29193745111010366
Ni 5.359554581394596 4.747779416809744 3.1186540383220804 0.2917363908428911 1.7605346075557422 -0.8753518687541247
Ni 8.765477441039728 2.6492908638824857 5.556677298252049 0.8964984209247528 -0.9071168198705474 0.41066071068564114
Ni 5.02559300065469 6.865817437235807 4.9863218154934215 -2.3121398511089666 0.602724945047175 0.5467332601729036
Ni 1.4318989411015561 7.5748120759099375 2.917457512486547 -0.2220913768512433 -1.2847385978233488 0.5798580677513303
Ni 2.097386522310319 1.1715604141823546 6.676350591899558 -0.9465205184791505 -0.7730245340381073 -0.9883446536037883
Ni 7.656538296031663 3.808238120919708 3.407517562773173 0.013345053848338307 -0.3378085026106053 0.26426209668202233
P 1.8146739956388127 6.004436968295049 1.090192585530171 2.188294439815515 0.03122656211444945 0.3405438992638974
P 5.082324425523323 4.398222713725929 9.292351796465152 -0.0893995709107557 0.22624833644241038 -0.41217149090321276
P 3.469109035270122 4.699586414032013 4.458472301883429 0.2263043864913264 0.24709561220506476 -0.0364520721794469
P 6.791249785743441 6.236382000495473 6.65383768072495 -0.016093820238069056 -1.2063477193182708 0.03538609280877777
P 9.002886322517412 1.9918045805983875 3.3035988538242855 -0.7910564518391537 0.6237604255612355 1.7142889463246411
P 3.2086871614975383 7.886816391164449 10.947181344535801 2.3175404532992476 -0.2667743215809148 0.6786663335704958
P 3.8619227552591577 0.6726517062950141 7.829963650320337 -0.20185628075129108 -1.7480187344769187 0.16442847492213616
P 6.967815464252316 8.511936313051896 10.622479599206628 0.647455198075014 -0.5277562048497685 1.663238664616045
Ni 6.608757219882961 3.411164450646707 5.908200987075678 -0.14628522835420613 -0.28034743227965914 0.11632673431890288
Ni 9.083371600599895 4.507944215822497 1.5785875509014553 -0.37782309533032993 0.6667888654066193 -0.9651569026334152
Ni 5.170885087622367 4.848277200465377 7.148954106783413 -1.242638840439821 0.9377193752477528 -0.10850852382606473
Ni 7.155401448930579 4.0359880281665745 8.473212438894503 -0.23532767303585922 -0.8228825952108151 -0.44641344280521833
Ni 5.1163669847490985 2.2945666558889917 7.913999504356891 1.0114552714793226 1.7555050155516345 0.8919190290841865
Ni 2.4864774161816285 4.72531280944257 8.403260350927198 1.1277835484601222 1.1867186322334335 -0.9780422432365155
Ni 3.392050238937784 6.267136989393405 2.878258561264877 2.112442782792523 1.0270754945150826 -0.22510805219038005
Ni 6.229065998920836 6.370653781293761 8.956970540989307 -0.684031454537151 0.2376992585918293 -1.4888163117059907
Ni 2.511601862095537 2.4815784733550688 8.574963203579312 -0.08263268450056736 -1.38720580055134 1.268175808368661
Ni 8.972927759107352 2.122084973195831 1.1243647954167624 0.1824871321960599 -0.22606064591163652 -0.5863231066503838
Ni 7.896216064073633 1.1980739743192954 12.07788790941878 0.8573425766608976 -1.2607478913357062 0.0037684659034967352
Ni 5.1288967950408475 8.591041737672835 9.727816879558167 -1.774774405304208 0.22977151910432045 -0.26780070596290007
Ni 6.3560773427134105 2.7279888149980005 12.931604172152998 -0.40182357200998536 0.5722697138811111 1.3811372257597567
Ni 3.794735930671835 6.700401715557137 9.076679774349476 -0.7270730070086575 -1.0615982108823008 0.6147268546040575
Ni 3.759165345800725 3.0502725755029503 3.095178007952837 -0.9152533329347529 -0.5009447410838792 -0.5389731566115105
Ni 5.297748259231152 5.873110109649588 10.969246960930594 -0.8014779042827939 0.5208522786410836 1.705766767786243
Ni 5.915922610003439 2.502748574114079 1.8316276716928461 -0.03874369642710102 -0.6243952309317569 -0.10489483833287741
Ni 3.572727695546835 0.008733824158277568 12.706796408830513 -1.5029861754484697 1.579594508131828 -1.4011836028876707
Ni 8.608702009828317 3.532665641354587 12.667936401479263 0.885827314364152 -1.0190814205660126 -1.2835162953804735
Ni 4.323303153297061 2.648846347331115 10.277759791847412 -1.038447226687134 0.6465969638397767 0.5946545093342146
Ni 9.386800450717553 4.7715332700235935 8.407286003945545 1.0088556290729465 -0.3714303044301087 2.2102066665075744
Ni 1.652342107535274 2.991235221024083 4.7495324789592095 0.9278710216987633 -0.08267665036462535 0.054440795447383665
Ni 3.648767808115615 1.046206746695932 1.6506816530006763 1.2507468142589362 -1.0680897321439153 1.4582798336800304
Ni 7.62284764574239 5.464784614170026 13.158064981400889 0.46641585406907415 -0.5173314099720187 -0.19962019233192071
P 0.0369893335309005 5.497956661816033 3.974566027604836 -0.28744419122544046 -0.14727921683635925 -0.2992776935252588
P 9.468758189876452 9.257696174828945 -0.29638696708303497 -1.4111258017020472 1.2121123897161898 1.0325182627972087
P 6.759744675165071 4.409567146547358 1.2634429114267427 0.3723258196611846 0.4898270339041629 -0.1942627846747493
P 2.329979807814825 2.9704911152934694 1.0737297298349426 -1.162895818782223 -0.09112838067640436 0.8879165927930128
P 0.3834186774605949 8.838322590895535 7.641385838086828 0.33352221653042563 -0.21918525894804186 -0.48726518671425756
P 5.6407113001363065 2.8434242069319735 3.9968752020267324 1.1046078816746074 -2.2048407742099703 1.849562396949376
P 5.279828685754036 0.49311424942499893 0.45166215493357037 1.981127288374272 0.03964821051924139 -0.49918379252871453
P 1.2518697377965875 3.286033041435969 6.918995507921925 -0.44211558676081275 0.13052308042394295 0.7104150867370024
Ni 8.293428645768937 7.003358266838966 8.075861871853045 0.13355852481615707 -0.29441085235126074 -0.8152001389648927
Ni 1.8259999069372683 9.092261931627302 1.2019931285805432 0.5991487976601423 -0.17304655560845036 -2.2964203834911805
Ni 2.559887472488135 8.092201559420499 5.137151837830253 0.9133201204677819 -0.8601463646582799 1.9271204951405132
Ni 4.11985348419177 2.9893738079652197 5.86908445663124 -0.5973955624144615 0.12826642317928233 -1.0110071281983106
Ni 5.428121259443464 1.0490312789494307 11.389341958183833 0.5577393814754201 -0.40718200810842137 1.457219767846632
Ni 5.6896729461174465 7.129036060977429 2.2026563763601428 0.16826327528719406 0.13240821326179775 0.6373865009851022
Ni -0.23820623304170443 1.6081312321969035 8.487485124498084 1.135939087687721 0.3849530215068918 -0.9317739562975953
Ni 9.338274060526297 0.04856435931335319 2.447077506435693 -2.415923458655536 -0.5249133360843347 0.6710180729966185
Ni 1.328400670724173 6.832867647865484 7.596007180724962 0.5917859295371679 -0.1259197773239767 0.3494499435042756
Ni 3.8292878317793884 7.722687915332455 0.6857936529210471 -0.13096068218199378 -1.0064614178091569 2.181943557896823
Ni 3.1057167545249076 6.312468416871687 12.422025214880472 -0.15259342996042108 -0.6417563479180237 -0.1308202999493876
Ni 6.948960553865025 1.2920707034111385 9.587532086326448 -0.1961797991918041 0.23000394683010067 0.09716918755384556
Ni 1.5933880999097887 6.96278687076494 9.905767967985481 -2.0823189668239492 -2.2669012909861412 1.2023779360372453
Ni 8.222241172219283 6.785054336308717 2.0689050503574165 -1.2073892732089075 0.3333700072232775 1.9249715671183105
Ni 6.6257599779728755 3.8780272194848435 10.938140063096162 0.1846057212009595 -1.114654981497964 -0.45110776295709404
Ni 6.9728811007856395 6.101008189080244 4.359216386343186 2.67038296742484 -0.00885127974304282 -0.08356882316159157
Ni 0.37377452044815684 7.2411283180146375 13.983453500822884 0.5764364436642911 -0.055282317512072535 -0.7614391431933532
Ni 5.783410373887658 0.26216382300826585 3.0958827519019883 -0.959719790778244 -0.0015251783952747928 0.7247132485272294
Ni 3.3543033751172566 1.0366589016029575 4.395364842731078 0.33092720210973975 -0.2603015693723775 0.27602077987984724
Ni 1.9048367694750874 4.598181075750666 2.6730502735532276 -1.0076307555269097 -1.6529776490096695 1.1770224879915925
Ni 1.5685970414094081 4.433496954229459 13.005541165788108 -0.06774059788008333 0.018342249952613573 0.9654636352405565
Ni 1.8669787765167172 5.153947154862862 5.815220163518945 0.20613125397756113 0.7162916001224374 -0.20074042197929298
Ni 2.094580511579794 4.021754237761239 10.674039814860986 0.1459864661668647 -0.002232231764628414 0.09445693082900507
Ni 5.563115379637729 8.034581101449124 12.443765778547075 0.04489788895395493 0.3893439514857359 -0.5483733668794878
P 0.551780247368242 5.567884671803474 11.450578743515832 -0.7403370711074153 -0.05408161233575202 -0.5722108356187178
P 8.036590686691778 8.174594554369278 4.057435025694043 -0.2153748840630162 0.31605259899075244 -0.43689007669581537
P 3.6893392041896416 8.3942598168381 3.442012973235656 1.5336887467386489 -0.19213776791194653 -1.7086785421163995
P 4.3182930813326585 4.285213641301519 12.188475292714372 0.16687230847693843 -0.08876502265055036 -0.282858628737287
P 8.676222221829168 2.5593318267989225 10.46953627109849 -0.9109580479935084 0.7534635811870443 0.42051189244810805
P 7.08488075020798 1.5464267784098147 7.367539564462862 0.2773677808260449 0.24817804663596615 -1.663837988762941
P 3.263872039197863 6.542857641142316 6.770957605173387 1.435633299925108 0.26042421099317087 0.18320369864711028
P 2.005408639222616 1.7899292409458665 10.800363084075087 0.7472481964049517 0.20360437379064933 -1.4736383184139716
