# total energy = -340868.5499138787 ev
CRYSTAL
PRIMVEC
9.26417549735518 0.00000000000000 0.00000000000000
0.00000000000000 9.26417549735518 0.00000000000000
0.00000000000000 0.00000000000000 13.55905727758852
PRIMCOORD
 96 1
Ni 7.2900257928792165 8.123875675095587 10.712305683272708 0.3492092882483792 0.30065014839275317 0.17092745238291854
Ni 5.525617303439182 5.037089552140232 12.697609166397385 1.341755638638341 -0.8918130996339416 0.631871227593828
Ni 2.5581074363003733 1.5744465767784204 10.874133222241953 -0.850787034930567 1.020923615981074 0.9651936694086216
Ni 8.902927960950413 9.0537672617042 12.453329541650055 -0.5086390244043434 -0.213445014030155 -0.9654813758523694
Ni 7.0532427387110515 7.154074021686376 12.948655344717407 -0.5922078475659349 -0.12722178396485187 -0.2324264402286642
Ni 6.695506613013501 1.3521249001115858 1.8561803354784274 0.9185559149454245 0.4733156665127009 3.088649258371881
Ni 4.68043733494214 4.86547070639254 10.459442800194191 -0.19016033247060155 -0.21738420118356108 -2.1896368127760226
Ni 8.765104826365343 6.7973569552618205 9.196633813273078 1.5073945889288105 0.5897663280039778 1.387934194076932
Ni 5.935362508760351 5.1589505128401045 3.801593206570446 2.035015553752295 -0.1593603163706094 -1.442971485457734
Ni 5.1135189976149125 7.091707594179036 11.210939723307213 0.08281111905996061 1.257356349155654 -0.7928716506710216
Ni 4.669060927785424 8.269564094433141 8.454899477995356 0.15963439596760248 1.4532738958250069 0.1745948739321767
Ni 9.253326859882394 4.474077832160503 4.023690690197221 -1.06409603760349 -0.9283729010358462 0.06601821587233792
Ni 6.4487830988460235 9.33069198705319 13.486950245239385 -2.9028227773899427 0.056114583605380776 -1.376734982927003
Ni 4.626612476977547 6.998806445182661 0.07535943323803507 0.41263506080319257 -0.8906067380306661 1.2242968475975236
Ni 8.331958314466108 -0.09642431482837796 3.409221109018812 0.19156852567203783 1.6697173303618535 -0.41621892149970896
Ni 1.4176226188395848 1.4537529021548885 6.254358632986207 -0.6898472898879797 -0.7731584885128104 -0.3147572772180966
Ni 5.732180618075418 1.3153553887068576 4.958832284896805 0.14250313560395458 0.1704170884054033 -0.6247410443069499
Ni 9.35237015704237 0.9384424203265691 10.339377236649833 -0.18074623824555322 0.2062461822888706 -0.1571170288623875
Ni 6.817562121392763 8.555734466640764 5.684892562138332 0.9599486189595984 -0.8119757184903241 -2.164452600200911
Ni 1.9795133736190185 8.648830163316529 3.715303899420771 -0.8012863570972781 -0.4985726413072769 -0.5527254732005964
Ni 5.728956685102668 6.207794109132948 6.523994305280714 0.794104237526542 0.5077159983694417 -0.28110127972654814
Ni 7.2794924256665245 7.96755198261804 7.746099285585814 0.38008772299479054 -0.08168728986816254 1.2018881408850204
Ni -0.1648068977164758 7.647660012649468 4.886616186307201 2.075532540029735 0.6641755961534884 1.3108633199348585
Ni 4.103149520965262 6.414987387683401 2.2829790345244203 -0.29030120105826135 0.498379037239232 0.5754997907826347
P 1.2760011724188038 0.9957320798193479 13.085493697477753 0.16195687345319204 0.9406236933787414 0.3387248437772876
P 2.42667658260955 8.876701080933586 9.948931161124161 0.43416393601390396 0.7008752655673671 -1.4119686093183166
P 1.3796209721320527 5.768171938762586 7.933986949418123 0.788487662670713 0.14956235644358112 -0.9922298475908071
P 3.0018706929891823 6.892314751154607 4.454109828914912 -0.3403073577730591 2.148143835738558 0.3920356393852861
P 4.771402271319824 9.03284875408216 6.216935997229242 -0.8274380757919814 -1.269739296201039 -0.8857290982233907
P 0.8214229175909472 7.934840179954877 2.132487140340972 -1.7037541082315881 -0.4740281191986933 -1.0721443618292632
P 9.224598652559122 7.046692966838251 11.378340590082223 -0.7350292857412567 0.12607198663112482 0.18787282198800545
P 6.581056992480871 6.021815791811226 1.408189835641728 -0.021230627244002147 -0.22638486202027464 -0.7143342192857505
Ni 7.527679679517033 5.551399503045974 11.019011952666238 -0.2418546755210996 -0.4152622140133945 0.027656328264687852
Ni 6.942897147796031 4.073328140967323 5.557898321955124 -0.053662008299830165 -0.6064057363328719 0.7049890306254246
Ni 6.953208174803706 1.3543205096361313 11.500222858385078 0.14175700146654943 0.19071234831932962 -0.9547318506453492
Ni 4.754106056204524 0.900773357509042 10.165360822358037 0.8269043147756986 -1.1475270496356367 -0.1786811281864084
Ni 2.270167606627822 8.34581752057885 6.046552992454436 0.509815818321264 -0.3450273889565477 -0.051185264624563465
Ni 3.4782716389394825 6.521451289185828 7.524436291776343 -0.6490107154875919 -0.829076639836669 -1.0351970951809528
Ni 1.4577550258451988 5.956521884937826 2.903157200466648 1.3950571782749588 0.28553848956229533 0.2688988241230853
Ni 2.373472424383963 1.2262988724222388 2.29737834205185 0.4675414830330852 0.5017512961455747 0.27249554033540807
Ni 2.583704352402984 8.490190427036719 0.9058603161163327 -0.02745321111494627 0.05877773225984071 0.08382156260234597
Ni 1.5208440590188443 5.534659138443216 12.027019064637578 -1.2168298497965173 -0.663095218605116 -0.8675889369792541
Ni 5.177905015317825 4.336727170511095 1.654991168880962 -0.8968753446481974 1.1956979529139085 -0.9823385566190243
Ni 5.267128286756208 7.14465235549877 4.381229488962819 -1.0974188201253356 2.627555844956984 0.060637154066082666
Ni 2.576459767389506 6.505007378189761 9.72668452427652 0.36830692830977857 -0.3358056132479636 0.6457940083225072
Ni 5.00143174176059 2.9753103026648295 3.568431518491499 0.4489367234477043 0.6285704453553691 2.6651152912679974
Ni 2.200954953640993 7.7731432658560795 11.69097129952194 1.0001488453275678 1.0233216838996053 1.1055715311394574
Ni 8.697670895018652 6.043790415407098 6.824340718393227 0.19830841549903266 0.20293820096156018 0.016730425380803444
Ni 3.5131234660759367 3.7461267367588085 13.303916082799098 -0.5795104546039246 2.819993917718169 0.11082071689900913
Ni 8.108543465124605 8.408739798598733 1.0503175265686044 1.0526430585715418 -0.46520666425232143 1.9911299081129386
Ni 6.296813568716732 1.0549023668795643 7.1964696666955605 0.7773740692560548 0.9442394357544577 1.954644154482079
Ni 4.552545396181175 9.50837886756281 2.0845691204896704 -0.4943789149409034 -0.9108842573327798 -0.2475908066739284
Ni 2.265600368249759 3.9728952175259877 8.910944251758805 0.9172048002341687 -0.5807348139293289 1.4461624815912062
Ni 3.6398295904101436 5.02605591946625 4.193002756317859 0.029245527128678665 -1.3976773895066252 -0.4277947992627664
Ni 0.4097118542904169 3.518635650325323 12.794637505449394 0.1971539901796153 -1.8867032676657314 1.2911861532209052
Ni 7.7309912686548925 3.3032343125396504 9.736040414820142 -2.125246362315095 -2.323438049730605 2.819363483223022
P 4.263327110329775 2.360141276258137 1.848777333068874 -1.0614079492483655 -1.2099786312026388 -2.6185356437362453
P 0.6748247562478635 4.2623636361080335 1.3671458337955429 -0.9639860222537656 1.624674174079286 0.3685766370313975
P 0.8656602806316924 3.8817079409432873 10.840072555668351 0.25607853242996537 -0.9001792122104497 -2.9993646157724347
P -0.008201574312573907 8.966507995410138 6.922359397775083 -0.6295595487415158 0.1971503906351895 -1.1000380029157377
P 4.4314718903740715 3.863346345678946 5.7600231702487035 0.3276109932523132 -0.6279148140492412 -0.02509962328110516
P 5.453375265158992 6.377328515458604 8.939187942718643 -1.7690416165854888 0.12142754588057798 0.4534371824212191
P 4.1319518416902055 8.848658422575784 13.042375446802263 0.93690999197258 1.8931356535546364 -1.245581468007913
P 0.6909536852868233 1.4975353941928689 4.202046444156936 0.5690293525669426 -0.33744212041012206 -1.3045710591682436
Ni 3.1971131855199575 1.0048758207506825 4.682660736992313 1.6192193216123019 0.6889402046926781 1.0015873775463073
Ni 3.8332377762495264 1.2125045155359602 7.480870581438254 -0.07775890134803382 1.0360617571740933 -0.4834712668894641
Ni -0.04545096999313097 4.423032226758625 8.802892470625546 2.3978396045706316 0.6058730037578534 -0.3066816992988137
Ni 4.841958229711965 4.464739543549778 7.840850490371437 -0.13828266976470377 -1.6497365163645523 0.8202796103703294
Ni 1.8396150637871214 1.342249289338736 8.549595097729725 -0.511949576834815 0.0020589394115577446 0.9176354600136841
Ni 8.750189504278769 1.6696174487010136 7.952224404734663 -0.2704386578063794 -0.7004006399237938 1.0449965977698776
Ni 2.6822288557512546 3.8369249179827287 2.088542525236833 0.30263632558484654 -0.600851896394178 0.6852609560688779
Ni 2.3621330739280832 5.586668218066835 0.6542629193713723 0.587467247557156 1.4737378201063134 -0.23084495467415728
Ni 1.3558490985456249 7.949801822917496 8.202484054579436 0.5973240857465777 0.878591715847661 0.44921723080260056
Ni 8.167222750898743 1.6862373790260534 0.08058906014354504 0.9980112301592747 0.7209944049147453 -0.6527485852634695
Ni 0.8249479362579917 7.272933389618515 -0.12131530078005939 -1.4219941118751187 -0.14753041361521688 1.8488725699712028
Ni 1.5788655883531382 5.6426053079790925 5.625883471726753 0.22127530870785117 0.28060659947831673 0.1550909995712942
Ni 7.4516949144523865 3.7920399890948713 1.9176981645366178 1.7820663109799308 0.277599951441509 0.25088850358859366
Ni 2.1539948495063075 3.16228915090913 4.273312964787611 -0.9040034710525463 -0.511113454086765 0.05155267526631121
Ni 5.863898661197722 2.5487135626383943 0.20135499533370763 -0.6716621343385207 0.6821347517350703 -1.161150553956342
Ni 7.189055547275757 5.418208456065431 8.531195519347026 -1.7233914228465415 -1.4601099449102337 -0.4223342903688275
Ni 8.370182301378657 5.3783725026665055 13.370070631549419 0.27166610245557726 -0.9903382869950493 0.9951416219209636
Ni 2.3520814438262616 3.5209794866532134 6.581973219409046 2.1898607558613703 0.4987037675685024 1.000699061404083
Ni 8.43349367475732 6.4030829225397685 2.7578171141169534 -1.5187352107526102 0.19934354163176637 -0.9490921358610687
Ni 3.460391780786012 1.6477632593828593 13.427385304315262 -0.608471617722965 -3.0485853004714594 0.01621723318981078
Ni 4.795637353666704 2.911294851970279 11.649805936980517 0.7589863107774865 -1.4809561922316237 -1.5056256699538457
Ni 0.42161168734644444 2.2476834533954526 1.8649803755095062 -1.177124046566463 0.07472551383834873 0.46615488709820363
Ni 8.17006685268792 1.799788374563406 5.645517038247298 -0.15776340419713475 -1.4319085427753533 -1.2344061681173837
Ni 0.07363814948419317 3.635401314660217 6.483547842735513 -0.23356183938468805 0.7141257028193702 -0.5152390462193642
P 4.064619816270814 2.673789192135808 9.270544329508416 -0.5523953435546873 1.152534787262873 0.3433286610978861
P 7.385159608100974 3.399739225692347 7.608447538242112 0.04886998622782551 -0.47922946089397467 -0.409922546968036
P 7.1342394225637955 3.5244720807070253 12.230879092947813 0.6282498287911568 -0.24714009228975498 -0.6286563202009561
P 6.716360271409078 0.2233092377441195 9.205785891962101 -0.0746794910917617 1.426249287607047 0.7606814390917223
P 7.795053040225488 6.103183042672331 4.868284236403529 -1.9800921622415384 -1.3313701816389587 -0.218845616220436
P 7.352123559305493 2.607216829083559 3.785228041063655 -0.4845308185022301 0.1690942558289217 -0.49415060098018126
P 3.573192378131431 5.8289727206595945 12.071059100746371 -0.19901238354459272 -0.6727592240574413 0.12277326127519501
P 6.387463523137306 8.587668078586367 2.566227485871108 0.6518723533061032 -0.8320511490839605 0.9053329884972473
