# total energy = -340860.67051971506 ev
CRYSTAL
PRIMVEC
9.34180419329847 0.00000000000000 0.00000000000000

0.00000000000000 9.34180419329847 0.00000000000000

0.00000000000000 0.00000000000000 13.67267472093301

PRIMCOORD
 96 1
Ni 9.000360984783644 3.1545403470255233 2.2930438606108106 -2.3215693719529824 2.1258693406110742 -0.592110145645806
Ni 1.2626662429667461 8.92820489132112 3.3889906657748274 0.11775601056626171 -0.09425098546578606 0.17091845352185403
Ni 6.387710657628735 0.1134281831721864 6.13391719968685 -1.1113750251951118 0.7310841850505796 -0.8858633098084099
Ni 5.259033908257663 4.850386037669282 10.040268176604444 0.7778394389282476 -1.2146400412340501 -0.6990371839173638
Ni 2.208972296250895 2.7010518176308094 13.563252072696514 0.45090001782166217 0.6411361978355217 1.8266816356964604
Ni 6.461361439718137 3.55532241871496 11.648831524881677 -1.3209441012096281 -1.352437286721903 -0.07266631731647485
Ni 5.153480865788339 0.7336184009421857 3.1452069507310636 -0.08954278135683934 1.273330355986407 0.6001476712383019
Ni 7.648022766008149 5.009121969843701 13.004941964079253 -1.5728201655224718 1.854563449708393 1.3285998179826732
Ni 1.6408785163903286 0.36808108707452664 6.011779652721925 0.8034265433687324 -0.47408236947539645 -2.2930108435889993
Ni 1.8322547114541905 1.4838614761368194 7.77975154305567 0.10607394624264312 2.0092225039485916 2.4420196415219557
Ni 1.2397507979559264 1.7916085226070333 2.303298358771584 2.8047961269318082 -3.450841332033173 -3.635881826778706
Ni 6.11239835436177 7.134382361185523 9.880982012179258 0.4657383683860753 0.3050415925922295 -0.654545272152576
Ni 1.0211339026672173 8.401887658581787 12.757712991750537 -0.30755947391807675 -1.3799964272870944 -1.4447414328739634
Ni 8.597533058036166 3.827215621747944 10.714673553412478 1.2562602878779978 0.4485641705996339 -0.3394059290047123
Ni 7.12789914926644 4.536940490809096 1.7342423731074648 0.9031853460266251 -1.458916695933081 1.394359637987302
Ni 2.377152792186398 6.414857939814404 1.7291828521054835 0.009156212577971327 -0.48770150292072784 1.0613662973771527
Ni 4.465410298209077 5.63314512976125 2.6984529277808256 0.29150190623458183 -0.3379936220382179 0.00013524002628363804
Ni 4.941599411124498 7.5433198276953615 3.9846689242444233 -0.41599703529689 1.0768229982518551 1.0137744065308023
Ni 7.106020644490518 0.4561163788368435 8.277519288841246 1.59974527204809 0.8071178761773905 1.362494413847589
Ni 9.009917650191744 1.866819385950739 7.031952283765982 0.6169477735147763 -0.7295703195092146 0.8894600260207327
Ni 3.349578529225236 7.811102637004431 13.830456624343059 0.7812482074994804 0.8028927823524495 -0.90075565353921
Ni 3.5990607446589706 1.3120189930654662 1.1352076044901365 -2.04649861469123 -0.23570845341404567 0.720591770159688
Ni 2.61528471585978 7.062030089840721 4.474272867586071 1.9987102915633579 0.44463295386602775 -0.02970909702865851
Ni 5.427214404193165 1.5214342114949593 12.657437134314483 0.18371046308019975 -0.06384229126694166 -1.5110504405138427
P 5.04057582363556 8.857141788917 12.305899447798318 0.31864144276385126 -1.875465747078699 -0.13661145270986794
P 7.034462426478745 2.439490649731119 6.401135764039274 -0.27471440236359784 -1.53020335929321 1.3647968367285206
P 4.094288453959247 3.3263174374694504 11.846401335943163 0.006615191323672479 0.04611993428651412 0.03451911682279216
P 1.5899002924098788 4.085553867295929 1.5698966876802953 -1.0685386467558757 1.1945512409039751 -1.4026324195190554
P 5.76701317990599 5.203552934788744 7.930985072503554 -0.16613902985533968 0.4382944132425097 0.6394161298206213
P 5.557980975437133 3.1243382949586747 2.918952196559009 -0.5691167700744264 -0.17937738292248462 0.07430976645716879
P 2.7752911333670442 6.50624880754406 7.751503796368464 0.6260826459365089 -2.2719725348614612 -0.0891817984729948
P 6.872512913756538 1.8722563158310068 0.41957497863124926 1.2492494037778032 0.257033440144067 1.4939001539868013
Ni 5.388726172051063 6.2384099474114825 11.986477948971796 -1.2190317425438426 0.1803549163444055 0.5783020361181201
Ni 0.14475779097193617 4.026924705906649 13.21922052562845 1.5186884166750747 -2.5413675818946753 1.0618969730696421
Ni 8.66023524593369 5.80676255557702 8.865676460976472 -2.175626871650176 -0.35320606811259814 -0.15300892023128487
Ni 7.17684085999277 0.24057480539793533 11.169357833708691 -1.423760202636606 1.601586696132203 -0.8179483911339913
Ni 8.225729262100323 8.979248507928995 1.2255381774751024 1.4771751279226366 0.6984494297346939 -1.1306765537372012
Ni 1.1392236459944787 6.791566182807189 9.322467318056194 1.3680713937147342 -0.8060660378741086 1.084918630775796
Ni 8.446139783741286 5.811769762477061 6.33322365209669 0.3020089764134928 -0.5449653696392035 0.3149395684322318
Ni 3.2916032941102147 4.827311781991856 13.675682551210258 0.5040853435953899 1.5279449022763363 -0.3750689296239605
Ni 1.1384576180732038 2.1860661930439935 11.793214709516501 -0.7526901933561295 -1.4709245190272346 -1.9878113852626669
Ni 5.005758920433226 3.2988151667348995 0.2709253921470801 1.0525846945297808 0.8515313692957592 1.4746616174721634
Ni 8.299931210620887 5.383317267582549 3.753066921509713 0.014329786359110806 -0.995904211118601 0.18860224395486228
Ni 4.026448273906832 4.207342964974713 4.693199910764857 -0.6345739712369717 0.6138135987611687 -0.7935529930087624
Ni 7.840613395581349 3.548521585462667 8.24864283875036 -0.497497405965227 0.3985472152515588 -0.1808339128633531
Ni 6.118769464633836 4.280330478985938 6.0514841877341485 0.3767769134540027 1.721260235436152 -0.6945956032062425
Ni 0.1641439024625408 6.9488541353743205 2.199249346733055 -0.6293680015559999 0.39659189129740086 0.3018757932697382
Ni 4.81421457289884 1.402559756638587 10.328953272180009 1.2810171831077037 0.5279747486184778 0.4946326828229223
Ni 3.184051105602441 0.8243039624760352 12.379786577526843 -1.1336824304430604 -0.9279489261245503 -0.9661580902044199
Ni 7.531707965425305 7.529307121818383 4.977550409322475 0.3492969628661791 -0.2780514371566308 -3.11931531999717
Ni 4.847060355474479 2.2998773901768175 5.536612533155133 0.7112928613562653 -1.2247889567425938 0.6518109039405485
Ni 9.22121057120875 8.810077780778185 10.186661717442421 0.601789320606783 -0.5317190461522584 -0.22000261264301466
Ni 7.048157511022512 2.165131210463787 4.288037467218277 0.32755417187244884 -0.5243032133041615 -1.1262159468626862
Ni 0.9880172077779568 7.433787176756975 6.249533233336629 -1.229200198436412 0.048538571030335764 -0.050717323849209434
Ni 1.6717251529275186 4.550047041706031 11.391730134172432 1.1006671518593045 -1.2933502507517596 0.13282756018740352
Ni 0.17741206656725633 1.765021748656445 4.227057907963231 -1.50573031385251 -2.5087122577534986 1.5268043609139899
P 6.247770434937304 5.774701484530492 4.22943633124075 -0.861102300813646 0.03382183364545143 0.3304716026295599
P 5.607455168986788 5.4871794435427175 0.8811918116150029 -3.1265313781296347 -0.14989891384739346 -1.79023444861302
P 2.7645667424691966 6.575508941792008 11.976921283563698 0.8980775924864146 -0.021340413348989052 -1.034471786979154
P 2.013607150914053 2.747359139652266 5.838805877196104 -0.2062688079966899 0.2728693787350591 0.03878509118799772
P 1.9550714075639528 0.5798354932050833 9.991060224466453 0.22875953290003828 0.024400797441867652 0.11023476248855207
P 8.602540264936207 6.820834054482241 0.2791723366458782 -0.3428440081519838 0.7668124916901244 -0.5655444793421357
P 1.2276811872938884 3.8339604041767297 9.176032673280979 -1.7180851801422798 0.919136727149559 -0.31778912206588494
P 7.1220978890333715 2.070657547441194 9.927154812224295 -0.783412819250967 0.8633800411042293 0.27513477773046807
Ni 1.5074495310297342 3.45114262142158 3.7392849581895082 0.24510969212328754 3.2410979352243214 2.2296367502077277
Ni 6.528921365653012 7.186089245871576 6.842161392827002 -1.4283416513597014 -0.8112501531782094 2.903774342669934
Ni 3.388870156504285 3.3814527641934045 2.428280485029535 1.797093123406066 -0.23293603287523107 -0.6484802969054188
Ni 9.594406295928374 6.265566571401068 11.323531228849566 -2.789773685381047 1.0548385235609639 -1.8482981855249716
Ni 4.249278322762553 6.1891412735480245 6.22078009505746 0.7225620065121814 -1.38694611913205 -0.01923236586705075
Ni 3.7353109548027974 8.41647955630168 6.713871333801692 1.291057340952525 -0.009836783584763703 -1.5261595282411395
Ni 8.677293379887931 -0.016189346189869794 5.8220438784260615 0.6639485677443469 -0.5438088874372571 0.05519284312205978
Ni 3.9327406388055137 0.8246813713543217 8.305670814948098 0.48033632080490823 0.13313480701517716 0.05910914745733045
Ni 3.516133551279009 3.68153953145087 7.158260011999895 -0.917077530627685 0.44914189747997485 -0.09748671879426436
Ni 8.301313797600749 2.019866159539104 12.479733603464986 -0.7134613297624939 -0.4225579763438594 0.1329291187622743
Ni 1.5709364304563673 5.141579407596825 6.550564456970203 -0.01342295827412527 -0.9834906679455966 -0.6010493571169649
Ni 5.362307550570998 2.7825777404230734 8.090723380238373 1.5721010279682603 -0.29019861404212605 0.608053813459256
Ni 6.632082906319332 8.24638399056299 2.5915593364492704 -0.20478733835515697 -1.2285111427891875 0.15991747442566007
Ni 8.80124977607569 3.526587029863235 5.553566973085886 0.33583569515495065 1.7887136410931195 -0.6767302928900474
Ni 6.417202732597818 7.215945651193459 0.1966982207559385 0.2675590222657392 2.105392817924277 0.5015808320059812
Ni 7.643090293539452 7.598445812615397 11.835435926504232 0.8025068597679405 -1.572434500048279 1.0197658482275471
Ni 2.037204547610886 8.31944623900556 8.161506228524953 -1.272656212737518 4.666719873660014 0.709614445212578
Ni 3.7118350015568984 8.245627304445634 9.991156445046808 -0.012922107378306779 0.09586769513360263 0.9552746105226968
Ni 3.121956134959588 5.241891698068159 9.661972761125993 -1.1104987932377455 1.2842919972042333 -1.0048110266899275
Ni -0.08513185910460672 1.8404381316863463 9.607761338809528 0.8936452677466737 -0.4058221516464173 -0.6384784484977003
Ni 2.806464733041364 2.789014243322566 10.069924667322484 1.416481666697322 -1.39385235933358 -0.0964788463550403
Ni 2.9417433955777197 1.5220974795731361 4.107517382487506 -0.1215689565544487 -0.25679946975638995 0.4551392527139903
Ni 5.397423391498708 0.22538222968611463 0.9973795636645624 2.6060598798667374 -2.21687739365953 -1.9638389336074697
Ni 1.1408771452879622 5.993430481466217 13.199449531816423 1.2083768339331575 0.8836279927199879 4.29239167885682
P 1.0804356739385925 0.6435615428120167 0.27677896648209016 0.45881927266873884 2.8885719238978833 1.1132005084396248
P 7.3315691582863725 5.5363827247787505 11.001101669161455 -0.36412837145205673 1.0746126208640976 -1.8621307205326896
P 8.885083124435695 8.15454471624527 8.068914938991835 0.0484498679712714 -0.8600571473785832 -0.504495177439299
P 8.047235414639365 0.017475712589376472 3.625993165354525 1.026120329690665 0.7877551553800627 0.37016120790969803
P 0.7620193532136469 6.398902138722483 4.2364370790968895 -1.5215084026223733 -0.41624668941385085 0.6328145653437037
P 4.520536283129113 9.575255597896504 5.067749262872197 -1.4044136797891942 -0.8960181388542247 0.4752583920613686
P 3.599210213521659 8.569190024948998 2.3414316023648025 -0.6430799518254537 -0.6791144768515078 0.12565392525709973
P 5.429587222388334 8.550674569583549 8.362877219600668 -1.2939611448628814 -0.44075187364406676 -0.28404030775021405
