# total energy = -340890.4953805351 ev
CRYSTAL
PRIMVEC
9.06844797700348 0.00000000000000 0.00000000000000
0.00000000000000 9.06844797700348 0.00000000000000
0.00000000000000 0.00000000000000 13.27259026711856
PRIMCOORD
 96 1
Ni 6.210018715218965 2.4365287202318675 11.286612934704905 1.9624091431394783 -0.528208976116471 0.3802766990771451
Ni 4.991990134748582 0.5680602726477119 5.575416892372708 -3.4163181014453223 -0.9418717068532295 1.838763249451343
Ni 2.873319582063655 1.7666334049809458 4.516409893844435 0.38931978311601984 -0.8061688820005599 1.993264437957438
Ni 3.4454842342335414 4.216492743634371 4.915650126587797 0.43112154964315424 1.1770947359904245 -0.9777185413485097
Ni 3.7342417524507017 2.890558701532621 2.5467312197177794 -0.7243478947680105 0.28304683348869314 -1.0293228957883627
Ni 5.209406173290646 4.820941070348981 2.310094605839327 -1.7451275289720525 -0.5047949680679048 1.0814818371801054
Ni 4.796882478054838 4.684533476949618 11.337101518420566 0.9680812753690617 0.34464892257120644 -0.6867722505070817
Ni 5.7893787591074455 8.047032344396989 12.478530733120056 -0.43991395112380366 0.6665353546349165 -0.8902203012255249
Ni 1.888576823970524 6.657809604360512 0.11738833760648447 0.035027166807462255 0.6664533364440715 0.19047272150469777
Ni 2.834134818662601 1.4984340581662818 0.5045983673579841 0.057039409412495315 1.8077958545355512 -0.03013744281532874
Ni 7.94071386114914 9.117870946907987 6.610705365403305 0.9841023333876665 -1.2804127167544852 0.3882455762152346
Ni 8.9046263944026 2.641747696340603 1.358516068582575 -0.19635283443455862 -0.28872022972438666 -0.38194714480103253
Ni 6.7994315553057225 0.5715389292643849 4.437159820750673 2.681238164971789 0.5539544605116912 -1.735051375682973
Ni 0.8188844732748222 7.189374815256037 2.4486867883392027 0.4425806993226894 1.2411743400791528 -0.4127186216559343
Ni 7.682190548249988 3.877668324529171 3.582099495089948 0.14300295805850854 0.08346160815976594 0.8974535857491706
Ni 7.704780051983388 4.142866015087008 12.53204636474668 0.7435802606350613 -0.5344238466779312 -0.23961395911603892
Ni 8.467481863102485 7.262330478658369 8.887976724047512 -0.8558950455810937 1.4137012757387073 1.5796338460101957
Ni 7.036226867022528 0.9749760396985612 0.4140208959850602 0.29151244775754315 -0.39144685676135166 -1.0618352665937711
Ni 1.9210690728170816 6.6735252245813 9.137779817440427 0.33775373811327 -0.7831719068847545 -0.6493662990547978
Ni 0.14858107786813787 5.096522133758984 1.0667115518690584 -0.17946660020218125 -0.1250533155586233 0.39186620368695735
Ni 6.6186339094073645 1.9920659514717562 6.656761291782599 -1.2423663035047248 -0.4829038244217683 0.5121318680489503
Ni 3.5350804995430556 4.670849189059734 0.33526686699174607 0.38619949231948325 -1.1557468664422677 -0.3342282414585147
Ni 6.0154279600558525 5.637291819278917 4.780932891878079 0.08783608307837776 -0.5151436582920805 -0.3030536156279232
Ni 5.564381498116114 3.047470055647046 9.126578470587155 -0.5870725832218986 -0.3103709752249429 -0.8066545633877269
P 0.19242430295841192 5.918821784515138 12.23045336536362 -0.2034519073731851 -0.1094390060601341 -0.7478452065590023
P 3.8875529327465164 6.400501463480739 12.3894586240995 0.9973807956641275 0.936372117191239 -0.4589426856204806
P 2.322919204867739 8.570027872021512 1.3888699774129398 1.0059803644076803 -0.6172956437724981 -0.059095520610575644
P 6.46697318663041 7.795138066916992 5.5510880603309705 0.17566882372264583 -0.553822048698885 0.10811257393922671
P 5.003071778089495 1.2253286810345687 12.742987531483989 -0.47295108408443065 -1.1049264413562907 0.05800665842177107
P 3.9826537459348637 6.399939219710578 8.216980499220822 0.7160900256345926 0.41643823659936663 -0.5921548828408123
P 4.659241575740282 0.9852505911758568 3.298013134389076 0.9476739153573035 1.1325272337926946 1.4353340235171343
P 0.07618040347764207 5.607637994626882 3.559548985682542 1.0844612315234032 -2.0377486364127417 0.18254318224497593
Ni 0.6250563745805892 -0.02054638242021923 4.7431192778003854 0.7562185182243621 0.8948765690506136 -0.2744930303814111
Ni 1.9808754867559728 6.469067998096654 5.003514318347299 0.07760746337183409 0.8813759634610175 -1.8854264578358366
Ni 5.919257070014617 5.473161980631458 9.03982879107528 1.015025248218768 0.5994336758904127 0.067386042754142
Ni 8.801536278609223 2.2289519476676194 10.03904207149173 0.5702287721916824 1.6869792027660948 0.5933460749354362
Ni 2.5195231554659445 5.447779394943065 6.933096850058367 -0.848897531217338 -0.7525320705117104 0.9061392864486265
Ni 0.9531301486934378 0.1072398375550799 8.880172417779761 -0.2319371592970715 0.5081692838567765 1.900160935832534
Ni 1.4513869504308812 1.1612056858925066 11.44146393745513 0.8257622307514553 0.7493927535517804 0.13526110932956062
Ni 4.214243768553727 6.82187596387263 1.4663426347171618 -0.9369994663625928 0.4131973610645658 -0.5777302227750503
Ni 5.7492690140199985 8.13765334431986 7.682122534890694 0.3635971815389351 0.2031444034350953 1.125895330298474
Ni 5.231351817222734 2.741092543148875 4.443066100871734 1.070790161794214 0.922523641343921 0.9718019187537585
Ni 1.0585780609423274 7.758510605825379 7.124819255148867 0.07383616925485993 -0.8093179691525029 -1.934975729518874
Ni 4.9686479498389975 4.624137613896848 7.087643152958954 0.9933302797438376 0.6468386475369376 -1.1113565132523504
Ni 1.2670798151929696 7.796398581175901 11.071357907298797 -0.43377981320160774 -0.7224182818454655 1.025527947522305
Ni 4.960187087942867 0.7297742767730602 10.404171337437344 -0.292178106366 -1.4924505660244685 -0.6522410494994315
Ni 8.515463020972186 7.11326333198248 4.807942357120777 -1.3768391126050352 0.27186459161962856 0.6303344792343273
Ni 7.417781812659957 6.292505317370314 6.958102188313878 -0.8315538977325677 -0.49933625894617867 -0.643842283912775
Ni 2.4087339274005255 5.471039963821496 2.293224572200127 -0.9811895306162456 -1.202015410491504 0.9763743686157895
Ni 2.3526274402072094 5.308424555974309 11.218378305282343 0.2553575951035409 2.1532194504892526 0.4253226835731901
Ni 1.034755248293735 3.229473805116879 3.5686147130539916 0.16390114166375644 1.4750112875020984 0.003755353277374177
Ni 1.7076884935931074 1.1485642695117917 2.725765052498456 -1.533840698935481 -0.782593408673465 -1.5837560957086854
Ni 1.3423388643633805 3.468536228810139 8.168164137298996 -1.279988484732873 0.8727689385182968 -0.397086057325
Ni 3.6284401707334855 2.8253021504023312 6.872892331256409 0.2835975637858406 -0.7551923909526929 -0.0437869152779633
Ni 4.386444525837367 7.082929373737507 5.909302634748397 -1.2066765634125993 -0.015148682715980362 -0.11135730612876951
Ni 0.556799074038263 9.313930790631842 0.5047262324734563 -0.16387491641151133 0.45499655648853893 -0.4454595635323812
P 0.23224567140245422 5.634879612135968 7.881515940064729 1.2546664610283165 -0.6473996622467302 -0.027611076849049225
P 8.92170228180926 1.6521533186178579 7.762858926596221 -0.6526642530797792 0.738814978035934 0.3999098999270403
P 2.122615327523959 3.38556899891978 10.436357072744686 -1.6946292631121849 -0.7687976404409533 -1.7015190482534823
P 3.8984622755772196 6.018565643031266 3.7053623732498235 0.6927274396492521 0.8270683511573886 0.9681445245068294
P 7.077515510337732 4.124475202734002 10.345107629381939 0.3827354450302828 0.6963195278758846 -0.6336188064125539
P 6.575604124094243 8.070537761368877 9.968524913731272 1.6387941584204357 0.9716149995539332 -0.19866965549319332
P 2.703594511058304 8.674704966198407 5.650075610291752 -0.6399478339543753 -0.3643183759756758 0.2736021431360256
P 6.935784738017651 4.149413434475011 1.4936704024813539 2.090488132898303 -1.07338183378079 -1.7452013196327816
Ni 5.529848848490747 3.2229445226246876 0.06793265010729764 -0.5017726363018133 0.10390084985072427 1.5052595448636785
Ni 1.8273466637104188 1.2161967539934069 6.909936034106899 -0.44223668571970937 0.07526493128158651 -1.4694870152497594
Ni 7.206396291975264 0.9693626704448579 9.014490640781624 -1.5057598815388649 -1.073947219365957 -0.4643497155686648
Ni 2.853115080129485 1.8804877684385315 8.94332327530632 1.3039280262676058 -0.8696033963061218 1.7797926844544056
Ni 6.50738219049875 2.1130118411916943 2.419791992776884 -0.5661173211264702 -0.14601423408100658 -0.289850743784404
Ni 4.78157493798981 7.129414237702747 10.232834803239129 -2.314755948575575 0.11396183363115213 0.8355666184363867
Ni 8.188590816206858 7.567610708959936 -0.006722440432585301 -0.5703326447593984 -0.9588530719025744 0.33432285805485007
Ni 7.649489725101596 3.798364747592764 7.8233953505915315 1.258398674377239 0.48445702784150113 1.2290387331578834
Ni 3.225229771496955 8.615116195009255 12.552339737470326 0.8331891193431457 -0.6955872776955504 -0.771588058701897
Ni 0.14298947288940847 4.98887058866898 10.084102282290964 -0.23348316362795274 -0.5357243106569096 0.09470401384280465
Ni 8.775174300547 2.269152377234125 5.512770240549713 -0.10252762365228149 -0.058690057642040855 -1.0541522961272166e-05
Ni 3.735955689104902 2.55994122778219 11.495708672293379 -0.1601956677877112 -0.17794399291006774 0.2926445044794573
Ni 1.1511034349254217 3.675441936229357 12.34630913527402 -0.896686625676159 -1.172143048412104 1.0748720451730713
Ni 3.3442168764692357 8.544962682009823 8.205937850205904 0.36283536367224606 0.073160483344074 -0.6369329583874513
Ni 5.566966005769273 7.650813718495846 3.44253789550894 0.31148092045967 0.2847725579305483 0.26811412343826085
Ni 3.2827327996677673 8.37433076621389 3.4125956942134996 -1.1652159822749675 -0.5739980094261276 0.5776330350755535
Ni 3.514857860713074 4.486777833467373 9.159958520483693 0.08044647548252598 -0.2763357400171047 -0.4556200490051508
Ni 7.24097428384016 6.311240730743742 11.0992433846092 0.30384782939444444 -0.22828207904298747 0.3526810488470636
Ni 8.12877533382006 8.634658700246302 2.3696480100816455 -1.2151012971411845 0.7749677738074072 0.23303013525093416
Ni 4.773431471770383 0.10362968844377246 1.4242151599706687 -0.531910079117142 0.939491379546511 -1.2094978349114782
Ni 5.977530916257424 5.688655508217488 -0.02258134213028552 -0.006201500825021578 0.7901822767643165 0.7332649947519824
Ni 8.256087273969886 -0.0717658830370883 11.169734243870728 -0.7995140956882038 0.1761637610811934 0.03614868200641516
Ni 0.10355260663657298 4.762104980336012 5.868449276932672 -0.4336594855736596 0.34115247938217375 -0.61192872303363
Ni 7.276014766548253 6.046623420851877 2.4348963996088204 0.593493399146578 1.3400062600474019 0.22551248671765034
P 8.508434973845175 1.558503457094442 3.306998152574164 0.5687701853682849 -0.14457338786942198 0.3968747126451423
P 1.9108489320272213 3.577457356606958 1.2536467233100768 -0.20832877584951218 -1.1348905918185488 0.6078910626291466
P 4.9818516099898735 1.2562067461538902 8.04913531746635 -0.2546654541325227 -0.3301067630909735 -0.6784341629550316
P 8.717344808251578 1.805682141663412 12.402665004784746 -1.0359244602652804 0.295437236733246 0.2650030886131049
P 6.246709655445917 7.67194320211641 1.2992401588461742 2.609798006752931 -0.6780469548189418 -0.0684255397622499
P 1.7117420898070095 3.3381228794765234 5.763887352044182 0.6054462006330799 -0.8287105147465017 0.530382586729022
P 6.7765972034788655 3.90520920081915 5.838028261587804 0.32306965373853397 0.9294694765341347 -0.9471342408037494
P 2.8685133046735696 9.074705134876279 10.251005252308023 -0.4187779404761368 -0.5731793701795741 0.15478298141257213
