# total energy = -340894.3654065421 ev
CRYSTAL
PRIMVEC
9.05448518305937 0.00000000000000 0.00000000000000
0.00000000000000 9.05448518305937 0.00000000000000
0.00000000000000 0.00000000000000 13.25215430680052
PRIMCOORD
 96 1
Ni 6.5412044611035585 2.0427008786070067 11.350827393025154 -1.3344151391128696 -0.5767611739935615 -0.27819181938923704
Ni 4.739733172825708 0.27289221905154987 6.017644256521325 -0.7518502139533374 0.1800605250324383 0.018250975790387924
Ni 2.9432237423475858 1.5508069245411813 4.897174369528711 -0.5114327850993966 -0.7312122259880117 -0.23039706850346126
Ni 3.054376600649542 4.228544111148163 4.778382242201881 1.265748429874091 -0.4205283475083403 0.4968032081116799
Ni 4.9899267033405055 4.730108255232438 2.59441419351168 0.391461512049371 -1.0297486704718717 -0.34341273617126017
Ni 7.37851796480781 6.104407048481803 2.5117603268605393 -0.652865827567624 0.47648660804151494 -0.23597276281902582
Ni 5.252561096294769 4.572469670755649 11.377796176704887 -0.5987276509623237 0.46643642289436443 -0.45162146936871894
Ni 5.571885620059438 7.981917902091995 12.535862096463987 -0.12687725614123954 -0.5871404603453565 -0.871701673596047
Ni 1.7461936571330607 6.454136532997366 0.6626841780574062 -0.4339867870060913 0.26932562724785875 -1.4380267398579492
Ni 2.598084881745275 1.5631210241901436 0.45000247359826 0.8856229116628295 -0.30488218419622976 0.13903497454969604
Ni 0.7000058599273014 8.964211820192705 4.737287556417484 0.3642564123894888 0.4871975667011157 0.8653842160184516
Ni 8.590107661960227 2.327174689468106 1.4095388490094838 0.015385995537767051 -0.14735917814467522 0.47103664067053713
Ni 6.941412699694831 0.7725187033381206 5.039011972169173 -0.24572469999946714 -0.865591189822935 -0.9040096417001333
Ni 0.7226828176999675 7.458994227807793 2.731480987986673 1.3443465392939689 -0.8296001164403066 -0.40909156642630834
Ni 7.797758730944758 3.920528639193459 3.7302694614774676 -0.6846071245349629 -0.8126773725430392 -0.042173290933940275
Ni 7.413631257777424 3.8630054957597406 12.548067542292516 1.8676614205429318 0.4213500720786872 0.5128690033252908
Ni 7.847612725552983 8.496629158448545 7.282310439506278 0.001989519626203025 1.9312717983047256 0.1011399992761355
Ni 6.79229438563692 0.7376851939561185 0.41965183975758247 -0.6480105563578517 -0.02216650879471021 0.5166485249723812
Ni 1.9307783890769903 6.582628730143266 9.103925240643722 0.13076862077584575 0.049983788117294564 0.4104917892079447
Ni -0.03954455794623357 4.775933003999642 1.2230200790618644 0.2224338477923266 -0.08905889974188534 0.5012067364960142
Ni 6.321162365758647 2.0640241908667902 6.969241659452982 0.6942418194112496 -0.16019052558138863 0.9428811219543505
Ni 3.3707855802326194 4.303397538940788 0.31787127891639166 0.03055087620366351 0.4704357738617446 0.4562844220620271
Ni 6.145143176658775 5.8099461406259945 4.685908786529196 0.22224255771712692 -1.245813638623377 0.3992704665708285
Ni 5.223668234544887 2.965850900452554 9.314369581850471 0.059038956341027356 0.5216148678387211 0.024309523279642004
P 0.318556703433617 5.616469904376711 12.412696652864765 -1.0309771435623343 0.3162287195573006 0.8425204240464005
P 3.941344900291227 6.2435925924552205 12.597869020887531 0.544694375366004 -0.28132419437063166 -0.12143885873448765
P 2.2413472258118468 8.506580037503111 1.3103967651077837 0.017668878034672795 -0.056507962389057524 0.8848456671771728
P 6.412848081233199 7.8635305102462745 5.791005968827685 -0.5531427632436732 -0.8096671249618055 0.06949460445671259
P 4.678588235377589 1.1417162361295912 12.632496993459217 0.6076246963416374 -0.17840704858941533 0.7784498188187368
P 3.998179902862209 6.104886936188712 7.99886789807939 -0.1752574472168401 1.0309223790649986 1.260033895987817
P 4.643103708521498 0.9729768529986644 3.6653732508789325 0.37865664697521884 -0.4805448372712886 0.08949907260309747
P 0.1973470286021738 5.530886911816423 3.5679306938184903 1.5593833232912757 0.022054665807194274 -0.05376716641912676
Ni 1.5903025882682202 0.9754758908686009 2.7886908462381457 -0.6178962534709745 0.7662771880119448 -1.1544649144060504
Ni 2.1365958884303433 6.480838209368535 4.929284289811884 -2.3152107767248062 0.33013581655669594 -0.8042043020750214
Ni 6.024356346278513 5.851977060163113 9.112127698637837 0.06684971063469777 -1.2091684765965176 -0.2995404602683422
Ni 8.696316771432526 2.107739244620606 10.194616737249932 0.2007602194736349 0.9352619148461957 0.07137510930887707
Ni 2.3502002449146584 4.958679675481264 7.107912003227851 0.2817026607559729 0.38939948731401974 -0.6958726701464532
Ni 0.7121415862210544 9.030943374908038 9.329449826677934 0.7318269767538751 0.7401817764764737 -0.46976394460570065
Ni 1.417959520092965 1.0099191519455513 11.758994523963073 -0.665290426484222 1.0906694172166442 -1.6276407129067776
Ni 3.9284422591149246 6.738945359804798 1.4973075942574618 0.8151677430650607 0.05784725002577134 0.574978628171842
Ni 5.41180232462293 7.952010938018082 8.055732780450992 -0.2221181163241207 -0.2864373472274809 -0.6447907638689734
Ni 5.1930821840932735 2.7894785864362777 4.888825228877014 0.009713370633021983 0.4215848137973127 -0.43435676875100027
Ni 0.8615967271223047 7.476306403196628 6.99660702957729 -0.17763931718545536 -0.5863827562437256 -0.008893960055520166
Ni 5.237467269739755 4.809842050459468 6.834440297133996 -0.41026347524722245 -0.6728916358702476 0.1328393872619454
Ni 8.544880509205397 7.12740087681934 9.248280895572696 -1.1904639582084788 -1.101849859313496 -0.5601302503050998
Ni 4.476084677547412 0.4929732486821166 10.57782970742863 0.4516798334104802 -0.623865326570216 -0.46890699592204405
Ni 8.307607728836976 7.19239397040776 4.691382222733459 -0.5704791976395917 -0.08652893423118001 0.5144484319972689
Ni 7.37734088175313 6.266726801722204 6.888548994260639 0.2292444429562568 -1.2628011743203091 0.424924676803823
Ni 2.38298653523002 5.010924054138993 2.5827520167853097 -0.9335894122397792 0.16660182842437116 -0.02576296789671692
Ni 2.3411819778188008 5.558512145661264 11.359030756467773 0.1643318014432718 -0.24625691835385335 0.9980477398241651
Ni 1.1399777750026787 3.1350792257754247 3.8824309879559786 -0.78571447080095 0.16413974003712375 -0.41692828886190775
Ni 3.7562712261553535 2.633641844481654 2.501251691527756 -0.31704967279669916 -0.01261717454337827 0.07766942695802108
Ni 1.0656857252822853 3.2933606786897696 8.235325774794573 -1.150193026503574 0.07971551085377239 0.5794119813528473
Ni 3.8490434798342257 2.8066911624897166 7.065929072461421 -0.723531312403986 -0.1374951408664019 -0.02584498608756194
Ni 4.173628659404813 6.89349636488431 5.846346981367727 1.0719494722096377 0.8518388732338492 1.4066662232687968
Ni 0.7678628871326084 7.490014893541134 11.445249373877589 0.6635896417430314 -0.34707115885945383 0.3129603332186739
P 0.33337074640101927 5.474296380341412 7.93955106116004 -0.6725417087299965 0.3463939302867712 0.5079494545364865
P 8.421078535308148 1.3913393340871203 8.134357401261113 0.18141549639843596 0.6774985385146397 -0.866420627702766
P 1.6821150665332771 3.209805890777546 10.493691810680088 0.8985437334895557 -0.7833971355216831 -0.04722576575618318
P 4.02240970481855 6.041043762199863 3.8756980728832073 -0.3181742733194456 0.9846090978207559 -0.4253861898212738
P 7.034900257691548 4.053638623707719 10.244445379300057 -0.182215366591912 -0.6472883334798465 -0.19539432717603122
P 6.268573916669548 7.7342143549620985 10.16307724952403 0.7044079613109739 0.4361038333490941 0.7020608012350361
P 2.4491295484180124 8.531724342448088 5.987615056899425 0.9071350747029925 -0.045586173270231165 -1.1648819959743164
P 6.834578830755048 4.095216818993039 1.6160336238435298 0.9064215935757356 -1.2343912557190484 0.017132031694596303
Ni 5.360418122043621 3.033958736893358 0.21447992518729608 0.10957527452768225 -0.9290807257361483 0.9788809370877272
Ni 1.5404304846899235 1.190465583563424 7.135662188966188 -0.45495490461732613 -1.4758096150336777 0.38406264848213856
Ni 6.5772865839720245 0.6635126634382004 9.194623111800848 0.7830952880105481 0.6867377977247204 0.23686802093978562
Ni 2.783068011030789 1.7319509521714302 9.332061140162315 -0.15614823719121493 -0.3057273058053444 -0.18295790118489136
Ni 6.405269477258066 1.8701042848507432 2.805348382358878 0.3666899615316459 0.6350933340755514 -0.968149666713152
Ni 4.2150167105043765 6.918776487104827 10.404703426297761 -0.5719138732035892 0.26306344838823087 0.060360503365928304
Ni 7.741901612757664 7.118020430322043 0.0942653382613095 1.473325158048927 -0.4768954134441593 -0.5053300146357684
Ni 7.467079882944943 4.068451761226618 8.04653523455142 0.9262070037327791 -0.36226843542518256 0.14064371379771262
Ni 3.1603231300557972 8.472218266791485 12.544634987015367 0.09604818657552491 -0.7362523595150804 0.34402388739269785
Ni 0.2525730491822586 4.819919692304539 10.384984568786356 -0.2811146494629868 -0.947589068952981 -1.4967998441320995
Ni 8.65491061136289 2.204341545469708 5.850043927607927 0.2694870925263875 1.1144814320345773 0.8438216593563274
Ni 3.6848132302512284 2.7991668854247997 11.575941810887235 -0.9219713683848766 -0.15665345896240762 -0.5378241306087318
Ni 1.2400207801654608 3.6296895253520503 12.615003728369661 -0.8315829511982904 -0.8922437594134569 0.038735983117617154
Ni 3.0037348658431844 8.462439422952603 8.0963774583291 0.8134515317049024 0.3204849237304932 0.4008303548587807
Ni 5.614423590758575 7.869334435154351 3.6727019510670726 -0.04529795260585102 1.0420344298177602 -0.6707329376560319
Ni 3.183230977196881 8.268963186703319 3.3592881951339044 -0.35583373554343234 -0.31274384633249364 1.1208564823229858
Ni 3.2107656661913624 4.524716316675777 9.450945623236514 1.0541075589322104 -0.92112239012102 -0.45940239886571854
Ni 7.469406885599195 6.013029185498474 11.146559116061463 -0.8777360527155852 1.021471518064744 0.9942152534519523
Ni 0.3391022354288083 8.883807993073011 0.2747909445635994 -0.2187062624290943 0.19916690684458602 0.829346605668604
Ni 4.549788185740465 0.016777055323207442 1.4506072767872764 0.09328553622872321 1.3416193701707928 0.07464452408876822
Ni 5.795630999784075 5.467414971714052 0.2959666687172965 0.03514852287667495 1.3272487032714175 0.10215327103199826
Ni 8.001321663524147 8.80452692209778 11.068278565682709 -1.1300227222032861 0.6171249225225888 0.8353578448596903
Ni 0.16084115583402236 4.960807479464724 5.7196167870098344 -0.34222951449643646 -0.9114393585053011 0.07238580996157856
Ni 8.003757319998831 8.805052082229869 2.633719713052963 -1.0093353969228422 0.7778389247076153 -0.25095355249857426
P 8.549733713184695 1.5350430660935024 3.7369091153543676 0.0061755326830925895 0.5856373934372688 -0.6953540786388218
P 1.7084817269581138 3.116463204541405 1.5735871034432578 0.041900753998843965 0.6497928450692552 0.4885214277188619
P 4.670683669941159 1.1328066228541656 8.215898471701328 -0.31971899209874616 -0.5124789669757238 -0.21627656994167915
P 8.31325772749944 1.6336464081355604 12.53333046244792 1.5600191571030617 0.006589223181743491 -0.8136322802571407
P 6.364506185625986 7.818710809318066 1.470180357089601 -0.6887219180342848 -0.030613868231115022 0.5569359117375183
P 1.7468999069658688 2.9441654087913296 6.060607788017153 0.21988588455949226 2.0788415497983097 -0.15121017645964924
P 6.892400772194954 3.8837855389173646 5.826375503723819 0.9331494964888832 0.24330503481438098 -0.4185593967074276
P 2.5021163948486937 8.520370018212942 10.493002764368848 -0.46453560632722574 -0.10803055574838169 -1.5201657725515496
