# total energy = -381174.81650129316 ev
CRYSTAL
PRIMVEC
9.15798365731877 0.00000000000000 0.00000000000000
0.00000000000000 9.15798365731877 0.00000000000000
0.00000000000000 0.00000000000000 13.40363478566921
PRIMCOORD
 96 1
Ni 5.579648054998117 8.803533032661383 9.031610783397706 0.302849212926601 0.9628295400518192 0.1027237988234876
Ni 8.47863524738013 5.865999887175986 12.996525911951789 0.22897859088937986 -0.52479609378018 0.8254094753977268
Ni 0.2754492526650197 8.208914313476376 13.115241769560365 -0.6065561458678069 -0.8397721718773021 -0.025596103301549464
Ni 9.223554793919083 6.500648152812619 11.014275776003991 0.7980897045368514 0.28592621191901724 -0.9859746107097148
Ni 6.545101005358077 4.479920748638672 7.772473203366441 -0.03376141272116121 -0.9652296648528795 0.7021890992827843
Ni 7.744522121525899 3.9784661969330504 3.6380144922527027 -1.2838834489119049 0.3776865697524657 -0.2115385410360615
Ni 4.70258796264573 5.247542936599173 12.337294870854139 -0.6257458314223804 -1.2359334033951876 -0.3979193518595727
Ni 8.051058149626755 3.387812884660318 11.767801995559473 0.407627323175956 1.0554085371318211 -0.4058928569833526
Ni 8.157070968140603 8.544261358080737 3.0949259153632824 0.5035348704085586 0.32399345110438393 0.8757609312670852
Ni 4.269369546975586 2.0876356325829124 12.773784518277319 -1.3786651100701806 0.21897442848881643 -0.2936307796521266
Ni 5.770124956541787 8.559106449546784 2.5369995733947217 -0.07414984384053681 -0.5519078623953075 0.7542953330597203
Ni 7.964533520279931 9.099867066997172 5.496964283986185 -0.07452625334334906 0.1905449695035299 -1.62116796069824
Ni 1.6024273438388987 0.6194478444057007 8.382137573859016 0.33181114737658984 -0.2467929933629814 0.20765077594588108
Ni 7.9604032696622955 1.2808355906484798 12.689301203481872 -0.3901685042695603 -1.4345842898353036 0.423573047871935
Ni 3.536254641337147 4.931134602143968 5.130067069974251 0.24488292082446214 1.5475269381733219 -0.7097854235728034
Ni 5.7831476092652405 0.15697058683249063 6.703412320994164 1.1074846890017702 1.47649815646027 -0.24223468456833763
Ni 3.708827684881977 4.488135459955787 7.837534266477007 0.32489025188704046 0.6745829075297415 0.052037585322529736
Ni 4.471715195305188 1.4576487806145186 5.166068935224911 0.2767622860315621 0.10848306990476801 -0.2744259245889015
Ni 6.92083475777568 6.456131194381744 3.714776711048753 -0.906414137376568 0.18011503241945756 0.5155848595945572
Ni 4.670443440100498 4.040923645297291 1.0734109245970584 -0.7809504737534034 0.3456804491595143 0.33657154487971064
Ni 6.669649582741314 1.2414471030510317 10.621442236550363 -0.14118981610916975 -0.2836980939194469 0.3397126616118537
Ni 0.5969430154305858 1.8842368161357315 0.7245952334664081 -1.0634010684189945 1.2889626632070252 -1.378646083906787
Ni 3.800297625389606 7.426181452524527 12.781974503038631 0.6312171389495967 0.6949730411503192 -3.283681317112487
Ni 3.6362781385562424 0.09358268733132863 7.1389367169426245 -1.4328958463892871 0.10479919329527759 0.3466950064669577
P 3.4067699107767373 8.237047639191177 9.083240747714873 -0.534611280098389 -0.10056175817516229 0.6803766313933831
Ni 8.792625874156718 6.0056957694850945 2.393232051563217 1.877434954989928 -0.32953854929232923 -0.6095401681967955
P 6.104189883437792 6.84178304307185 12.94504247537272 1.8524258345401001 1.2313570968784149 -0.9293568622156705
Ni 2.939163266571737 6.857305825326598 7.413925323030998 0.12678623908933004 -0.9233957595362291 0.44260821012651513
P 7.792473323818444 8.691366049147423 9.349369920438502 0.36241935918075 0.03162534021476489 -0.4796503504814772
P 9.152781896417785 6.292249077302847 6.832636964819449 -0.15903635737228738 -0.22467302153549049 1.5436458579513608
P 4.966191363483896 2.949365260336805 7.023504912264169 0.6614659105318091 -1.1457010521704913 0.11104748819783457
Ni 1.3349775898756628 4.019127644255224 10.995283033751413 0.006983373296368617 -1.2929725556973668 -0.5994372754348385
Ni 3.1093277604215825 5.860569202882731 9.93144952843578 -1.6595948972158707 -1.2178220385064575 -0.3119699442809466
Ni 8.807498439573658 1.6171900134522648 3.6673548402100855 0.021445057247653387 -0.957288812739248 0.2988578323790208
Ni 6.504851667299303 1.6871295344431303 3.7092013306141265 -0.897850564077273 -0.405643717087024 -0.9049416665960995
Ni 6.797101240935614 5.8901311740439874 11.202798363840783 1.2094099031833623 -1.6549080332631627 0.3790438551113085
Ni 3.3302000096369406 8.783678524149114 1.0670607787472395 2.118612916158977 -0.5588362140840247 1.962254619839485
Ni 1.9341753008762304 3.0167405459109564 8.100205384581525 -0.9365914322908966 -0.6246382001804984 1.139783915355108
Ni 0.8442909953235129 1.2306956302680965 5.938185861551564 0.7521584892223756 0.8268922305908404 -0.3659530833656214
Ni 7.673309640810307 7.709346306398766 1.1009489813758369 -1.4978149156601752 -0.8912888516993553 -1.7292411967590995
Ni 3.802193328001248 3.2172912294488594 3.1366112252554155 1.134347574830885 0.42778091530569556 0.9568627809454231
Ni 2.1331599692132115 7.810340549882759 10.916309161908446 1.9698344890692723 0.2426298631242273 0.2042129539089257
Ni 2.044785427172901 0.4448811078243756 13.034632281840882 0.13480910939380655 1.3817316648106461 -2.9317811122955058
Ni 3.3414368555523257 7.582471601173225 5.249439555009177 0.9676161628071851 0.272881205809601 -0.8534555829016656
Ni 0.2809284742715189 9.015045822605737 10.894742110457159 -0.7138999599618092 0.41884221805516897 -1.149417067569498
Ni 2.9103614080518634 2.9815738887674548 6.040240599540042 0.0886413525884925 -1.7705703945251894 -0.39379967326424437
Ni 5.60933823793021 3.2312754704535798 10.97307309184922 0.42946447365570556 -1.1272667567247037 1.2391711936061949
Ni 4.304279780577416 0.36871049477089596 11.194273196878571 0.10294517080567432 -0.834483412674537 -0.7529503889960516
Ni 7.236098344276995 8.290502789646025 11.41118461817347 -0.7155140985264645 -1.016962317340481 1.2599158823527141
Ni 2.7465525548420153 2.016294940096486 1.4318562355158315 0.18248636086511152 -0.7228463705218195 1.238323758004235
Ni 1.6139206132959547 4.837897170795532 6.329732704305022 -1.5431308659881553 1.3515764813835045 1.2234563539740995
Ni 0.6542408558170528 3.3323063458720985 2.582799565332317 1.9187083598174182 1.2722571775268865 0.7856573923107696
Ni 5.670879887931338 5.8110611433728945 6.17029587248067 -0.9457052216667068 1.8140963428322823 -2.2375508628484817
Ni 7.110157753381829 4.946831386087707 1.2321425916818134 -1.6821776676123934 0.9337102540883597 -0.09574916727786736
Ni 2.4556583627831112 4.9598357228438985 1.7354626246530935 -0.284538073322239 1.5798151087830663 1.7897161142157048
Ni 7.818610209101661 6.391420882044249 9.176235492497083 -0.7851305732730219 0.25761116702440795 -1.47848587631426
P 3.5731063674687746 3.6634132440552514 10.524989437149042 -0.6307322288933782 0.31987634361221684 -0.397314114175406
Ni 0.7810230654079187 5.100978566566724 8.8707801064647 0.050992431887467014 -0.7102754758353444 -0.5652943110045426
P 5.884141852749234 7.9524541398704836 5.093930582364213 -0.17448971581288011 -0.7648473975439537 -0.7811319936365902
Ni 7.266493691948683 7.593131494119849 7.067321284947264 0.7165335409299143 -1.328439381145409 0.9421319024931516
P 0.4037901510699021 4.317210853464558 0.7540427298322752 -0.604470724093688 0.7793265649967352 -0.9829432800825587
P 2.017595373772105 7.162449839915525 0.38465637586940254 -0.9504229388573504 0.45611781457717576 2.1977985226512087
P 1.6311284645388298 5.295640666629816 4.044881725822662 0.2867541071369513 -0.6667790952146065 -1.1063145799530687
Ni 7.7460423468086645 2.8337548749775423 1.6031682247146564 0.20784000913855172 -1.6799048124178166 0.4204303884778953
Ni 8.498682073548652 0.7860407246394093 7.675216333002306 0.2781985042574564 -1.2121275592248415 -0.09712316480725854
Ni 8.682208065516301 3.3715299897641864 7.425037620368999 1.2548040150474453 0.091613547842939 0.5905260889881379
Ni 5.287545009099906 6.5868339367650925 8.18740953631378 -0.4063322585136164 1.0950354074948236 0.47577801201026454
Ni 5.68667740969502 0.17880779880089687 13.299769644937259 0.713723582284945 -1.3358631844133058 -0.8415914844742282
Ni 1.9609349290463638 5.771526128037348 12.272140396310535 0.5333509253287266 -0.11935600806352992 0.28236497693032014
Ni 4.891910958251879 6.5932811572414005 1.1113744299415043 -0.1950773101562447 -0.6674606946626634 1.9026399935006457
Ni 2.0908958747555912 1.9608616651773147 3.925857244165717 -0.4848210960491393 -1.4769072189732306 0.5224275935480034
Ni 5.570462597416103 3.778812995790998 5.043654168027726 0.7671426213360336 -1.035273971165475 -0.46405532425669754
Ni 0.9811772082545936 7.429029585433805 8.801818658125637 -0.48719011050194805 0.31444077441894236 1.0466958398491715
Ni 7.3445563444203525 2.2778469526012803 5.854801504791851 0.2313416918049177 0.006303059399892371 0.16963418749279172
Ni 1.1354983904226013 0.14291857674889968 2.0405690915091332 -0.04734789315634426 -0.0022990804468218467 1.1434760194947144
Ni 0.9677699202186337 8.158664457292419 6.6486988635883995 0.28790930378731705 0.3301640986914701 -1.1746215918595835
Ni 2.0182089586753897 7.2301181809658726 2.684802102814098 0.3600107497392574 -0.5446648076796491 0.8294538206704295
Ni 4.942069234599525 1.4628138833824706 1.608918522636637 1.5029715201604503 1.4835326947095482 0.4870798101763289
Ni 6.265571870985394 2.9919132522869893 13.343050275577934 0.5485523156595133 -0.5739748694976761 -1.32094332987868
Ni 4.526058670172255 1.9131119385246538 8.99219024285755 -0.1383322920557166 0.5617844980790713 -0.3002804237581603
Ni 6.917446303832165 2.0869579417942097 8.459677305465346 -1.5275335257705305 0.9988257556407703 -0.3224911555272446
Ni 3.6877002166449824 0.2945473117293579 3.1555911463309125 -0.9236834659799769 -0.2267712988254159 1.9564182156633663
Ni 9.070891206788307 1.9797820593592095 9.785122350179378 -0.3105185565464007 1.2643613197185772 -0.7120523652301091
Ni 2.4383039838021388 3.6619937565924277 13.40805822238344 -0.4680356490606843 -0.48395334873220514 -2.835887191909658
Ni 4.464764285729168 6.180631572806753 3.272725420166393 -0.7723869004541084 0.8832947777502853 1.2107615321152503
Ni 4.891141687626865 7.072747390248702 10.550724286950853 0.17594033221647765 1.973727139255459 0.9485604317273147
Ni 5.301758199695405 4.987932416624175 9.73676178601852 -0.4125221893744121 -0.7311579757113086 -0.9064069382877165
Ni 2.494882006675199 1.7137426348751656 10.306483610903966 -0.27721274330541934 0.3848414356296921 0.6646607633200231
P 5.712621977321983 4.529309754361304 2.9390149072369125 0.18292293418189787 -0.4131955612923529 -0.07933318781368918
Ni 0.3657048445431623 3.4091967764389843 4.948997249216467 0.8623672835689987 0.35002972726714554 0.913014159191589
P 1.5619856881238716 8.6297969251954 4.577099776141941 0.01403179550271777 1.360649133108734 -1.092570490894099
Ni 7.8443441431051095 4.993161625277544 5.784111029143235 0.015882989778843615 0.09816754691137286 -0.2125548981157178
P 7.964414466492727 4.1741997810809846 9.753275462102158 0.13433756907402672 -0.0003733241790187119 -0.9334605999713987
P 7.3287771386239315 0.7136038215123375 1.4315613484429095 -0.38487177464699523 -0.03649552382287263 0.48494116656677133
P 0.8094943207187084 1.7760352395340457 11.71394572542158 -0.01875774022347737 1.0049596364526499 1.5247402792961096
Ni 0.13348768520557205 6.858945104396569 4.502040026502916 0.16091069157686483 0.2553910194446376 1.3294727075059296
