# total energy = -340890.5459645929 ev
CRYSTAL
PRIMVEC
9.04082125503050 0.00000000000000 0.00000000000000

0.00000000000000 9.04082125503050 0.00000000000000

0.00000000000000 0.00000000000000 13.23215576695370

PRIMCOORD
 96 1
Ni 6.333239869627397 1.724012266984605 11.235106195788312 -1.8001879602813062 2.5474173876331805 0.37847178465792236
Ni 5.0111825110298005 0.4709164839649314 6.216480376704641 -1.1280915666188445 -1.0735003616365255 -0.6271941338331327
Ni 2.9531299841467877 1.6633845203439555 5.047696579495691 -0.07210041751067582 -1.036421454506357 0.00520956922539748
Ni 3.5714950284325786 4.155233727708873 4.737640714029578 -0.5310168778789113 1.8165458328140391 -0.22921898903496007
Ni 5.377371930942248 4.5063973028678515 2.7418351448554144 -0.41961406322418704 0.06492369725657851 -0.0023877835058862106
Ni 7.1123507139833855 6.144259585101674 2.6536952753692296 0.5827829547076093 0.06791517578473465 -0.8501213763221099
Ni 4.967027140526828 4.42655781128068 11.778074408000682 0.4392547202732499 -0.14782789025097767 -0.6677532862024178
Ni 5.4598603831267525 7.708113705390915 12.429029804372696 0.11334913974781768 1.2996355695398392 -0.04584405491730815
Ni 2.040992497370501 6.494356343364799 0.25909456480043686 -1.6263034821525926 -0.5492539697122283 0.6201079164103126
Ni 2.880577394407567 1.8609355033211152 0.13146529260746773 -0.46446772920376783 0.4827922385445685 0.8670667459271971
Ni 0.9039645844555079 8.973331421410258 4.48075210959006 0.7879137924451141 -1.2047271529957124 0.6597324727804702
Ni 9.130867729971742 2.339312472900103 1.6504471052764382 -1.500182130340771 0.06297428683969154 -0.1861761510118729
Ni 6.836804566933919 1.1266038461275385 4.745183471116113 0.673936275084678 -1.1402204886718943 -1.0325072070536154
Ni 0.7271767513344343 7.281612967578114 2.2904332733455743 -0.8633633289336807 0.7709925912097432 0.2626111913421606
Ni 7.753091790618656 3.4243918274796994 3.759850592216747 -0.03352975632632935 0.9210231455389946 -0.3394910325193508
Ni 7.583657761422054 3.7148372477865155 12.619943920542683 0.45039942403615973 0.436877478290325 0.15268933210833704
Ni 8.014814522127777 -0.006422599345886893 6.488983383354578 -0.5711962783112744 1.1873716924364002 1.1079477446811177
Ni 6.72614491604195 0.8791140793569164 0.15245175074599143 -0.6767338924344731 -1.8125433965228654 2.3760518192715785
Ni 1.7182713455535263 6.303866241706807 9.329212497045988 -0.16979179611657852 1.7229252818434004 -0.3566554601137793
Ni 0.06539858796219315 4.976935880508658 1.3300304587709315 -0.385674987274581 -0.6923471734916979 0.3439637235787238
Ni 6.357116678287992 2.220045960272091 7.0189436620944505 -0.3122756484468235 -1.177794076050294 -0.1898104053303505
Ni 3.6271955275457675 4.570117010342248 0.7752133463576617 -0.3640810631538891 -0.8009973651019495 0.2864903119526034
Ni 6.161663165817935 5.665973023734198 4.850763084603164 -0.5040305790980546 0.05822057420479006 -0.7221184912168596
Ni 5.099330517255022 3.1058113717500224 9.236296361745568 0.5435846872415929 -0.20946700321901346 0.10054376045303329
P 0.15006226171570158 5.6356501095927225 12.502971064240755 0.48323241140578066 -0.1668543107548094 -0.8043469983004728
P 3.991025293137724 6.146221443291507 12.683867950575097 0.12406781171690245 0.4023920429189457 -1.0086627963358499
P 2.417416126826225 8.241811459594738 1.4647070510513427 -0.987842517156389 1.4505783512707147 -0.19065089895377488
P 6.473463005684134 7.859158704365763 5.687961204856287 -1.2306233040361838 -0.13853206677134852 -0.10462692938347143
P 4.726676910219392 1.1279057243733264 12.575059859854914 -0.5548785149878573 -0.4784645577034921 -1.1314090610278513
P 4.238400241479725 5.850279203724697 8.218716681963729 -1.0997294705363834 0.7221994809664402 0.0005838975279280266
P 4.6177711786307745 0.9904581204100403 3.7902322716957064 1.172344880010265 -0.12784656203304431 0.4040056672629687
P 0.008466729008196897 5.659617326464831 3.5039537658575264 0.8134245351217089 -1.7981328775244902 0.6976228200683404
Ni 1.8888535590363444 1.1339811561870032 2.656077531742598 0.417984498040564 0.33333812554407755 -0.7519129488704729
Ni 1.7095107898579123 6.4819252142817545 4.695192250559972 1.3094232450542225 0.009690487814886538 -0.10434667913889127
Ni 6.086488737944836 5.448812499679858 9.221078851583691 0.49700992480584727 0.46588697814879765 0.3546163181965635
Ni 8.482224975650233 2.2558024079255015 10.179444769152946 0.8471376111034378 0.29070486425458325 0.9053391591448344
Ni 2.422008863971088 5.42145497487601 6.898915008243383 -0.07892078286661891 -0.1223001782935184 0.5201678509795493
Ni 0.7435062824979208 8.817766011859757 8.778212419322799 -1.117393720585366 -0.32991598723640597 1.1822233154662414
Ni 1.4294171097693398 1.1654341729723923 11.522772467673217 -1.0392666372646358 -0.4389281901717667 -0.08640680683101894
Ni 4.177437984456477 6.90797391103699 1.593085807317755 0.6280971052633764 -0.029993461038296736 0.5266637431165381
Ni 5.85279255200476 7.6934766159469525 7.978844711095196 -1.3121887236145013 0.32071375191184764 -0.1278805005947733
Ni 5.480428251245971 3.0032342149673186 4.766341704856511 0.4225767453969368 -0.3609620579089332 0.1589257999363521
Ni 0.577573763333219 7.4780248070902084 6.5893618124332844 0.8811530488169341 -1.0843311337034423 0.5974629253172871
Ni 5.143097132448489 4.485368352869917 6.82873201772792 -0.4121956592729288 -0.3443213640284586 0.39005588995109597
Ni 8.132770115688851 7.143668118451505 9.214264784681953 -0.27063226187442424 -0.21798969597804393 -0.39759822107472814
Ni 4.2987567634858355 0.11779647510881008 10.395221143489023 0.6518227310150903 -0.3239412577102098 0.4761145694140768
Ni 8.22949786118666 7.3886924532941665 4.444019253252309 -0.6927356671793683 0.11189081003473633 0.7435172686076098
Ni 7.317089149775834 6.265044955683105 6.84048237297827 0.8356851462921221 -1.3067708950330397 0.9468329075132468
Ni 2.182861062876775 5.375138848117876 2.6335432850229714 0.9625346345192198 -0.5760860023034079 -0.3741957829903878
Ni 2.2985383695077193 5.114925933741023 11.564877379939073 -0.28485431901107716 -0.3854289327020459 -0.24959858113257657
Ni 1.2597570600439547 3.473528690437041 3.8895131450866445 -0.42031134640152773 -0.19988938683290738 -0.5287784754666959
Ni 3.8808809690513786 2.6971210516052917 2.7553050642887436 -0.16804447440816866 0.02860326555898945 -0.25546326744346975
Ni 1.12910815358645 3.3814117637263967 7.928614812860662 -1.4779767978883256 -0.06682631359593007 0.47513729310247205
Ni 3.4076391858863317 2.681507553476988 7.595773365846917 0.6063396589816267 0.5663003836715537 -2.351130887660183
Ni 4.276037179932606 6.883283428472778 6.08561358645739 0.1532853138211231 0.36281119530253 -0.4137645464219455
Ni 0.5061178251996516 7.442684237209759 11.213550165917255 0.28100357780641927 -0.378203104377568 1.029383573822969
P 0.21094043910224236 5.747150556851763 7.854753112218733 0.28901359259508935 -0.7466871816951592 0.859056988248843
P 8.347037576974772 1.4463415269645823 8.182527178977171 0.6687099936887322 0.4066503039746674 -1.181798569223997
P 1.563582895654702 3.1629945655320246 10.53365600512203 0.10944491959740507 -0.575984443728537 0.3000125148087543
P 4.123563731215852 6.086615309440954 3.7970725569787835 -0.45099617707989426 0.3692440954120673 -0.06298919923802701
P 6.783291946539347 3.863088633025611 10.648286384663653 -0.014311788636981801 0.40178706234509515 -1.959668604279864
P 6.180459032991498 7.627795050282723 10.145160167182967 -0.10621252870303644 0.3031973402946391 0.9505550935598402
P 2.5120283201746294 8.232942414045308 5.835618608145741 0.18480960968164947 0.8617767011728512 0.8182484388729134
P 7.07752547090856 3.887372278638015 1.4810221169009872 -0.4994794693922623 0.02870302436164734 1.424989961278649
Ni 5.227628810213187 2.8949070959323855 0.626009058569219 0.4532291801754711 -0.0013256607899590073 -0.9232417504568681
Ni 1.1961729648868287 0.8224859919936041 6.8790270098747435 1.5761186337680857 1.2286728651780323 -0.9343910822054682
Ni 6.592223232327672 0.6434714046229641 9.23750059912292 -0.21757729103097367 -0.060612985696366584 -1.277065397548807
Ni 2.590593055979468 1.5322293279019772 9.368472262895528 -1.0239351491138882 -0.500782504474402 -0.43130049842317975
Ni 6.289807764816529 1.831164079269869 2.452606619075564 0.3169691972677509 0.04424482875098831 0.5178451163836436
Ni 4.05827996168228 6.593724008638789 10.515117801351279 0.20006627873040383 0.49426038708516823 -0.9076490382249337
Ni 7.902247257972882 7.1571389419669496 0.33944215053631244 -0.3331005556119747 -0.23374413059882326 0.14224936772193567
Ni 7.518970686084468 3.534952029339005 8.404165621747753 1.0615784133879589 1.6409605699441352 0.1068496480664031
Ni 2.8845011107872334 8.583219988731457 12.676695867155766 0.9260159707678955 0.08482969215188615 -1.6456536045444305
Ni 0.007203726293359623 4.723648235133705 10.392627331900712 -0.5898933405001454 0.18958749068626704 -0.0642302707339797
Ni 8.742157624571394 2.4419257929674125 5.903089352315813 -0.052081036965955466 0.020606106286125803 0.15304902944060095
Ni 3.727901234350151 2.5228321014504385 11.141634049987086 -0.20455851017380253 0.2518866058358049 0.7091015101319013
Ni 1.0345682868072563 3.2764930342655045 12.829395336401305 -0.17420303781039675 0.8028619291145142 -0.5225414934180485
Ni 3.147001352915367 8.471421194374424 8.129810150843912 0.34450545501480667 -0.925613078902522 -0.7761345404219988
Ni 5.612532729908836 7.944585423424442 3.6243928729888633 -0.14467726043713794 0.006152135644324888 0.403364434134544
Ni 3.1507261712297043 8.325321524569338 3.441035075137136 0.4957374858513268 -0.7145530201647758 1.958579484980743
Ni 2.852523726375069 4.3600535308916815 9.298923938024886 1.6398678511005889 -0.4909840303267415 -0.10607137513948182
Ni 7.217386974119244 6.2191808699825355 11.46722385435537 0.015826682619611454 -1.0230625167009477 -0.3191204392827988
Ni 0.3421299866645953 8.793862080735707 0.37773997301535445 1.4316812572558955 1.7491721313550712 -0.30743811784886405
Ni 4.363678900173355 0.4177148678179635 1.4180772077992583 0.6364627036192523 -0.44013686576788713 0.7199106849322633
Ni 5.995628485374223 5.663658573519464 0.5077677750597648 0.07779155435818216 -0.6241383777259444 -0.15595103357874435
Ni 7.862937767607009 9.170647343037484 11.152338382230232 1.4434980473851657 -2.3008097708081277 0.5978722449405639
Ni 0.14913557754769288 4.922889851666158 5.764416717086526 -0.19162946081696028 -0.29663305681356006 -0.05048361057184854
Ni 7.856482621304977 8.841859800227985 2.530715697494376 0.5575241801408205 0.8787842914744413 0.09364754755383227
P 8.99863667981276 1.5594150771039508 3.772673188855642 -1.6725383447504163 1.150632685144154 -0.6417671465513013
P 2.1413908162557402 3.2351222366771344 1.6822698916469156 -1.5353599637934847 0.7087204726433988 -0.2030330746682116
P 4.662685978110456 1.0400741468884007 8.272386612646335 -0.013436328010563955 0.367002093455426 0.5065718574626695
P 8.46716296761216 1.6530599025891652 12.682822831650006 2.4274160326761676 -0.13964201200607562 -1.017638774582215
P 6.207699027120379 8.000620432920227 1.459520331956839 -0.16941847193755982 -0.48188978133495725 -0.6705257067412324
P 2.0182729138172717 3.3983813850273954 5.942521797849344 -0.9342499286419136 -0.06627815440194391 1.0006694937177283
P 7.12534237397781 4.050396365638343 6.02862296216591 0.08564087519927185 -0.08679092964331504 -0.21185272984237064
P 2.1786932443260234 8.4078551808596 10.262369892999057 1.2776413246569351 -0.06396930376310919 0.6684845079414875
