# total energy = -340860.5793124626 ev
CRYSTAL
PRIMVEC
9.36964105767706 0.00000000000000 0.00000000000000

0.00000000000000 9.36964105767706 0.00000000000000

0.00000000000000 0.00000000000000 13.71341678574454

PRIMCOORD
 96 1
Ni 0.6842283228010888 9.504469886331004 6.510074182335395 0.7624079348645257 -1.5063867164895863 -2.128597795285831
Ni 6.489638058882802 8.132285997636147 -0.025528523203400523 0.5619194809950387 0.21127757406519096 1.4325325495125973
Ni 3.6191549169192903 5.914482661084688 3.8980938070414495 -0.860324542107357 0.5059985014577028 -0.7673390536175559
Ni 5.734257621145831 4.143320729724046 9.227661652516726 -0.06784678444064444 2.2269067528710744 -0.26993832113119315
Ni 9.10162218203305 7.280042213765155 7.526992213382753 0.5476768550330955 -0.8771254157147796 0.2489933434484099
Ni 1.5623126389126512 7.836111653343594 13.312175705964805 0.547163919952419 -0.24939340710030597 0.3300067471779994
Ni 9.101378571373399 7.646929236842141 1.267810775495018 -0.31787345424957514 0.012989984501764725 0.5356685177183097
Ni 4.4772734655442035 0.26393622134388545 7.463760255777795 -2.7910124428841545 -1.432498096730236 2.0154805690431608
Ni 0.5419006688274359 9.135324779831858 8.758223911366915 -0.2124507684376857 -0.7550790053032802 2.4314094701062774
Ni 6.910775301936183 0.24687316856339925 10.826618956425522 -0.9449953400838758 0.670057251745246 3.256321179931979
Ni 3.027012360430813 7.895374631124373 2.6754194019596085 1.0624253347692865 0.1602586598151627 -0.28218140016460436
Ni 9.135877588636454 4.9979162934247565 1.4824336405767669 -1.1497968195064197 0.45331762612421933 -1.1565323384580404
Ni 4.639452577387284 1.1634470319359353 3.3553714207197256 1.390656992324734 0.5090046352738782 -1.5919476303805422
Ni 5.258710874223205 6.530330408685477 2.554357084645442 0.1177711800749133 3.218550388941109 -0.5035001605158812
Ni 2.30917607320255 1.2983323802572133 8.148388662239158 0.054235878525429174 -0.07124655415081278 1.3504266840497774
Ni 2.516282612469953 7.8254771110857 8.052750865116003 -0.7368349714914277 0.6221869104265284 -0.27248525592276296
Ni 6.120830259450867 8.854113751826404 2.178170693118272 0.1187145178247891 0.17857725561869245 -0.23915964518743973
Ni 5.3179363734409595 0.7114180833105023 5.551643322814232 1.4797685996814256 -1.0931736716957365 -2.8419812206225377
Ni 4.442896253610973 3.048862362673465 -0.3390067200438654 -0.758289798931094 1.2289047786831802 0.09253965920163418
Ni 6.4312183487700505 4.75802538115262 2.7167376437647746 1.131172262426697 -2.270518576023754 0.4975627119855237
Ni 8.880976511873438 9.167781215410137 12.395364790681144 0.09190279694858365 -1.4904620748395299 0.3725813873154164
Ni 4.8286724724517605 8.8449033949634 12.224852320349806 -0.22349545628762155 0.2991486241465622 0.04356348641324755
Ni 2.437165365927519 3.764243804023694 0.7332868248346662 -1.5654657820399296 -0.1779941294217128 0.20149915452218845
Ni 9.224579977672125 1.6572364694102109 7.860941201346607 -1.443103383049908 3.183622466715672 -0.05307476833779247
P 6.171594973066085 1.7007865596434213 1.5527705967668892 -1.4654686381189859 0.7749919421771233 -0.48814219000257214
P 0.8548897704204451 1.4512449173927549 4.772337507407187 -0.1661673119901138 0.858041145389819 -0.3381496880001079
P 7.325597407120119 7.652860219440598 11.907181209271096 0.08172739907747861 -0.8696766727462183 -2.0083046201200125
P 7.804854531782064 1.2677967210338843 9.405935933250214 0.8784873290593128 1.4637961355125693 -2.3723782270747336
P 4.51002972962667 8.17146983527713 8.986799108498207 1.1140536004685395 -2.0013826961891983 -1.0893954356002271
P 3.219520999400594 1.7069705225422853 6.31779791045636 -0.14481841400069254 0.4518099312304412 -1.1667293335957003
P 5.175827032096917 8.360483598244977 4.0409189889392385 -1.2647102184175638 -0.7506204553112944 0.5561890062691646
P 8.337958981867905 8.974991487217679 2.8242776955400917 0.13762883823078878 0.4312562754488056 0.9152425343014754
Ni 5.686153885505276 1.9596791033684304 9.356019172123402 0.10732375948934421 -1.7032306316279504 0.4975367438435947
Ni 1.2366145565984012 6.1795779069900725 2.902486086929207 0.4798557816240639 1.0044909243463473 1.6249351410501567
Ni 6.642831685241019 0.32598947814175705 7.633600922866938 1.5318079847761685 -0.45738074044999943 1.6159995291234233
Ni 4.180077830409262 7.62909881048375 0.583975977605675 -0.46802305065519395 0.35252498288517353 -0.12294861051079471
Ni 3.1847971107593986 5.5209390100572975 12.355239304144199 -1.7004875216651747 -0.318510830723258 0.9544372022230658
Ni 1.4063737078129688 0.02834410025053473 1.6467340390869736 -0.7231657015344514 0.7433390911585327 -0.74660079262894
Ni 1.1394045337564134 1.36668390957117 13.13161054806651 0.02643531137339318 0.05696613297239867 0.2675068288715651
Ni 1.2209672565361247 3.19128090216245 9.230226123191603 1.3132783571342546 0.4140486533212675 -0.10502287927030944
Ni 8.383945178697637 7.15927691406295 3.95034173478832 -0.6397501161212724 -0.628408465856208 0.01143806663361256
Ni 3.9710598844276643 5.947473166186051 8.834018683297323 2.2456899470158485 1.462559692002307 -1.6178964890358198
Ni 8.902611012378706 7.382930238905191 10.231401283840976 -0.2415057768221131 0.8637970740369897 2.151446674859546
Ni 1.0557430114473907 3.8225135998843514 3.2138486188870004 0.6677589426293725 -1.0318040103390036 -0.2149611935643653
Ni 3.4664391422396217 0.6645239682915274 0.8942216483853702 1.166854546319655 0.4658764366258364 -0.2207538889867424
Ni 4.2221662566845595 5.274592415304378 0.9060423871629559 0.05136087097047928 -0.5230210041576283 0.19753142812369207
Ni 0.5595671264725991 4.9069183424039 11.516883201801534 0.29340349413266886 0.7054456585468689 -0.9627387801102258
Ni 7.134175646478017 5.420974312833088 11.469668645068708 2.163497949597126 3.762726944130429 -1.6597113681890772
Ni 3.8128816091873334 7.336831606386389 10.810299853121052 -0.9691583104833243 -0.4126785124466183 0.3736828479097113
Ni 3.8410186403771633 0.45077622765637526 10.023245344808917 -0.694466790937862 1.3132217928647063 1.1392761224807542
Ni 0.9874476999779689 8.528565583764248 3.677266365851174 -0.2523355204477654 0.6497699622511197 1.813853887804173
Ni 2.203936268232795 3.201990401546391 11.992834717204815 0.618477065675109 -0.8780785236566684 -0.4275662281917282
Ni 3.168175368058513 9.286944306543091 4.738890700801014 -0.811055777779216 -0.18245730739938898 0.949226604556404
Ni 7.851337319571858 5.503511478251409 5.596431142591292 1.8385048535836337 -1.0964112047964278 1.0965438737195503
Ni 2.5375235880634746 1.9382882135228152 3.2231742223313025 -1.445751619306033 0.21277832698043356 -0.3203779658389837
Ni 2.34377815651392 5.135902992836223 7.465680095168669 -0.06299382722371731 0.5011951665317884 0.26903149304620766
P 1.6512773778894876 7.023510819510622 11.29087247534512 -0.3661729126859113 -0.8183060315837263 -0.5759890717142274
P 7.132339196889869 6.402397333805043 1.253983996631604 -0.19068020952981354 -0.5325371711781797 -0.10205608333250166
P 0.7707747574988392 5.862621699501035 6.110918116495248 -0.337548049860367 -1.57352027691329 0.5072843101486618
P 7.894821822319777 1.6379069005308833 12.49609030273473 0.5119920000369764 1.3639969665350444 0.428945367927442
P 5.08910163726073 4.58122026008965 11.445600848859145 -1.8043418345486795 -0.760915152369083 -0.5415051790047448
P 4.587572876522119 4.590140158089223 6.848123325094013 0.2694765510034262 1.348470331654355 0.5677954801598415
P 7.794435491261555 6.097237504027626 8.847141802139973 -0.1683964584309487 -0.9120219704816486 0.28942419776994677
P 1.5624344442424771 5.934196385235006 0.8781677059142895 1.5950733204937175 0.3974632381587606 -1.552364211660965
Ni 5.298447520668782 6.281594555539814 12.587627008099048 0.8481735085671199 1.9046022594333392 1.2618411243998848
Ni 1.0741918340956675 6.146756055422315 9.266882031756657 1.0991982806232616 -1.1503850879097222 -0.19637288903921665
Ni 6.321574812645045 6.834384620853704 7.280301752814093 -0.053303853629463036 -0.47207922300243854 0.8096897506696249
Ni 3.061417681286309 4.392796784489421 5.2847528537400255 -0.12173839225277744 -2.079139797765019 0.039701689464996144
Ni 8.105132778725682 0.841896889584302 1.0676227789617383 0.4669303318116474 -1.575429835231177 -1.6061241789912404
Ni 6.064687372041788 3.0967787054989033 4.967588640226207 0.4228171435425169 0.9046609021308872 -0.9628123136606386
Ni 5.820926798137483 1.5894471185416053 12.590397610870554 0.04881727861301915 -1.2692461586147041 0.5644137081718021
Ni 7.757069363927208 0.9878599641712265 5.791765665213038 1.116844275839799 0.783690755502702 -0.19347371311455067
Ni 1.5770323445400982 9.30963757645377 11.103588348060802 0.3094718604494412 -0.833163665421849 -0.5806299129203485
Ni 2.84524132976724 4.686066540147659 10.145349566175133 -0.25774717838163996 -0.747936480721228 0.9627927732766128
Ni -0.013222437034661534 1.904623094287031 10.812589793321784 -0.2391730149238784 0.019298443218295797 0.33702225926388407
Ni 3.9742830408476784 6.832210864198346 6.41826294649693 -0.4954294676926049 0.03502819524872677 -0.7187071515424654
Ni 8.596120693613956 6.245989920667568 13.14148427549503 0.1825886907709307 0.1777853558450164 -0.20782149719579046
Ni 6.8820948315825135 4.305218752344452 0.2709718845874564 -2.676308074660023 1.3967885591437685 0.43188439595110784
Ni 5.801231813268678 6.088401932794855 4.970935475904199 -1.1111351412701638 0.5802661018230265 -0.6644797576574685
Ni 8.77723584942462 3.2217603435412436 5.0231281227706095 0.19106613211432255 -1.2942691630216032 0.022688442736451247
Ni 8.139659904911005 2.9474922193358775 1.8897225545929957 -1.2541463268587885 0.8793327077787436 1.3527810432145668
Ni 6.826870168967509 3.4297663683212085 11.429392307315593 0.37965166389863647 -4.9262328856928255 -0.3800887514360551
Ni 1.5144431442909918 3.203742524367736 6.675430539358787 -0.7465321441745336 -1.8203878322679488 -0.6460220651729133
Ni 7.091890457746847 1.3270409595331507 3.574827146503344 0.6977367199383855 -0.05065176071859664 -0.44870249594971107
Ni 8.497205396154403 4.157178428401954 9.511474629760082 -1.00111300901305 -0.08505003569280836 -0.019914736646056024
Ni 6.687684155539293 7.857109018277463 9.647031781323554 -1.693022066526065 -1.9754335804236043 -1.5276487111921562
Ni 5.180624288163915 2.3959014680387374 6.973039375651062 0.7799037776564439 2.41366448741803 1.534414054940448
Ni 8.721317833393682 3.6796359479983294 13.11072561882171 2.1994802812290057 -1.8342795026483762 -0.7970383804542015
P 4.378236362754824 3.546483983216885 3.4686307012124162 -0.324835230279389 0.4156697338644583 0.3055840953592608
P 3.5879259042800284 2.7125672166643437 9.805572661661138 -0.9873370382748803 -0.7682304550835737 -0.45118695293446165
P 8.508289681168579 4.741384899170223 3.5562724469145257 -0.5764413287602975 0.9640695831065074 0.37587882711976556
P 3.1091466312966314 0.7531157955662806 12.455032536942575 0.5607797109636408 0.7559164136029111 -0.15353033995239365
P 7.627487232273744 3.4311811840753426 6.863427696304625 -0.2346707561781507 -0.3229945775262244 0.4204033918947017
P 0.6224186766628694 2.10088895919991 1.3575072834148865 1.7040829523259167 0.9531573070693778 0.8196268072776788
P 1.7651278827138726 7.69177233749966 5.661899633444671 1.175196233416131 0.5411120573313843 -0.13101210424521953
P 7.675010050187436 8.229317997303774 6.357156023415401 -0.37982212803822973 0.7753380126626325 -1.8487393868274482
