# total energy = -381164.8297302137 ev
CRYSTAL
PRIMVEC
9.32327768463996 0.00000000000000 0.00000000000000

0.00000000000000 9.32327768463996 0.00000000000000

0.00000000000000 0.00000000000000 13.64555930282934

PRIMCOORD
 96 1
Ni 8.202908499166343 1.1638620139378257 7.254334013535259 0.34993433933986184 -1.3526339761137414 1.2686607184248797
Ni 6.555848986178933 8.482000808851435 12.994324435884891 -1.0601877036880192 0.3528869942102826 -0.3284597144058537
Ni 1.5737039662159942 4.344768482153965 1.485728588116128 -1.023812764603411 0.19916356441047636 0.35845780342984074
Ni 2.461224037308785 4.685571565107994 11.105546835421663 0.5146615764493395 -1.238425573689422 1.617904202345304
Ni 6.231193819723137 2.8567827285735055 7.608900118622482 -0.5871065217836275 -0.5045957075729052 1.2811835334822388
Ni 6.551355166460603 4.991524237051404 1.1088929025741265 -0.1345129183096264 -0.39826285124192057 -1.171225421693841
Ni 7.838163239787683 7.359450237179006 3.584429103056373 -0.8407103674208554 0.24239486429528576 0.6376940049231922
Ni 3.9705228030803283 5.8303674767139 5.9094139520248765 -1.7793350280916969 1.1658782984493148 0.24420286403830202
Ni 4.9656801120322935 6.149456646547615 13.74803682938956 -0.7363127804393705 1.2238564176259956 -1.0815821102033953
Ni 3.0675540612961005 6.201126250030989 1.61253634901437 -0.47261992599725705 0.2127420744258594 -0.7029272630003893
Ni 0.9414365844353287 6.699781743049435 0.3421736047353457 0.4973135720891951 0.753167132992548 0.1658929752828046
Ni 0.911885524312467 6.853065747176129 5.586409938000856 0.3085753167771008 -1.6422972864776877 -0.3128011819329903
Ni 1.3787355887269463 1.506930653305868 7.266478514707659 0.30789037489493426 0.28000419000762744 0.3047585141341719
Ni 5.314193545415907 5.097315465980643 10.589731850304492 -0.7301143649381426 -1.5517281207388631 -1.1950587766680127
Ni 5.175108892805843 7.753153596236365 7.449901877762665 1.949269777544043 0.46969529615129435 0.19841923004528408
Ni 1.8010520861983217 1.8314459706003063 1.189588665661395 0.6387630696176547 -0.05479920722806692 0.10032213136053046
Ni 2.9893131171545506 0.9001605706241432 12.945009892278799 0.8844815989695347 -1.3296102615250585 -0.09497603655726869
Ni 8.533120338966796 1.4245315274332493 11.584779144582853 -0.3510057180271697 -0.5360847793201219 -1.7837113027825215
Ni 5.456904952943874 1.3088203313249585 13.55627565933434 1.6381925202806946 0.31519770718962486 -2.35105272612408
Ni 8.487352370092767 5.166149223201455 13.68963395495063 0.5185927931829456 -0.26217333247379365 -0.3083570301187077
Ni 9.083753103623605 2.7964611236407326 1.4356495357612755 -0.25860875505098685 -0.14043082645595814 -1.237263949281153
Ni 8.500227816215201 4.366827356538963 11.380519188813125 3.9630948132616517 -0.1855562580396869 1.199231934209096
Ni 5.556813193818617 1.2914790353164645 11.27426086368495 0.6077905324955404 -2.0969107485951954 -0.5194237737246732
Ni 5.187546144889356 4.016589116831925 5.432651379053285 1.1660891289085402 -1.1729583452245476 0.19865654286707077
P 4.989799430727978 3.736620419068984 2.1876557694973657 -0.9275753448352154 0.5155810029398153 -0.430205208476472
Ni 4.540911592598427 5.353920030519236 3.5726258338376886 -1.9703409963920453 0.16929634453739875 -0.2395249989466584
P 5.1115334640521235 6.7464913629432814 9.174686757650083 -0.3567156239277534 -0.898996247645942 2.60917245735379
Ni 3.4210461248240867 3.359904071478009 7.054999545228589 -3.380443241925585 -1.644471925531503 -1.9414094009593597
P 1.3531525154757054 2.1788872270801676 3.3738367772603173 -2.5229098894101196 2.310505400829337 0.3667704370605941
P 4.369111559507823 8.2184037862449 5.656165767358894 -0.8324650966929277 0.3371222751768581 -2.565627482883304
P 2.3791791959782747 -0.00385051357607961 8.628687661872963 -0.10387565303974369 -0.26612126137794817 -0.21176042723888044
Ni 5.52493690830623 3.9498624203089183 12.745975633505179 -0.7549869598101062 0.17127120887558245 0.3779169405957169
Ni 8.469619496432466 7.623075229617812 12.276582179009454 1.395257467211223 -0.707811073455252 -0.6474461992139495
Ni 0.7777897574519453 2.9984312824751456 5.5499354120629905 -0.2446589777391141 -0.08955589398296189 -0.9774719725553425
Ni 8.230682542612206 0.6526881563222808 4.770801238006515 -0.7597622697115626 0.8764618139888518 0.8010757837483687
Ni 4.95551773964022 7.046691572716132 11.511502845669542 -0.9147504251564051 2.21968863785608 -0.11244616831757409
Ni 0.4634368125495817 8.475465191377266 7.01615038053085 -0.004419983444566581 1.803274312516114 -0.7453805470685937
Ni 7.124699434922084 8.657222484756618 10.555508895864502 -0.2526993315450874 -0.0431816775937966 0.8780954929375329
Ni 1.019519032860672 5.053915609572287 9.204788823468697 -1.8106811465031463 -0.2946070275224668 0.275222452348268
Ni 7.554698312990772 2.706640668938672 5.82569837938 0.05189823153118805 1.4142900583626417 -2.364610924424489
Ni 1.0530175686448222 7.47633616624271 8.911518605805048 0.5613831488755945 0.846838334695464 0.4055287887757145
Ni 4.089394590235329 1.8588657295040596 5.296919377004864 0.21788479496906346 -0.8584918597739924 0.7452082831567876
Ni 8.619584413796245 6.306460638366456 7.7995695328913595 0.03652020641322098 -1.317586497591305 -1.2318528055679108
Ni 7.559872731961048 2.8492308738601286 13.09124922798398 0.7355041684951462 0.13253959663333947 1.431170379057748
Ni 1.633988278039071 4.876512286749908 4.212397521616869 0.05901298819909837 0.6571770533484682 -0.3944797300504045
Ni 0.42768577293981197 8.454105562799061 4.154745171010565 1.336393345885163 0.8719065905180017 -1.017712308132628
Ni 7.464001470210862 4.708227129248123 9.474275360423924 -0.21963108823620883 1.1751684655019892 -2.132493787906127
Ni 3.376368979408655 3.0724953983307786 3.51624238128878 -0.5495329344052278 1.1714269961816857 -0.1362378714205331
Ni 4.65491662893814 2.8616121862790966 9.523986143320531 -0.6194319733892106 -0.5718763350974344 1.010616320517795
Ni 8.853160483097753 3.376135897473057 7.8071568160589475 0.3249874395865371 0.7300865970240007 0.14619395419198047
Ni 5.9938231765100936 0.5322314120052142 6.495272855772488 -0.20005548009712643 0.4678335603522072 -1.7565380848018393
Ni 2.7621141696110056 7.3422674368867185 7.331786208406745 0.19685111422721582 0.9373172547133277 -0.8339002864775574
Ni 6.136711726309115 6.279768095101768 5.132081035166704 0.6078131582033597 0.7114317009269747 1.1661055839687724
Ni 2.7232827191403723 0.7385406241527204 3.219902008369433 1.2094739236520782 -1.1388130668014063 1.792288245818255
Ni 3.4756432374185717 7.526886976435213 3.408046679111913 0.02582853102732971 1.5361251240942837 2.119553168585059
Ni 7.820085404862699 8.348482152863454 8.395252374060558 -0.28549889457361155 0.08045007502695177 0.21719471088057435
P 5.265684532979242 7.024446232782656 2.088630442994668 0.22483063015927732 -0.08616383758227741 0.3217812739444136
Ni 1.4122154779562486 6.966511386870407 11.13562186373575 0.7022477204348616 0.15072989438912104 2.1030379445388556
P 2.574268776073834 3.537447243461748 9.165571389312714 -0.044190064253652926 0.05933900407994942 -0.6056346624948021
Ni 0.3173000328960653 9.112049250605207 1.5316317445128058 0.2248352581449676 -0.6510927948276013 1.183768034245542
P 8.83123213459669 6.64808416973379 10.067788674936574 -2.332252562698441 -0.3486865829756898 1.193657782555428
P 7.869573361428874 0.7660638714358792 0.17866289760235152 -0.13230639757661083 -0.22170648270799884 0.7895425862977886
P 2.8003209604942363 7.6413302068138504 13.06974322395022 0.38471725134700197 0.15082991030209508 0.03741546453398072
Ni 8.42165123408639 5.091124809771159 5.160272761441157 -0.11591844313689069 -0.0242645289743195 0.38990368064394787
Ni 6.007528394323257 0.5424124309521365 8.772975635613316 -1.2268278415494935 -0.6671454774150898 -0.028897656870956683
Ni 0.6951286474837143 2.8918755447971463 10.267832644655204 0.41122583916049177 -0.5773610123610895 -1.507101997389056
Ni 3.0092649308417423 6.1884186229021845 9.434280364930784 1.706372776801358 0.27331597935417445 -0.17648386342477348
Ni 8.680614587813237 5.437857497166802 2.3958193815244897 2.5633314877602755 -0.1740423438628164 0.2045808787713057
Ni 7.7014000832561775 7.324739675329746 1.2164937796513478 -0.1846903104949658 0.07753495826268582 -0.6692206147765636
Ni 6.699268962791119 5.04503052618729 3.2400971595973895 0.4081276598511423 -0.7724048981762375 2.4315840480109285
Ni 4.254202165257991 1.7847083808741875 1.5248910149353103 -1.6513586253490073 0.397935806919805 2.0440810063886734
Ni 5.896926354243276 2.184285404708618 3.8124466343577383 0.28522018699092816 1.7516889842396544 0.022820597438941343
Ni 2.5073462907249247 9.41893425029101 5.625081028099798 -0.2061024576221547 -0.8301439047589186 -0.004641355426753297
Ni 3.9085323314886744 1.222943622973217 7.647080804328925 0.11980955066118075 -1.2328542502492315 0.3428316668568096
Ni 7.098090801154211 5.874578458258137 11.992385374934765 -2.4246816644641402 0.9120595085878034 0.23852818225102793
Ni 4.643654109810043 4.641230057679823 7.983334127900081 2.9761768648020612 4.0939999596153624 1.8604808436340927
Ni 1.9173320022294718 0.3681053685622412 10.804703319506563 -0.5231009654659443 0.06827641577889532 1.5733480130014839
Ni 3.5032681084256514 4.199521143166691 13.893634723607974 -0.03741880696809039 -0.9548076981886072 -0.15668328375907856
Ni 1.550675470978908 5.077009367751342 6.985256768458943 0.28455735659594866 -0.5097512836319157 -0.7257784565669501
Ni 7.634468274629844 0.6022268495930477 2.5741662200221707 0.38467688502736974 0.09010893827295449 -0.5905656839768216
Ni 0.4343397960372648 0.04906095046016011 12.943918136492458 1.6748155708203671 0.030838582647411406 -0.31312256982815106
Ni 2.9119392378134252 8.955688564928618 1.344373717453341 0.05328534168670178 -1.8356694410173677 -1.6074007317108188
Ni 4.07196938473002 9.282711843850091 10.200887783440479 0.1630393078840934 -1.1445911069357644 -1.081167648373796
Ni 0.33492289188276186 0.62455609902334 9.263587937198144 -1.9390478427057185 0.4118719573849229 -0.6375158274741148
Ni 6.658479624061462 2.6454706457603225 1.6148289429329123 0.42646322493553646 -0.9856581079105607 -0.7261607796070333
Ni 5.808289955774054 9.069246083951983 1.533419949122714 -1.098389154458405 -0.8647195858512592 0.7734325681098034
Ni 6.751442023255384 3.1283604766549167 11.008472870883791 -0.7819156658801502 0.971178940457779 -1.1507506987792568
Ni 5.661802620889398 9.377538898528798 4.049360436977009 -0.602329252270653 -2.35803070010381 0.5274268465348078
P 1.023789093920828 4.583304535044998 12.901071150435342 1.2240024562855565 -0.19222004321310768 0.08322403822766311
Ni 7.55410162323564 8.073314942973832 6.0773634715394 0.3441064198041751 -0.4763459686985926 -0.5999072730927217
P 1.1497465719180084 6.889575701568206 2.800191366938044 0.2045302280390284 -0.753640987305173 -0.3173237523936922
Ni 1.294499777201815 2.3877752577631304 12.424131435192695 -0.019852515949552906 1.00408031917149 0.6646003423957328
P 7.089317597098302 4.824106144350045 7.156413495407296 0.04861184747043241 -0.24739257462019332 -1.0231921003002766
P 3.973991062282028 2.4987875220497644 11.900660174654998 -0.5007706773998601 1.3172473690843314 0.27180879868102864
P 7.343003975803208 1.7677027228529543 9.61617564281601 2.376451368702843 -0.3658854633524795 -0.5473089301707155
Ni 8.116565626943405 2.9281897103633203 3.394933489415167 1.2110222419758045 0.4607440004952775 2.3194446123004955
