# total energy = -340868.21192563354 ev
CRYSTAL
PRIMVEC
9.23637705838200 0.00000000000000 0.00000000000000

0.00000000000000 9.23637705838200 0.00000000000000

0.00000000000000 0.00000000000000 13.51837145224135

PRIMCOORD
 96 1
Ni 0.07083285158389048 6.296807656743666 10.180172170399434 0.9936501249771016 0.37940663776736594 -1.0431798562761132
Ni 6.619064850312748 7.703960456487322 4.972719442646483 -0.14075555678522855 0.4921158299383396 0.7470808175891521
Ni 4.005585795960791 4.900138144896281 2.6227671550642846 -0.7737429002613706 0.5765827394341684 1.0454570823460638
Ni 0.047052875356806495 5.6279554162075485 7.7542054237357165 -0.41068745015851854 0.656098732682625 0.8195566161613757
Ni 8.855062413005927 1.7729872200040246 2.6953336746112853 -0.7637852748280266 0.35810273408326715 -0.6777780174282714
Ni 8.961742567368864 3.713162100105326 0.41879488234709067 -1.1954387857152509 1.0410198725103168 0.5060563512788316
Ni 2.3093436324590733 6.594523796620772 1.4435459724034707 -1.4842006673108505 -0.16502368530397388 0.6602410369857726
Ni 8.95659790537924 4.859248703912321 2.895446247804455 -0.7327474316856155 -0.8470777043997799 0.01950207458866964
Ni 3.402986087653708 7.426425800357664 3.3799718070800173 -0.6294847296395224 -1.0427008597571654 0.6492950794972302
Ni 6.620755107303954 2.2232883079396366 8.901387461855045 -0.349148867324089 -1.072759883926075 -0.04535503109603157
Ni 8.970230797832894 1.4121589160782642 9.48685461446275 0.8851914805523659 -0.0384989274061466 0.224264216132846
Ni 3.2029538709404486 -0.19439987401797645 1.4429511497245986 1.6589480076604914 -0.7780829223976212 -1.4852386216570614
Ni -0.025025963484535105 1.4124914256503045 0.09922916903613435 1.0341899940726769 -0.3641671951097922 1.866799586763269
Ni 1.6419045576041273 8.121149132873919 5.181361810000186 0.7356003277533782 1.202288975867865 -0.7257242062902469
Ni 5.041593258668436 6.20507196036854 0.8253561833561978 -0.6320900284728534 1.016832733741152 -0.8677699426418086
Ni 2.665212001935232 6.210937059764252 8.258238211237645 -0.27262923769979497 -0.1910468488406129 2.5278631196503367
Ni 0.20522213695018898 5.570708351554606 5.5142925608317634 -0.5004708867712542 -1.082299190875078 -0.9817119787786189
Ni 5.218442169108884 8.161216536304778 12.687951049988271 0.6712412447510182 2.301689345199604 2.5083278778308866
Ni 6.091944814858821 6.628273518182866 2.9298092647994225 -0.5579522688171745 -0.5372240351308877 -0.996387835623239
Ni 6.007829129509618 3.8314616167356728 5.140847365922474 0.43368776770843376 1.6259265584291482 1.329639572101097
Ni 7.84633920795959 8.379148851646208 9.679789599088348 -0.09551159734576453 -0.1471995126383594 -0.8046023088443884
Ni 4.842743298211319 1.495628055037387 10.57923445692133 -0.02833869904369313 1.9358398772913823 -0.818257437733978
Ni 5.39857922976173 1.4284611214852412 1.756672083669246 1.7339866818638847 -1.0924635330025894 -0.03458905082877914
Ni 1.149679554460431 0.8566536468244935 7.4563008617677875 -2.9866530817430372 -0.7579912938540687 0.5508655371737223
P 1.3652288845355725 7.892308656294166 7.415853843242181 -1.1688641205505161 -2.21604461334559 -0.07720765683025413
P 4.179885466348929 8.160357553243674 5.309881377782273 -0.08202924658861357 -0.17991088682845144 -0.19057839384462663
P 7.465597275219414 0.42570831053242913 4.3747887229134665 0.4459678706273674 -1.6364315717255302 -1.3054164378876743
P 4.954106295713825 0.48923241699533326 8.649918785260247 0.2232355177580155 0.8380947841748793 -0.8559585518291775
P 3.3169769450192774 6.725661877282676 10.67264563208446 1.10811229528344 -0.4609214066134062 -0.05330539629135981
P 1.6203283809295106 1.2917350327376593 1.9529589495085513 -0.26870573427567274 2.0612945420534823 -1.1923310933242046
P 7.229460060808776 5.606647094465964 4.302113214117853 1.198933943352703 -1.2856665089542567 0.5962876740622635
P 7.21373974715287 6.501633553120507 8.636387492953606 0.36430320646702424 -0.19400413169672392 -0.3408673440415871
Ni 8.637748934923572 6.455303886082888 12.402592258900965 -0.6120338811529266 2.475712148678394 1.2924182258557935
Ni 4.014960718616927 4.1448518883836805 11.683698251410478 0.6779505384503937 -0.3802867263794741 0.49106681984853495
Ni 4.794058355038414 0.8490567267410721 6.303887339715025 1.007009062782511 -0.8197962429760074 -0.012944733086126094
Ni 1.7375102959427222 5.47459461248095 12.583089538256854 0.09558358823428055 -0.5553369426815146 -0.19736842018326653
Ni 1.5146272825286913 2.7883421437371654 3.958071101753928 0.4348573625365027 0.7818799275462083 -0.045260157389380114
Ni 3.8978065127347192 2.9354776293650096 5.577706754408355 -2.2964766906504126 -0.9046663014475259 -0.5072457436012425
Ni 0.13735046783285762 1.1998146088225112 4.950535512365192 -1.635337824440719 -1.289301791713999 0.03982407397547335
Ni 8.782917072250177 7.984792499206382 6.223317499496553 -0.8525577536777447 0.5696176209702448 0.6675846218350374
Ni 1.4845721117670465 8.834003473443373 13.11464488194672 0.2692847467075943 -0.5606673537554926 0.15980820254130543
Ni 2.1846340701899485 0.6551740898351583 9.632109573733166 -0.30822487541621757 -0.22654401330595825 0.9632838539804184
Ni 8.244491711346878 3.864130682188635 9.257447947972826 1.3955063499972353 0.3378028461836505 0.06388445735878676
Ni 4.588207220814449 6.96101399964822 7.032000175090329 1.1298198621638607 -1.8015221057116975 -0.2537187739485372
Ni 4.997471085734085 5.74043601532719 9.355294431371894 -0.7416614463457937 -0.9998999625415553 -0.38503503969773684
Ni 8.17607786689958 3.4052582363959836 4.849580988105249 3.16898594774942 0.7115260604129939 -0.12709939945437465
Ni 2.0331205418635734 3.102138815973222 11.030612506415274 0.16091454823160672 -0.22856541461136118 -0.2153913391232484
Ni 3.0334016983308856 0.7546480228618223 3.583193344771763 0.3113135416438703 1.0438750825709249 2.0404449522979826
Ni -0.1464187427725574 2.4319011188869366 11.581688932897006 -0.40331686872606026 1.6784192290112254 0.12324865824971679
Ni 8.96435646206018 6.962131601265355 3.7895238469620867 -0.23176926626063957 2.0003511696008904 -0.7483450290135565
Ni 5.445961843777476 3.4373546464748763 7.343327963753985 0.3951531019683453 0.18105219952174625 -0.6978025401793143
Ni 5.598306646033953 3.9987416406029603 1.0388300995191875 -0.2725603321350725 -0.9594284847900704 -0.14840638846226697
Ni 7.151431147903312 0.2968183640325976 -0.10876203373899047 -0.8585615366696633 -1.284595387377265 0.3447170568049805
Ni 6.83527919953197 3.518154472480676 3.0022815733010115 0.5934386346492424 0.09973771961197016 -2.3927624471580407
Ni 1.423076313693588 3.6063341637103696 6.737489058032611 0.504489521012344 -0.3023362778459245 0.48338847736767065
Ni 1.6823414161150314 4.220987344003914 1.9710188374588415 0.31368409875857595 -0.04842364271902628 0.04563656689219237
P 1.981443012542306 1.4017218100669984 5.691599595571467 4.043346913345185 1.6518383931989036 -1.189996788764073
P 8.998946693929376 7.198037906250965 1.086254277231439 1.3038840604035478 -0.23715341339068835 0.09456491716177907
P 1.5173243046130185 2.737394288198986 9.038964220924429 -0.3535012307555138 0.28087399420709047 -1.438706282423477
P 7.22198783181487 2.157303630643634 0.8651686627818261 1.1758114984026267 1.9736510346018847 0.7439736394187381
P 7.002005040779191 8.088812576992996 11.64414346690318 0.699165481965112 -0.5222869542050811 -0.5558753316834879
P 7.642677095084891 3.6657979588435814 6.980927628462635 0.626490937118521 1.63960611279877 1.6581810475874799
P 8.020601932839725 0.6370005944477544 7.798856841072231 0.05640177582849641 -1.2564099260819845 0.01387135866545353
P 3.377641469162634 4.723787998813893 0.5876303121013668 -0.5659926226231479 -0.054104495153887475 -1.6409770250043676
Ni 7.307359664436224 1.751725080147446 6.14916878856926 -1.4441328527556871 -1.2461090583766086 0.9312491941423768
Ni 3.2072395498689685 1.7369376405686527 7.833693684207357 1.0101023569958538 1.7777185755341964 -0.5029831116701466
Ni 6.459303237324373 8.235818753342826 7.430548919050963 0.9056422922075499 0.8220999514085195 0.577799899670721
Ni 7.014261713059677 5.540117470926895 10.564498741053743 0.7509549558325777 -0.027367850489991578 -0.09809118514748268
Ni 5.2592115371918275 7.938139558973723 9.76027723555151 0.2822842442910558 0.7808160050580681 0.9842095483894922
Ni 8.913833479864055 9.290502170346736 11.733581152680427 1.9552028551990264 -1.9336930061517084 -0.4011340021421285
Ni 1.871465471589968 3.1449956052584196 13.36282910287992 0.7177057068611447 -0.9345288933349131 -0.49793089395821993
Ni 5.195277335590074 8.961326930403814 3.4190666200126585 0.337929858679818 -0.8794090695426339 0.799822370957242
Ni 3.150777577261121 7.254619951759828 12.987018471820642 0.6780068456096259 -0.4380938671959294 -1.1407943588974934
Ni 6.928317225064254 4.343692612463795 12.602812897705046 0.46493361309659287 -0.8120942463460594 -1.3172275715899895
Ni 4.635303507143162 5.727218759838586 4.772769429688533 0.09955362862562209 0.5475357014695408 0.8181504798424684
Ni 7.438276072050101 5.671126242310784 0.7915381126042963 0.18672945241218164 0.7905933961598062 2.1890295182093267
Ni 3.640795086301549 -0.11878535006060607 11.375939398820053 -2.3956459393534226 -1.7644830506805287 0.7347086691770444
Ni 5.245015225741106 6.15931494870499 11.90660343212931 -0.5354103789609166 -1.0916945160470488 -0.7829986145316837
Ni 3.2676085099482894 8.681787980464913 7.59814944520019 0.08740053820285593 -0.33562280781319614 0.13011813167604042
Ni 3.9117626783834116 3.653698304972114 8.94299734024509 -1.3691720829780807 0.4968260909298153 1.764042620709001
Ni 5.754641563154912 1.6905525552690273 4.2500403678609375 1.0658911818306998 -1.9581269708243565 1.62800580955568
Ni 6.894207284799118 5.800139956262432 6.493103758959973 0.14175185926022685 -0.32016662115912603 0.5081651700917185
Ni 3.480451581562103 2.409013376678161 1.4836678704586366 -1.2468330810268267 1.1672839205475898 0.179844038146258
Ni 1.2340723311196662 8.663204389938658 2.703174435047536 -1.5498440163422729 -1.8454164931018024 0.16942309992325016
Ni 5.684177243013367 2.32547958308003 12.813374584199584 -1.1530510647776593 -0.5748978955325776 -0.7085785477488958
Ni 7.818112839844167 8.608525038092026 2.1224113692465023 -0.8005952445675244 0.5977431755618673 0.9865525947003718
Ni 2.4348752322812977 6.110851678580113 6.03257338349562 -0.502817789736876 0.20174778019788478 -1.7054764902393338
Ni 7.175916783333283 1.1077371664983444 11.063705521572587 -2.32103689648828 1.0359709972324997 -0.3624905787383177
P 4.73349543104207 3.1831048967650415 3.583801098378437 -2.7699576790963842 2.168182756667305 -2.762750619824984
P 1.4686024159321096 8.12231291637606 10.80111070524224 -0.8816161044962816 0.3542856743300221 0.8070008909835521
P 1.8086119260973452 5.687428447717761 3.8317146934655035 -0.38746833172957784 0.21177328275468688 -0.729297525463802
P 9.175195239864752 4.627258622775186 11.651105847886626 0.0874874414897074 -2.136541989833572 -0.847361811299102
P 3.424885537523364 1.7404567002060793 12.525068465211218 0.4004205210148717 0.4838782725198956 -0.25495958833417387
P 6.015735468222578 3.471030477020961 10.64502794121341 -0.22603544910065587 0.5497121402955695 0.12575188428754472
P 5.603432835269575 8.193294473629669 1.5413915321648373 -0.0083573708257598 1.2505966618343172 -2.620170865346823
P 3.633840094419706 4.654718371599516 6.852083863847809 0.7750680468306975 -0.32891479966540127 1.1744341584391258
