# total energy = -340863.97811403713 ev
CRYSTAL
PRIMVEC
9.38401301463647 0.00000000000000 0.00000000000000
0.00000000000000 9.38401301463647 0.00000000000000
0.00000000000000 0.00000000000000 13.73445159749475
PRIMCOORD
 96 1
Ni 8.045637092949734 5.501912632431335 12.996266163000428 0.59879629941673 -1.6605284647737335 0.9044590705327261
Ni 4.964771716357725 2.0120638081587496 5.925400010927482 0.4912804785212378 1.0043034909258897 -0.8034414557670679
Ni 8.287941698015015 7.350844754967728 6.784311232721412 0.9041945040174298 0.7890931574651959 0.5431812811555871
Ni 2.150506155028665 6.949068229431537 10.435958274339376 -0.6138069138929493 1.2897005698143142 0.7274563584900052
Ni 7.0525175910457145 7.550236267629015 8.721940109706376 -1.2284316957015038 -0.0014087074220685417 1.2786844212094688
Ni 3.8316896574439583 7.521417963064688 6.288319214568536 -1.168302334509775 2.5741213792869284 -0.21644754830190466
Ni 3.48047419507696 1.4630802674155932 7.9852519063522145 -0.15221804889887333 0.9569301438482486 0.29773785984196466
Ni 4.081173032613996 2.073003589936912 13.496241694760451 0.708380829915793 -0.9892144578032512 0.28747273047053074
Ni 9.079295531915914 1.49278066922155 6.365959724654459 -1.206791748834225 -1.168238056930743 0.6032239961707805
Ni 5.011100589569734 5.411769801547283 3.106403030138528 -0.16368285500536328 -0.33600487374296323 -1.3666665429474076
Ni 8.83757273566958 6.772264036563913 10.908794301498137 0.6914652851073768 -3.7957982727631014 -1.8430590486132195
Ni 6.730758546141243 3.7480030276475844 0.40950238361102337 1.0807321034982742 -0.5502687841299878 0.7678162503642906
Ni 9.061447138792714 8.670480996473097 9.515585519632873 0.3707181088544325 0.06416110805894111 -0.3261143541021287
Ni 7.8911105474398795 7.759499762185994 4.62173911350883 -1.4317817873895018 0.2806546791074328 -0.48921896800651876
Ni 5.9287820092879455 9.351216082668271 0.3901994684404536 -0.37597910014305574 0.1628372191756163 0.6576105413414609
Ni 8.039612556469663 5.716205958068247 3.3482262353261953 -0.716588562537566 -0.025562936070768878 -0.5844338600474708
Ni 9.385514650946556 1.5022679065756805 10.808519551552509 1.7327697787376481 -1.899846747026225 0.04159119317822515
Ni 5.681344348997432 6.21375572241379 11.412093650736729 1.279340823846545 -0.5348473073685951 -0.32401504837093875
Ni 6.97687306056931 7.402025163008704 13.108037267528196 0.08223673461372934 0.9657078900408788 1.3114888693339994
Ni 1.274574210076553 5.123230163402082 6.536857619608445 0.30286643931778157 1.9960867378975815 -0.38361321964954576
Ni 0.21288290845162605 8.57942791630779 12.024704554641058 2.415208177756066 0.11208518543372956 0.9194794552009584
Ni 7.34737267008046 1.8523479033444095 4.560923200705024 0.40293017481060284 -1.4845565079883722 1.0228421731600257
Ni 8.027253811073631 3.1402004921114615 10.16523887727775 -0.08366652508172043 0.09931837268636443 -2.681952417429994
Ni 3.131998864566941 3.2908326721396515 2.5061255347945686 1.767262413197879 0.24976287462458277 -1.7608457110382578
P 4.281990915283026 9.506005380547974 5.061681359166665 -1.1552012783514427 -0.27114853938921046 -0.4919299391797786
P 7.746080623297363 5.307832471246248 6.685353998230304 0.04794156087628517 -0.924345267933692 0.5059331954374062
P 7.733506045597527 9.162954009672662 3.0318254619639684 0.8535573985868525 2.783651374533393 -0.7137333524769579
P 0.7273529870140153 1.9047294650761162 4.416505114223723 -1.1128816916476252 -0.4337044798789821 -0.319378835150508
P 2.2793861924387797 -0.07101821196444924 10.603834517040118 -0.8280366286079287 0.4654123525052242 -1.917692259848078
P 1.5444490459493854 7.297393415730215 6.856938802951176 -1.3538256824289974 -0.5744461527071397 -0.4143535861561961
P 7.122794465966666 1.772302270673063 -0.11329225306892166 -1.807523574710771 -0.48899039693548035 3.752878847691756
P 7.277555611806742 -0.004204037917557249 6.198948687971572 1.3505223290873773 0.02378861777916548 -0.8498064161848525
Ni 2.7302598750835854 8.240833951706673 8.23486102729925 -0.09990047044207956 1.253707439549157 2.427902485394283
Ni 6.1850500260079695 2.4824093182118845 11.786233318971586 -0.891032255603859 -1.2363956877435869 0.4370463997680215
Ni 1.4966938027296335 1.7307498601843496 13.270350667198741 -0.4270990587473225 0.17951802226540697 -0.7058860885183972
Ni 4.4849202009240425 7.756909774540357 1.7192516287995665 0.16707799672984128 -1.6862916897807665 -0.9138137722747488
Ni 6.901087769894773 0.6076758513578034 10.197569617986144 -0.8244764220604963 1.256732599528726 -1.8123883590022398
Ni 0.16144537844872806 3.43149903014006 0.5818529238097365 0.13032664814242073 1.1221464047790028 0.6564311763213792
Ni 7.673711113430842 0.28739666533636565 12.422331469536305 0.7043588532405934 1.094338124317483 0.46374216389165296
Ni 5.409348726139404 5.9719109339957415 7.108732522173229 1.3176633735758276 -0.3439120444051819 0.602439295485956
Ni 2.226779414390061 0.4249963278201278 6.347198267046039 0.3693410260012478 -0.6357816183918276 -1.2726153321972533
Ni 4.858122406239336 8.253249001181958 10.80314908079309 -0.5450507302641581 1.0860350037684263 -1.118421647629248
Ni 1.2164308642346227 0.8688179245384957 8.647183306879528 0.5370875095530233 -0.4358575216662429 -0.5854808132547465
Ni 9.018778030732149 9.098129246426042 0.852104997013564 -0.5237951633194914 0.6817490862608775 -0.3981826328232884
Ni 5.344946243487182 0.04814655657056022 7.139181768233251 0.1872128198065034 -0.00024785434474796026 0.5540555048659296
Ni 2.278926375791547 2.427212552517528 9.994657223568902 -0.4496674309661417 1.5583949912360773 0.21019256853112833
Ni 4.309814514447216 0.40104457250590203 2.719517995163434 -1.333419865079136 0.1807855761239209 0.5569783349396794
Ni 3.2689491533366524 6.345873244380952 12.918501783940147 -0.25636623887371335 1.6103904104667623 0.5325734237327537
Ni 1.7525489228684692 5.649729608496874 1.4187276673853642 -0.8586582101485277 0.8295170698081972 -0.7503872562545658
Ni 0.053425064000528856 1.8093503548215362 2.3912370610788245 -0.8404519715531462 -0.30952585361582824 -0.3881100790786348
Ni 2.8214255634074 1.9565198339756664 4.298553698596616 1.2536120516218732 -0.8925831450307465 0.734498095828135
Ni 1.596708615509377 0.07493885268309972 2.7902772083633196 0.037916315429799216 1.4074280411354858 0.6771789503916918
Ni 1.1583719745115721 4.763925681649069 9.996963814015631 0.44128769154287867 -0.3854839543096974 -0.10471151867747773
Ni 9.428305751178836 5.984541815774832 8.409673932563962 -0.5102413358944567 1.4321725950700173 -0.26517303853206586
Ni 1.0053093350622948 4.007367768726524 2.80214423146721 -1.125336115360894 -2.22465035273673 0.3042471217153921
Ni 9.38259622283861 3.605938451679059 7.8843033842581915 -1.2165352013742339 -0.5831760763809698 1.0710187328652523
P 5.308517504210492 1.944724129372163 8.916200443945074 0.939713008639014 -0.016538878195287647 0.31959249382321087
P 4.868116380306743 7.805490810922485 8.499977230073883 0.09655906477367242 -1.512228519982344 0.010514526378078667
P 0.11443616427907843 7.061423019580897 0.22658919814444772 0.08063133779982243 0.7036093766690785 0.8332652239967198
P 2.57501076055665 1.1618815954516757 1.285317966799346 1.1150115935064344 0.40576327338402374 -0.14230130400579366
P 7.469327305742455 8.160168974163543 11.096090759534558 -2.255489963825406 -0.610789210112548 -1.6998095217615434
P 4.3674980436419135 5.992264858645702 5.103351069820489 0.5725782462604655 -2.439640599766818 -0.8277676912172582
P 6.7678535503557615 5.646510891966244 1.2965403081957896 0.49299463299886714 0.08123040483640204 0.36162900206897075
P 1.058160097454443 3.535933713141164 11.747103860693395 0.2873822276392535 -0.5282971649549032 0.8577202717152905
Ni 0.9313520501608389 5.901465146837032 12.45832948260671 1.4979015618367106 -1.3907855474827981 -0.4326202456758678
Ni 4.977965638929344 4.5854135983774365 13.038170473984472 2.62621527176869 0.7104364268932409 0.18718813721615504
Ni 4.301228142361134 3.4470295720006785 10.98831724463375 -0.5782148757209525 2.1469842682128184 -0.46557561755596594
Ni 3.7637494018120066 4.057356407089978 6.456057512275108 0.4544229433732561 0.40857168936709637 0.3131634503684155
Ni 6.131664374862917 1.6384768583018936 2.2387984585079344 1.327285984267256 0.1358385790995854 -0.8667558995549977
Ni 2.3169503973137386 8.018292078459195 0.8401187969419214 -1.1735905794919077 0.2625294302616317 0.8577776073157872
Ni 0.11585408867493312 7.689861000163243 2.6740289911336155 0.13955973670491448 -1.1812200710127077 0.1913985757530768
Ni 8.433966327557668 2.818966951946685 12.396469129132761 1.136924591529442 1.0926923611839439 0.6211826375317302
Ni 8.980059592232504 4.2879028436045905 4.858260351233507 0.18834127698399178 -1.109029922001703 1.9693927735461632
Ni 0.608427510815831 8.340482787971272 5.251037608102426 0.8950873995098392 0.41455696041625384 -0.349452771717753
Ni 3.47299513654952 5.887717567486091 8.774075810292011 -0.2662711566922511 -0.19047606393880745 -0.471188335757053
Ni 6.305324923305584 4.5890170594496285 5.063480274498799 0.1872562714499291 0.33753108057950254 0.7946472545142057
Ni 6.825058494876808 7.424124514115507 2.443262968709916 -0.623967656476035 0.3380666413679984 -2.111097067397906
Ni 2.6984011502395973 9.106978370881972 12.610273547681492 1.418881791498382 -0.19206809101627567 0.050361226061371334
Ni 1.4985049172789382 2.8688429821516332 6.203563745667676 1.2552146202223027 -1.0578868234689847 -1.6085289317779912
Ni 2.9741128423283234 4.03321134110365 13.001471475127365 -4.781670810677313 -1.2588568449605804 -0.16537901176086356
Ni 5.420797222254181 7.699001029028647 4.138327303463715 -1.677470491944711 0.816552025007097 1.21172852401421
Ni 7.042561153031142 3.271820661378555 7.291305067960324 -0.709074770659024 -0.407821184354317 -0.09141094491382966
Ni 7.029967807304888 5.009158098835505 9.068734763450694 0.45427433361053376 1.2023761362650325 -0.008546089797798187
Ni 4.160937144889078 1.3399432460892846 10.750531980329843 0.2947821196477504 -3.008856357312953 0.02949415280437501
Ni 7.773697774170959 3.4319213107344573 2.9596924292303095 -0.5051775482183042 0.7092334077240753 -1.4559941229696474
Ni 4.979795521505067 4.086878512644967 8.670435953209696 -0.028079017624403253 -1.2497816221321896 -0.17839522151487341
Ni 2.66178473069873 7.67718319831811 3.559723125026877 0.7175061892558288 -1.5202480478527107 0.7333223303524791
Ni 2.6306673428982394 4.766966101928731 4.491138048076215 -0.2587833329556382 0.3360280136714148 -0.4590069631995127
P 2.185339612059854 3.7198979080871286 7.950764719408431 1.2977491511504036 0.29418433816275136 3.046776786507811
P 3.7140141318051905 5.494424189890685 11.016486175484026 -1.017078788313687 -0.399243469987635 -1.5498064782361178
P 7.015131682421722 4.40652615457745 11.47339002501683 -0.5355697873569164 1.3453672672489991 -0.5633811531422298
P 8.552251814055008 1.4307898779639983 8.668499092883392 -0.40342125551440844 0.41596412517642556 -0.15405793032108953
P 5.632941608866271 3.004695341375911 3.8198808152219628 -1.0221279207018203 -0.17788537175799043 -0.2909462908414279
P 0.7546050997737875 5.8235403011508815 3.7191518790370264 1.0308496168455341 1.595034496835982 0.4199125683012123
P 4.853833912202899 7.78382312442329 12.948868450683932 -0.4117318322626329 1.3446183048981166 1.094429912700341
P 3.7951858460615973 5.321157770002791 1.0932056331841513 0.81525876011697 -0.4832280405304066 0.9402387992354969
