# total energy = -340889.27789655345 ev
CRYSTAL
PRIMVEC
9.10135572346008 0.00000000000000 0.00000000000000
0.00000000000000 9.10135572346008 0.00000000000000
0.00000000000000 0.00000000000000 13.32075408041822
PRIMCOORD
 96 1
Ni 6.369775019309493 2.1172757151918358 11.643950664785194 0.8278422532089356 -1.0003825586049286 -0.3649989469824682
Ni 4.725251030975883 0.44961972083271917 5.965233403860678 -0.7132867518578425 -0.9796761792955128 -0.06300951095300115
Ni 2.5135214447844003 1.5526640037508936 4.75161947914125 1.0962885631756345 0.7542171715236172 -0.7183700799180209
Ni 3.3943415624828805 4.417698014130627 4.662344279619614 0.09892705078521673 0.9087304442145705 1.3004796627076893
Ni 5.216760652238643 4.729018992297318 2.71956521957596 -1.2219388888883085 -0.5509727521755479 0.14374472132053953
Ni 7.224583461991884 6.080825173819342 2.8665330036880428 -0.2022537733000259 1.0484290204901943 -0.33546545629972546
Ni 4.97111505787745 4.262119437249921 11.726526356266472 0.3048384754424879 1.8323455188504572 0.21559497049362225
Ni 5.917337518705962 7.77011873157358 12.676802560990073 -2.9728305740376477 1.401436342328425 -1.4045622895519168
Ni 1.899999047011592 6.724746100127399 0.44025078512188504 1.2696637057680973 -0.5448460704525196 -2.027201714134831
Ni 2.7803276914942336 1.9712626633083 0.17834470840108713 0.4211518400249521 -1.4547293973246107 1.3640049369548444
Ni 0.7506270425514631 8.89588363923289 4.4746943449986345 -1.1036689148001058 0.4033101838578409 1.211636735631352
Ni 8.574978933357333 2.6081937483244197 1.3494188958828635 0.7926903878981509 -0.2635786974617525 0.4052670504738956
Ni 6.921490109512577 0.7975454420880096 4.7208750990837425 -0.8408211819671068 -1.2082084266760935 -0.7007377115482384
Ni 0.9381131527671625 7.111517318281282 2.354310516784407 -0.24376989026594148 1.4553454336420548 0.964570691112642
Ni 7.670731925703841 3.7982779377677462 3.995852900941926 -0.026145290936800132 0.43386337405434955 -0.806483070806869
Ni 7.528923700222487 4.108788895263888 12.68391527058597 1.2546965429353036 -1.1159346195413362 0.9906761299504422
Ni 8.285300979399269 8.779422689790659 6.991024468197998 0.14263786140960596 0.9205006973766211 0.30786209276016013
Ni 6.938882800539781 0.8304705070069076 0.6052456247638393 -0.7309893113439282 -0.5340242972466673 -0.10210904805762414
Ni 1.7684571509277707 6.325351301411124 9.258123972967296 0.837948488405002 1.089931253499039 -0.2029772817296117
Ni -0.15692830795309431 5.083653322948815 1.4462209166915208 1.0834569586286051 -0.32166068920614926 -0.30159811412831933
Ni 6.693637665835937 1.5535923420474789 6.87935720288137 -0.6364207946377233 1.1422076943052524 1.4326487633754874
Ni 3.4617097984762695 4.417515987013649 0.6316805128269029 0.4004901979105425 0.1297887733610797 -0.7538654446111533
Ni 5.834233038449864 5.535198890679157 4.86683081242543 0.12388732027498019 -1.2137388695760194 0.9074155820578889
Ni 5.478779585771968 2.852792686762993 9.256951718333958 0.32642262937116684 0.5535531113082144 0.21396360553778634
P 0.13065269361738602 5.835834877079267 12.712874874761514 -0.4401350659956742 -0.07434190524668487 -1.287482736227389
P 3.968445988074202 6.211138386863564 12.825954670505887 0.23419458787268055 0.1171245476298499 -1.5275859762750208
P 2.5962163640272977 8.70922393212827 1.4878750920050767 -1.3364272844468918 -0.7246430574109263 -1.6044449915166044
P 6.406262354907642 7.947276623171973 6.384970643034778 -0.7583070253222748 0.2690937137427107 -1.770811821112034
P 4.709323658240348 1.0932366618554243 12.816124296053514 1.0347335252809728 -0.40736224244002744 -0.6223067238338443
P 3.9424616171256575 6.168880791657228 8.330879659354862 0.24008215700170912 -0.0029287436110207623 0.3750884700079863
P 4.561563146033827 1.3240379448270998 3.8304093644566217 0.5410624350403714 0.17895700755561436 0.7019312176357072
P 9.199104410694082 5.691250738064005 3.6909674914959756 -0.2043412519566739 -0.8377353439529315 1.0944317124725538
Ni 1.3482202473175662 1.0121344798860803 2.4113496240249055 -0.25420008446032993 1.92118741748553 0.3897036488179998
Ni 1.7981275709951101 6.699016567142624 4.657561517121029 0.33070737278944984 -1.3215871341102658 0.7510760547914742
Ni 6.054713383888914 5.677926353101249 8.994505931211323 0.2300314576339264 -0.6749492897302247 1.6488736541436249
Ni 8.849494028471165 2.1950832063438868 10.112264376130378 0.04223036942412082 1.075651089430941 1.7279713289077403
Ni 2.4013199298794428 5.266454055173513 7.065327937348232 -0.6098859815719884 -0.9704292067759481 -0.44451494023092475
Ni 0.9007548174142764 8.98739777229335 8.967012555463034 -0.3727963315396999 -0.9253747376394709 0.052208563682755255
Ni 1.5196169806636208 0.9406797351165458 11.358381062857315 0.05054146039297747 0.6908363932741264 0.40847758699139325
Ni 4.143155614949248 7.082957263627506 1.5868878321494262 0.5036873368260228 0.45648419677765906 0.5466414717900457
Ni 5.612897165561021 8.024993100765535 8.319463828713614 0.14301581357431498 -0.2023717869351289 0.5118192219045379
Ni 5.329790390525849 2.9613536593284 5.193216354793184 -0.20173595312334291 -0.18252955539822113 -0.809484062416722
Ni 0.8002230609787493 7.101824374302229 6.852063146826173 0.07000599687549233 0.5819267773549011 0.04063422858159453
Ni 5.054001105593174 4.67720497344966 7.043694924631035 -0.26553942073254916 -0.8554391889905978 -0.3233745865734624
Ni 8.33540394334734 7.289785575293239 9.346893137103732 -0.1567565601991752 -0.6987888153519837 -0.8025963341579532
Ni 4.737000881376784 0.12169331891975137 10.350678943269639 -0.2703180730681151 0.4981466095134518 0.6024251544185689
Ni 7.842802159382712 7.382155235803493 4.949818795326663 1.02421462802752 -0.6261842045113797 -0.6076912879135147
Ni 7.129783739469978 5.887612490503529 6.957749911214504 1.1081074101874335 0.653573652267926 -0.17030807363136474
Ni 2.2332360900623796 5.19693789919979 2.500917887204875 0.38851065695116316 0.8101893160138628 1.2326326211567287
Ni 2.568348012418036 5.12949685235961 11.292389862003862 0.009435177270970848 0.7844338043163136 1.233682402577482
Ni 1.0607630241866308 3.4903608666885346 3.8614067622067276 -0.32420068201918356 -0.2803644015605236 -0.29905555021212366
Ni 3.468781551970847 3.055343361179754 2.8378664631708346 -0.026493161194522115 -1.5939906289525 -1.2245187338003427
Ni 1.0210720113296776 3.416767303294514 8.331931776090991 0.9973465999920824 0.7635052816937625 -0.38170314711102654
Ni 3.6459940517043337 2.640967730736227 6.931627199657057 0.2290364407105088 -0.08883907042159539 0.17611156768701927
Ni 4.009402089394149 6.817215875551991 6.231155908917586 0.7861353603884526 1.1763136348500258 -1.0393795086934166
Ni 0.9228410776527466 7.582885639050478 11.579012490803457 0.34615481769277157 -0.8394618397257348 -0.5265809535947448
P 0.007244679255706205 5.4716714268539945 8.037530218447364 0.4339050259255624 0.5413262302247193 1.6492590625075016
P 8.957963987478081 1.5561498230410136 8.12480767036017 -2.0107942193110855 -0.15954749268075102 -0.7387357880585665
P 1.9624252467790402 3.2798374045481578 10.544495956613815 -0.8876126883993488 -1.022375260825936 -2.1042774733729117
P 3.840353505857105 6.416583292440269 3.724349444478487 -0.6690807467645896 -2.0183105822927883 0.28048190097499437
P 6.7952634052445 4.012505651738616 10.56887302811945 0.9542801078199113 0.370523219234807 -0.8600916001609447
P 6.63776444227968 7.9554678434359625 10.498965513844224 -1.8286850392797347 -0.5211818940663605 -0.5491416125040801
P 2.4496754335045265 8.50738316346772 5.914561605172054 -0.14998941667867072 0.12828390668077908 0.05231860689805828
P 6.985472641130183 4.177194685824048 1.5975710036448383 -0.5415540299648093 -1.390720755683134 0.48874922745895183
Ni 5.338227347397758 2.920534078346186 0.48628362273433584 0.18017982421912193 0.33306661705024576 0.5504402767108456
Ni 1.4293861387778528 1.1715083221557678 6.714712765439598 0.16711810593915735 -0.35933223561499406 1.621673696690065
Ni 6.881962921060904 0.967328505042058 9.223597069418995 0.874542485478952 -1.0762480995849917 0.35485723056277596
Ni 2.6439529754546585 1.5807871933239241 8.977069553676044 0.524307841289852 0.37641747323205493 1.1266340082367112
Ni 6.3593812709300765 2.1740681756888294 2.656891462929422 0.01055206448423344 0.10248134379537834 0.285893816019185
Ni 4.374348256222425 6.684882161509317 10.420865869169425 -0.2473496371973998 0.6984921100471713 0.9757408487968487
Ni 7.7722575501980655 7.386059717462661 0.3871061480491217 3.3180564521582467 -1.1122651411095488 -0.056370151259612596
Ni 7.712015675834348 3.7781548399858784 8.390983193109676 -0.6711353153007732 -0.3054180020950418 -0.11195148806934267
Ni 3.318408950635699 8.500001963874281 12.479721801438489 -0.02910565911670471 -0.20569982286709732 0.3898576578973609
Ni 0.12800510920094765 5.106934591210243 10.468381317649657 -0.26398467465091957 -1.0472856509143706 0.5958225615003868
Ni 8.623243423423927 2.2426104865867234 5.687136015084728 1.5295646972679464 0.10896386619592847 0.07203434015943078
Ni 3.782660011131073 2.437989292594569 11.28110691115801 -0.06937581949066117 -1.1133288064873732 -0.5933599588925071
Ni 1.1105747447475354 3.189661170797483 12.50443198256819 -1.9199982822734354 0.823548253819272 0.21476527550347532
Ni 3.21408010854002 8.453348413792938 8.054380468665975 -0.13793582794824633 -0.2569465368572155 -0.18029141009632177
Ni 5.50445451062165 7.615359276719272 4.032658783994785 0.7508857931575391 2.4279045422768117 -0.5879837821822583
Ni 2.992744235651177 8.509349056331079 3.67658188844124 1.7659480652618293 0.32654732787448926 -0.5275687714293108
Ni 3.6221576007361245 4.056838356078497 9.003311492995111 -1.6660725345204146 0.8649622979896845 0.7964439414033122
Ni 7.113492312500489 6.003372635545397 11.481251187088326 -0.1268929398705234 1.1076986047847892 -0.6552317566966392
Ni 0.47636951580815395 9.019725788268563 13.683478047637996 0.7929654959364085 -0.3619545037291895 -0.09724734908994864
Ni 4.478686199673953 0.6366125375614093 1.7887377021658235 0.6224869581654505 -0.40876323655261215 -0.6979709474363787
Ni 5.8653323713854775 5.6761515887107175 0.5700588729164953 -0.002795817577582282 0.41031206909697077 -0.7938926357363683
Ni 8.2810051394386 -0.02336318046406762 11.110135211130098 0.23996260070470932 0.7366645073518345 0.6711137180342184
Ni 0.04471860182787295 4.7577519727122235 5.9497019401045685 0.42259474311906575 0.041006781429664865 -0.5876464534474976
Ni 8.424451608972753 8.581113247199475 2.6206316612274954 -2.471005487231344 1.2347699792147055 -0.06922412440414528
P 8.544716925159815 1.5479586027770242 3.5668049747344233 0.39113652460978443 0.3906876099978239 -0.8004155244565506
P 1.623381538696669 3.489223197207425 1.4074445900973798 -0.09792920564832167 -1.1929345312361583 0.29001992237241664
P 4.7583890676216445 1.1289503822064184 8.267872793084255 0.08038965410266155 -0.5386761941963819 -0.7917221104476106
P 8.591051927786449 1.5299470195520963 12.647429755258992 -0.0894795322190717 0.8101913728963918 -0.8349019882691943
P 6.360737372951559 8.015027116111014 1.7512000701027146 -1.016912695049468 0.13620856084449445 1.0329944311026789
P 1.845909689201715 3.383392631396682 6.017983952225185 -0.28152833996163773 -0.5727818776308393 -0.6254817791277164
P 7.104272639025576 3.7373443603595136 6.124456163623274 -1.0663709496805958 0.7720706547652703 0.5482052167327398
P 2.6055634564840946 8.484283922323272 10.244046548008608 -0.19020121301086598 -0.6343654547705914 0.5378462420959189
