# total energy = -381165.46397804684 ev
CRYSTAL
PRIMVEC
9.25008903863769 0.00000000000000 0.00000000000000
0.00000000000000 9.25008903863769 0.00000000000000
0.00000000000000 0.00000000000000 13.53844032138085
PRIMCOORD
 96 1
Ni 0.3553958210242639 3.08588520459284 5.216008659065859 1.001538783696559 -0.9271081753908097 0.706577458158467
Ni 3.1688492532010586 4.861449046090896 12.726770157319823 2.628834454559092 -1.9330044647251161 -1.3957763158291705
Ni 2.2821634680033824 3.8562326199225754 0.9914402685596435 1.089720937260446 -0.5590143915331017 1.1931247928700937
Ni 8.938842044893379 2.8613115428568254 9.877159052090885 -0.24260338076166604 1.2237144927314925 -0.7704578017521957
Ni 3.714909759555048 1.9904156596520393 2.187405555867962 -0.40685496378630576 -0.4830958858279164 0.8261229565249836
Ni 6.355255175401826 5.498215925580373 12.922332764796728 -0.9576446534167701 3.0474586430661836 0.6464020742201513
Ni 6.695593701485243 -0.04714030377045387 9.721019399097576 -2.978079995362045 0.6359374272434015 0.3847969555450018
Ni 0.6691976916670235 3.61036525321431 2.998845566753183 0.5576123689792526 -1.03258459725877 -1.7902079662504589
Ni 8.66303213995958 1.4831685269138464 2.220019519808519 -0.3443871842693875 0.8528153782145055 0.7999414130336094
Ni 5.653256667995619 7.993843698381598 11.575245072790908 0.4575792296140507 -1.3029294097997626 -1.3524488566861288
Ni 1.761013451436652 8.82940424144998 10.123476898135445 -0.44169444006299413 2.0107042307004406 1.1697796903862498
Ni 5.253467819646062 7.309235358372363 1.354696815250901 2.3592105793445244 1.5925358987838443 -0.5301303615088999
Ni 2.3917770231385576 4.839535585152902 10.62166449366694 0.665700517438447 -1.0755495308560703 -2.452232577499215
Ni 2.0196089406652553 0.9264334178066083 5.926926102325344 0.3554382998772266 -0.46386531973307854 -0.1578611061172636
Ni 5.964827417161703 3.4291005083679904 13.239538668206555 -2.5222066926955073 -1.907848534284779 0.30995857027787266
Ni 5.674938876707589 3.174917311611917 4.198392488538154 -0.16350853421102807 3.895749908158091 -1.7224467995450852
Ni 7.848848552664816 2.362731743549996 0.400948809515292 0.42436031965992077 -1.4942819628062525 -0.8158071764212723
Ni 6.2733548870333165 8.527657086845378 3.792266404186647 -0.487699960258831 1.7205341559034049 -1.693624218886438
Ni 0.5292133191837203 0.8855896496463243 4.1874801584965535 0.471034326677692 0.4105797209360606 -0.8442862576975718
Ni 6.518084492789547 1.1652522166656754 11.801241398221418 0.5825443563342418 -0.3347157226178945 -0.08533080015802078
Ni 7.944586974238576 7.433797057397702 10.272034253141895 0.16951643096800484 -1.0305385133630185 0.6779443678028066
Ni 0.9723416097168085 4.224867168382237 12.41786343379753 1.5823309332263846 -0.288111135385478 -0.8383457238434207
Ni 2.985558738854772 9.21165492097791 8.128249342164308 1.9976389128760499 0.6703076771931553 -0.7589464586784865
Ni 7.4618618275479225 3.5921240776255705 6.117398385803018 1.0813370840721248 0.6566463776559788 0.033734930358599965
P 2.3623987403445224 2.458516415568961 3.882580573546798 -0.6028342169315295 -0.4839042406618247 0.6247875812741692
Ni 1.1224983051184365 1.9702042150975785 0.2557584869197461 -1.124997501074553 0.47603846476050277 -1.0599676172574133
P 9.519266632034471 4.3792789047427 0.9138329465150355 -2.405930351998566 -0.12529191393199068 -0.3195719249979206
Ni 4.31503703635335 8.79820369111488 5.708524099997446 -0.6103122704761296 -2.9119951879178303 1.285275444163425
P 6.084995323892595 5.361222106884007 6.7633718789149455 0.061059843425798066 -0.6446588662767995 0.7523700910125494
P 4.232424491128688 3.2311763531589324 11.486946497832777 0.13590722755399176 -0.2176960759970251 -0.38962831549537413
P 8.769306412950975 5.370749698596178 10.50346038083944 0.045706758008495475 -1.0784391936990394 0.8478474926862689
Ni 4.036609356220965 6.962431020049327 3.354026785711697 -0.4018071169497532 0.724022907328424 0.801472247855839
Ni 5.626181657372779 8.106139779338646 7.55574930630459 -0.9102682210153356 0.36769783397086997 -0.6351216162103255
Ni 8.82134741389532 0.32278000706589877 9.501710888043666 1.2487557519708365 1.0514001873033763 0.15703861021596824
Ni 6.425602102558198 5.3997764780066575 10.599014725641286 0.2295061812580757 0.8624824689906243 0.764388198519348
Ni 4.554605092424734 2.325093131242399 8.928493045274372 1.8722588101056272 -1.6043490893686887 1.677296428260692
Ni 7.296803238701336 4.295722850435861 1.7759181199083236 -0.11248422064436112 -0.43999442665275185 -1.7764847031270956
Ni 8.882388751476503 1.0366759789965672 6.306138127603323 -1.4518199369872995 -0.33995537375027907 1.1342814974796402
Ni 6.561606161727183 1.5667708316658895 8.056495476464809 1.476440049528825 -1.0896841704852394 -0.9117376064720103
Ni 3.9813123239342074 5.625293648824848 1.1089811500029065 -0.5487263793435323 -1.0662879030484862 1.0214064691547635
Ni 2.894630363582302 7.106501156862015 9.169585516019701 0.039004406287655405 -1.7479233465496349 -0.32981699976469653
Ni 8.753923514875886 8.50894415671555 2.8703932802772236 0.05766290192910714 -0.19168165421113442 -0.022734465483038264
Ni 8.923052142900488 6.315415041902485 12.690257280848508 -0.48527001066109976 -0.17586936976922615 -0.23057755994538354
Ni 6.240517070937969 2.0426601625552854 2.1394530942797134 -0.41547587268609737 0.022069321095213604 0.24682436082154907
Ni 1.8728100275854895 6.498289302241928 13.479209400266294 1.0079210330738189 -0.2557951968615917 -0.6105801794255356
Ni 3.6849579712404745 6.704436786608385 11.484428623595832 0.8548884586934503 -1.3503639491326422 -1.6220575623920452
Ni 5.321354223117543 0.0948698382128158 -0.28687116140895796 -0.8789609262616216 0.37331646570922805 2.5899460050240104
Ni 0.6512497439008818 7.9780445462996665 5.529613502812046 -1.3453549259538249 -0.10325755983977056 2.5472428097285293
Ni 2.418306278507982 2.3061859492427113 10.137868186665346 -0.5024254393944637 -0.01775192466678233 1.124800040351766
Ni 1.0361024734760287 6.020392702030647 2.0428562644429533 -0.32479203574627935 0.8024209849223536 0.5598170899400553
Ni 2.927930684129697 8.042961671189005 1.453662592891046 -0.18188292295315772 0.3569084566648498 -0.0541425474806745
Ni 3.1121554574691186 0.11291306189607928 3.79314608765444 0.8537114076662136 1.1616339213506637 -1.0355871315305198
Ni 7.2993562632766364 1.6572459525753533 4.481412837879368 1.2021871601826781 -0.7874831326655987 -0.32535510733860096
Ni 7.834344413048617 8.39946935291599 7.726482824777797 1.7921666326387264 0.4522130802061309 -1.1068030895537133
Ni 4.65334054284776 5.383459320938433 5.0883546552741326 0.6259957426496573 -1.0887179499172281 -0.3212840225930209
Ni 8.097907200092207 4.122348431541466 12.59697753294183 -1.0806454573217388 -0.4826546845254397 -1.4206401689503856
P 4.8430321188103775 0.0727084748885245 2.1550626195363045 -0.08582008108961349 -0.2136501880624256 0.07616815982214624
Ni 8.318882577191294 6.199048921767422 6.949823148686522 1.3579595020917128 -1.0859311312007105 -3.636838277154704
P 0.9734146200455578 8.707876571630072 7.946645119050186 -1.55710841121417 -0.6204989812011443 -0.7275882560821791
Ni 7.927770312362142 4.257177729402251 3.8993417348889867 -0.6053726670826671 0.6794299512093976 1.2034225752516756
P 4.937253525781424 7.671163592277341 9.454569659264308 -0.352166056883858 -0.4841744636040758 1.7914714063439146
P 6.654532556232497 0.16046869466447147 5.896166781237495 -0.14766951029624245 -0.514780361415391 0.6876376838311706
P 8.444276784230318 6.652423535931162 3.8933846775466194 -1.0353559893563202 -0.5024022994660122 0.4551922174391128
Ni 7.234531639277708 7.657510460852909 13.34195657907678 -0.7390872578607142 1.464936933985232 -1.2721245086037638
Ni 3.7174627841303485 6.58384337578161 6.862391307071528 -0.5333843496698233 0.2893082410173727 0.3291125174985042
Ni 7.9363913953483 6.635181369958844 1.6468969529563462 -0.18683923851716852 -0.5985499877338789 0.5046880101763953
Ni 0.42209081302727136 6.434787440975854 8.833601931856762 -0.27879551441150696 1.240976879356366 0.5414568422653127
Ni 1.5964266171311525 7.878800340979389 3.6386187251809665 0.5308163318323309 -2.1658852188823796 -1.6488551422008635
Ni 3.34797722747892 3.531239991558083 5.694849693368219 -2.1162022498349553 -0.2355269335308589 -1.3656206181813964
Ni 6.333378714819997 7.004019420377406 5.306107301351355 1.169821599367779 -0.2995833976911357 1.7667358512704479
Ni 3.0865142106476244 3.666430042891466 8.239928442182325 -2.4354463591798123 1.9325277821990137 -0.9391409381856277
Ni 7.030215672541358 9.215419707217576 1.4827975983433044 -0.22936039970883082 -0.2243806871060523 -0.30398461208262484
Ni 3.7296266512191885 2.022393217466579 13.35131211913279 -0.45839426931617827 0.05469302066750581 -1.3584588103256348
Ni 3.962886146564649 0.5439181857321074 10.801454774320131 1.2253759395943156 0.5212256028201023 -0.4306327829321938
Ni 2.732578053674021 4.882252496343977 3.2014752422573687 1.4081466644690652 -0.9879134796036406 0.7263032187221686
Ni -0.3609902748762263 8.64497596615166 11.798778099509814 0.83880003777202 0.6302984837900694 1.0531277115174444
Ni 5.4262409827527955 3.1076876644623432 6.5783284726954 -1.999986330062304 -0.1668831071102158 1.1569419151916331
Ni 6.990838043494063 6.297821372546611 8.560260875687991 -1.729246596075738 -0.14813565129938358 1.0428713238967589
Ni 4.750077974037942 1.3714552015663775 4.79944477424055 0.4549847294139971 1.3835504631869397 0.04042288390173683
Ni 1.4308777735653953 5.259878131351434 7.2820835720104835 0.6499568814509452 -1.291089736852357 -1.3332118628333878
Ni 3.2407409452272677 8.468475017161426 12.537678912135963 -1.5578213781207946 1.3281586166801964 1.9829897955043072
Ni 8.811107565326996 1.6448970837056942 11.784048257721018 0.9908867032993516 0.5873464057085755 0.4357917014253139
Ni 6.547370274693172 3.1657782236394656 10.801143971328358 -0.9444500091033668 -0.7716775330919097 0.41847429319278895
Ni 4.721596949880878 5.374847488041316 8.760250575779892 -0.09889594043696516 0.16707542562667999 -0.1214817961572811
Ni 0.7473433688938144 5.320604965905226 4.708967803313279 -1.0024736368060025 1.2142263507353992 0.5120043413321504
Ni 6.084819572200816 5.805411382630091 3.22279854751455 0.5471652055039996 -0.34510503627201855 -0.5517913914221013
Ni 1.3093131033893222 6.807612279771064 11.024595597263707 -0.659166315864355 -0.3964350540045624 1.054230200553004
Ni 1.0553519087702312 1.7356219570192635 8.169541739643078 1.11914541316915 0.15859181363570107 0.2956066724315748
P 3.4963949061408512 1.8292883586478526 7.037145839250832 1.3963686979975307 0.5482332417571977 0.9210946222068783
Ni 0.561256552630451 8.2025997078576 0.4190077583499251 -0.6663805742246072 1.5421080811505958 1.1856935334030287
P 1.9125761603725036 0.9516861608883826 12.122427614945563 0.04921837070617975 -0.314258226094491 -1.0580614013736358
Ni 1.6093304913432682 0.8000457512045872 2.009808471326376 0.21464469076521098 -1.1728624430766317 0.947009285190111
P 4.823199927906597 3.7531958780955117 1.8716213911437283 1.1654795203489992 1.46880824401518 -0.25315210281178985
P 2.6478657382370647 6.117453886337263 4.989307476850426 0.07546573443848294 1.426191437785918 0.7267531617753935
P -0.10629092315166817 3.346682215013188 7.373900880839787 0.46149553394932136 0.794409941692419 0.9728766398751761
Ni 6.654874809527013 3.800593334341303 8.669827255369057 0.7647882621712441 0.7768418509016686 -1.3303196288872574
