# total energy = -340871.0998968785 ev
CRYSTAL
PRIMVEC
9.23070959463690 0.00000000000000 0.00000000000000

0.00000000000000 9.23070959463690 0.00000000000000

0.00000000000000 0.00000000000000 13.51007654617433

PRIMCOORD
 96 1
Ni 5.918500172138004 8.367038177614397 6.739312400401486 0.3137728018176403 -0.3222844388330772 1.8458026727966275
Ni 1.0323256291203273 0.652165319315074 9.32175015500568 -0.7516357839496862 -0.29829553211764753 -0.32212580176802585
Ni 2.72857003997891 8.194248526236457 5.56569230076232 0.8642647577020277 -1.7197803084565157 2.3129991137854677
Ni 4.43791282763675 6.628480194347221 6.888896048063195 -0.15843806166665617 -0.5647829185857628 0.15944027767892544
Ni 5.90162643514784 7.121953924923892 10.61090827640895 -0.3905701105833531 0.33284113130300097 1.3593368420552139
Ni 3.1230997952833905 4.804962760720379 8.490718608240114 -0.842881149819929 1.2829683932968035 1.1554635308738939
Ni 8.867158019040588 4.894611411512758 11.668139282866893 0.0010850055340626476 -0.09153461497588752 0.3703807801196718
Ni 6.649775441194215 5.604600664431488 2.56244311472761 -0.18577351625681554 -1.124731906117992 0.8120027150735177
Ni 9.144790069069666 2.2848406029689734 11.423174713805095 -0.09791635013251523 0.19661200163321624 -0.5928709350712307
Ni 3.2941817654013863 0.5906066406423699 4.288476871327252 3.7959389121060236 1.0485573185379424 -0.5959647435052059
Ni 0.42906553187723717 7.290220528640356 9.519348261271347 0.6429562817633959 0.11780434730569389 1.4413953992198658
Ni 7.582178639833951 3.1079337395531725 5.623920539442655 -0.28861044361939975 -0.5304509780731123 -1.3728880983770873
Ni 5.9651337165987846 1.1461310467088006 5.7723291177833325 -0.09941144662080299 0.7461739895041666 -1.7237848016302184
Ni 0.3178936357128851 3.734735838338775 9.646761590824207 0.38581074152149686 0.9313522953791444 -0.9513847885499872
Ni 8.584818307159766 9.216891141077417 11.30166534605689 1.9690071080719702 -2.144843824831048 0.24696165773036177
Ni 5.073474869750397 2.070411220976903 9.44542135492188 -2.3997864438843575 0.07214618314694672 0.9460605481235965
Ni 6.5524653015058645 6.907303005903504 13.497606831845955 -0.880562980641419 0.12670782044291082 -1.895742495049864
Ni 1.5129779041831384 6.270245588848716 6.512451098837013 1.0561739545429358 -1.2929157343175022 0.14391852789424248
Ni 8.811090689457297 7.438576491936807 13.42716544140868 -0.07365696336451831 1.0793694188227925 -2.471725653226821
Ni 4.329350453051784 9.232001812550557 11.184897793785623 0.6752002293987662 -1.1401572395341266 -0.1553419392398357
Ni 6.922339831700538 3.3215600498175926 10.424645481425515 1.0316183766907587 -1.2828308392776746 -1.4723378544349934
Ni 9.19352821529946 5.786611794613134 1.301425734346338 -1.9191372198247205 2.2800609682965507 3.0559612812205565
Ni 8.952274391461977 2.299508200385478 7.686206889906023 2.1411018412901126 -0.7744656373600081 0.0559708589386649
Ni 5.852592906213622 1.1653216917867824 3.1419710578122144 0.3467052908796029 -0.7118929568341095 -0.3235486502574815
P 9.534584470393867 3.844202822456036 1.2919199496896254 0.1864916253697627 -1.1575322404774644 -1.4045059823926844
P 1.7932960906805642 5.434672533002645 11.312013894492159 0.589200942418811 -0.15752891958882548 -1.7326247685193514
P 2.9589316265907954 8.130113556538612 2.4826390156310776 -1.0294378240996722 1.3489380153193928 -0.2814697188095604
P 7.698282504091216 0.5315513303896505 1.853933544543849 -0.13485744613323872 1.3961889778865568 -0.6103096993729683
P 0.9745967718246573 4.39658694114607 7.559928014552337 0.4071858647631632 -0.9199988180395383 0.3056815401690735
P 2.625389169040151 2.565712632037192 3.9478064598905 -2.35931445191224 0.9108305212767087 -0.6348411088554293
P 7.340020206464172 3.064826326126441 12.579299849703858 -0.3825991765627346 -0.3209173832822215 -0.4916399187431856
P 4.783898281611213 8.129024332816053 9.063585671339979 0.4239625700008699 -0.31009046787004657 0.18706909513978748
Ni 2.3394587111586884 2.5106514497908425 8.346092774657953 0.5619063683689162 -0.6365238958744909 0.16446832702113612
Ni 7.917133395940118 4.304307538142423 7.558360640076993 0.17333889003788855 0.8207249254378639 0.7991376861853915
Ni 3.44418079499119 3.818513757880748 6.547469641517311 -2.7871632443413934 -1.1657952518172052 -3.8123181247949955
Ni 2.81259718867774 7.288328233190146 8.294403570596781 -1.0217283712705567 -0.19775897075346585 1.544205587109573
Ni 1.8575602903115926 4.7339232203066475 4.44138357441372 0.4338870282034334 -0.4067145815536996 -0.8707732482445069
Ni 1.4399537612240652 5.237338425029057 -0.17275919003654733 1.7743319184501507 -0.8946821936516204 -0.325231180166227
Ni 1.2904624206574884 0.20677435459275825 3.63648047399627 -1.2389487931827436 1.1294318826968226 1.7512331276491584
Ni 1.036913291748397 2.996149847348094 5.668017484929203 -1.23135144045146 1.1073759313380478 -0.1063210292564427
Ni 6.24143654445796 5.050896554281064 11.74268833903755 -0.6322525221926467 0.4555614278530735 0.7284655164808099
Ni 7.538868150797929 5.6255543750264945 9.462930164726554 0.20274048312845727 0.25994572869485555 0.549927341630169
Ni 0.6643147791763725 2.489476202167519 2.6753596149899606 1.5110267863647588 -2.0713172163968068 1.9888141154955683
Ni 8.81646296239399 1.642992447676824 0.13014561956877316 -0.2023044240323032 0.1101108353161781 1.2493815584802934
Ni 1.746357932805847 0.989605905493151 6.27626770373514 -0.08795101138968725 -0.7511524165553644 0.5551068289485794
Ni 4.650551451983255 2.845338515321126 4.3214009660190005 -1.4273155240880322 -0.5341525952944155 2.0248447838668806
Ni 7.28994360735496 7.697913275710687 1.9020975406419216 0.1655726158289084 0.7196481752994961 1.3212937712395632
Ni 3.3734735601199346 3.767864854781717 10.710491016779455 -0.5881169653260129 -0.51615847270984 -0.6437101292102849
Ni 8.006542048285153 9.18420519869111 3.9358093067361692 -0.9607880841417582 -0.31642592316977114 -0.0039013919369352166
Ni 3.5959336593885056 6.318872966564352 10.415309541823845 -0.19131552912096728 -0.044275424878607625 0.1810462859844753
Ni 3.737311206292963 0.05102459297621904 7.595013941412081 -0.020295259913926337 1.4667217937997965 -0.4236684357992187
Ni 2.707874789250273 1.2334627894133627 1.838234876874718 -1.489154925992332 -0.9974849253421596 1.6191079928454182
Ni 7.5972985420166035 2.7356407634660354 2.1457651950171126 -0.025789450259278163 -0.2472262242456581 -1.1036941116110863
Ni 7.051449765661928 4.717271020344801 0.42622985791477636 1.0931245636253561 -1.3255736295618397 0.3671352765991806
Ni 8.63980564373001 6.928164409403379 7.54352688988925 -1.1796213590670201 -0.9335194782337923 -0.2762956308077887
Ni 3.841544378116229 8.830558255820675 0.42803815390841593 0.5621205412622512 2.2307662358264806 0.06988746901975706
P 1.183035423342649 8.43286236715316 7.403413950188103 -0.14221054406420025 -0.37887339097171524 0.5025899899967861
P 6.380303338374823 3.577269164752777 3.6671079681611296 2.8882109410140386 1.3819376101738654 1.1720499744776653
P 8.082261558422088 6.9100814494669835 11.397005652335121 -0.7365426370619895 0.5377220578132288 -0.8923748856746825
P 7.824697070874746 1.2754809791175343 9.504041898756528 1.644329229306052 -0.3723710710768232 -0.817267820127199
P 3.411568698280988 6.115917356497212 4.983610220355408 0.05164806319359492 -0.1329391460646033 0.4420191703922645
P 8.855619632149065 1.1467310428271598 5.468284315553129 0.20562860330952973 0.9744213586544768 0.02373025373740429
P 5.8399006806329465 8.790210824538395 12.782734533594732 -0.503467764616049 -0.22713022482673142 0.11028027101450685
P 5.224350816743957 8.63438721724575 4.359620718758483 0.3104455372166202 0.34371021280702097 0.24922757094640302
Ni 1.5203717025032266 7.089840286527404 3.993821546813895 -0.15558053761320303 -1.0099334355181575 -1.8276871941428394
Ni 5.433887922694021 5.02034290579231 5.497087821518177 0.4145466760036086 -1.156429494331589 -1.3133423776029702
Ni 2.4248520048654747 6.037760939048789 2.14703441757518 0.40137517161865716 -0.059526694610723296 -0.33556315821985433
Ni 8.70766058936168 4.511518505295156 3.494178933069539 -0.09528971114294557 -1.6222074577063483 -0.691115872187758
Ni 5.066699528967695 2.5565280760715394 12.061282585602486 -0.09938162182413209 -0.4588688949597517 -0.636108405603627
Ni 5.8618328464363545 1.4615259293564573 0.5087044012734828 2.165845109673063 -1.0794118420249539 0.25930989488306955
Ni 2.0644481826313634 8.391573403500534 11.111227501160625 -0.2914977924695238 0.0036026297495937954 0.6600872850167278
Ni 1.8601633503943205 7.581329414558735 0.5242867620027474 0.517491846809283 0.15223398973847332 -0.8332387416341585
Ni 8.165919478740388 0.07221830201856919 7.243251909424245 0.4338008962475303 0.12531248275728096 -0.1698056800736495
Ni 0.23560462961539427 8.445379209253085 2.035387139870897 0.16239421810092677 -0.6331035573390322 -1.1149041213942927
Ni 4.933011163087748 7.332220256925501 2.040372646078987 -0.26136369208830473 0.3935942421216576 0.7539921999970047
Ni 4.471881838645395 5.129754505652492 3.3322741343495856 -1.2543766977020396 0.513137169385013 -0.2587635354612963
Ni 0.021365400239296017 7.786325011428296 5.429294721640244 -0.8086137439966266 1.8958383971977804 0.22933546000816632
Ni 4.234809526217399 6.9400351018373785 12.791407708253354 -0.1347196350037938 -1.14781372763812 -0.6623076897068142
Ni 2.6605304801569747 3.8535258390643867 1.640380156884583 -0.03390950826325128 -1.515381720899345 0.16777759390002717
Ni 5.222587751226932 4.095850425205404 7.6125089051524855 3.3428411153020945 1.0441044249729114 2.572902933498795
Ni 6.694285922466956 2.038463735351653 7.821442322700385 0.7570896079754058 0.3975807375732314 -0.20294180050598595
Ni 7.2537776874821684 8.14048887403147 9.087999051860539 0.019032848261734965 1.2294645078413922 0.22716313494719587
Ni 2.1621552428287836 2.2211025537801983 12.74908121285144 -0.471444160521601 -0.4913277868194054 -0.5146348369764621
Ni 5.252587557144893 3.411651774666607 1.8580412102772315 -0.8351207891482199 0.15436414870759868 -1.3808821723261575
Ni 3.930648417047329 4.274252347967382 12.960134924374525 -0.7862127505936073 1.1659711152734369 1.0466655008318684
Ni 8.590772114795792 5.518210454097274 5.524986717950928 -0.29227015185917404 -0.3356256360266736 0.5228052886023964
Ni 6.60464650238409 7.042182133310657 5.029180387080266 0.9924694744054391 -0.08260748768958677 -1.456973199053465
Ni 6.562951387512881 0.9582399545672339 11.14605589122495 -0.8415583172434475 -0.04490560226343879 1.0600390939252968
P 5.426143357412432 4.842550209858205 9.685035804749816 -1.3816938695941752 0.21256004032204037 0.8271989631979818
P 2.9200057245735525 1.2241490035145253 10.278952577823626 -0.9111292834640503 1.8979919532056735 -0.20154569148940774
P 4.616600902393637 2.033460690795488 7.27024527325375 -1.2652889737391693 -0.28945093724282406 -0.5048767291484337
P 6.665836875747217 5.962622963611189 7.056664193465945 -0.022161623698703767 1.0198933749443468 -0.23378372558750707
P 8.43162545207839 6.579289743351278 3.460795149044032 0.6277443499096479 1.7835572937031605 0.9263203893821916
P 3.8871625445305553 2.130133911527428 0.5060284185856008 0.815026589501506 1.4609144430894 -1.2048197127095184
P 4.972398600580653 5.486262968472024 0.9578061112201125 -0.38664275050448893 -0.30979221990333744 -0.39044721185224374
P 1.019107253097398 0.058360237826373944 12.99649099686329 -0.26928243271474916 0.3927460351887494 -0.8235899056904848
