# total energy = -340886.35816282063 ev
CRYSTAL
PRIMVEC
9.14267351134210 0.00000000000000 0.00000000000000
0.00000000000000 9.14267351134210 0.00000000000000
0.00000000000000 0.00000000000000 13.38122683945322
PRIMCOORD
 96 1
Ni 6.480774950879983 2.6024162916125055 11.815275329214877 0.6838918436354932 0.3710775490763803 -0.6509629541179563
Ni 4.791986019736967 0.7915452415427494 5.899234176281856 0.5759875290523306 -1.3434451105256218 0.6510845672974851
Ni 3.059879101664055 1.8728492335644291 4.863687436473501 -1.2496031875727962 -0.6158033754976878 -0.17932210420451697
Ni 3.382761758146998 4.769961319332974 4.674236613770564 -0.2703810650955666 0.2908668437537442 0.6896135766106187
Ni 3.711934573981517 2.8408663585434044 2.8648942187060173 0.3938603512988507 0.7400431940160803 -0.761192831510502
Ni 5.487094341453516 4.512741343755584 2.927785755280955 -0.39605941583269855 1.232943210418612 -0.7464701805883467
Ni 5.165903079563657 3.2934469809587017 0.5336651649403827 0.6265585571316629 -0.06972266130711864 0.3539339474175582
Ni 5.832559401422495 8.358104094447716 12.141964994933279 -0.45932757976372507 0.7452154822456392 1.3372374390530133
Ni 3.058205992417924 5.551751328276694 11.402665560969865 -1.4107450213238608 -0.22658000875021625 0.4017605799825339
Ni 0.9309435840332757 9.584447458494692 13.749879665041163 -1.2405346496126248 0.03194955632340304 -0.7260931595938914
Ni 7.840455064902813 9.220203347205747 7.800559180655034 -0.6475958374179364 -1.0666224035697696 -0.21791487687605052
Ni 9.012079528195164 2.3031217326979734 1.5216060039585366 -0.7164209266114501 1.374467269938749 0.25763353562191116
Ni 0.4402316133510908 0.18456497799729477 4.638775840426054 0.0656340930600418 0.37151155129000535 2.1667853620991453
Ni 1.80786311049611 7.093123792290621 0.514927255651058 1.345235369656825 -0.21606882480624723 -0.03425583585907649
Ni 7.883507914301902 4.364099758380692 3.865782911901064 -0.5848254390589348 -0.6839810609151897 0.0693562791066354
Ni 8.151324248438124 4.25326312782959 12.550185365642403 -0.9540299394823182 0.6519772543150836 0.5928228554421144
Ni 8.924282434803905 7.312337674227746 9.115184199787505 -1.3449571762947738 0.510307927466334 0.3006825442925854
Ni 6.852278344908976 1.1729958643137692 0.41761081063645444 0.9704217505767804 -0.6655573069923634 -0.018806076962909545
Ni 2.0785136734099323 6.666718644037479 9.270206456981388 0.7555382043278859 0.09578979070781567 1.330725091855792
Ni 0.3990319838656144 5.185669539619046 1.3273324209969415 -1.0164133868155463 -0.6259777449275283 -0.2520429289080111
Ni 6.4898536256417785 2.1361033736360637 7.271265127903588 -0.5181881015453592 0.46044806652141346 -0.2039131632803198
Ni 3.3380449421752547 4.962506022740233 0.5502289464770841 0.791069050244644 -0.20240829660001913 -1.213796462286832
Ni 6.117600532387744 6.047841933764886 4.888390025938653 0.06765163771070284 -0.41178685387028435 1.1073378790112607
Ni 5.292017117493369 3.256510580115144 9.401970667119345 0.2568652899973189 -1.020905361148629 0.7577321266554111
P 0.4773334965845666 6.041003214004742 12.523168765520444 -0.8700988478853015 -0.25950144206858533 -0.0707557305573233
P 4.559396406504266 6.494763241298459 12.622845848826584 -1.1689317405636577 1.4717367305158846 0.7171138389134165
P 2.549663065655246 8.937146176384816 1.432379910702959 1.4683811837800904 -0.29095477548186016 0.5547687288828704
P 6.39634236132794 8.23837164260434 5.729078965950287 0.5004978833544477 -0.42964470798731164 1.4901496858054337
P 4.959589509901349 1.3382771154152144 12.61445561737754 -0.3981908603534045 -0.29135046825838207 0.5718956183711441
P 4.200893894158328 6.2896747898819525 8.279487159493836 0.1315011280664961 0.435523792475908 0.5066430770202371
P 5.0979730156360255 1.2499680323092923 3.7754862115814314 -0.47764026202998383 0.5974169025707002 -0.06953908454140281
P 0.3435094421124355 5.74702054837984 3.4251791917394945 0.18270181931002727 2.1927776723978494 0.40575118919916575
Ni 1.0301690192696948 8.074434364503887 2.8320025366082984 -0.6284452326314144 -1.4801097850709282 -1.7144948916878602
Ni 1.8135041400308811 6.95430143822909 4.754925278534134 0.002262827892247716 -0.7853897404716796 -0.23573005068060046
Ni 6.506749286225664 6.328714005625019 8.890326545513565 0.08576865902638776 0.2788849888015197 0.3051858314795776
Ni 8.965314753364767 2.9671723926161153 10.605746255957849 -0.6388887965622416 -0.6628239672216004 -0.16208465728030796
Ni 2.4633105146732155 5.889911392138248 7.024648825023811 -0.5166780926587359 -1.2842241200807754 -0.4353358448348181
Ni 0.4006154949116798 0.456023753246407 9.584905506435847 0.4446949174522148 0.23503508149610494 0.40844416265029654
Ni 1.6343077398987687 1.498447612043504 11.592196839199392 -0.16612694567048164 -0.3161379596157071 0.0641222844012057
Ni 4.444363288827621 7.425085123535359 1.3959161860781168 -0.5279706348534198 -0.6666533682700196 -0.12594548835558955
Ni 5.184947268414432 8.191488013018756 7.747060826809469 1.503270796568424 0.45595660640896307 0.40242161060530046
Ni 7.159901879360261 1.0939208814187367 5.17318247618535 -0.9704207221355158 -1.1698434537446498 -0.965182870775344
Ni 0.5954714661737044 7.977430598922167 6.800259275631849 0.6740167506136263 -0.8817174059608364 -0.14867712562515037
Ni 5.145880624650936 4.470547905663253 7.465426255981427 0.17639464614507686 1.3140386323390467 -0.9270464689149388
Ni 1.018073262260777 7.86915391694438 11.523765756765268 0.6503271203061702 -0.12378164793505135 -0.732314457913255
Ni 5.013485570043124 0.8374112915704416 10.18307314701766 -0.4980082841633746 -1.4969039738101317 0.7684492559625992
Ni 8.304646882632793 7.43485864148134 4.599301433425523 0.20388668091775852 -0.28954066874315293 -0.28598946105678485
Ni 7.687434138932856 6.77269137229928 6.733045083037398 -0.46123533830939917 -1.1434762766050306 1.3807225068198417
Ni 2.4913693795714527 5.594365329348928 2.5315806860541596 0.17329106751908865 0.8601756752343186 1.4560884824556666
Ni 3.2357384259773805 4.440651363396314 9.230718335970641 0.9054008656207052 0.3572876943811395 -1.3797508869351915
Ni 1.193594307655486 3.6929452411715986 3.6519641215822016 -0.0935660435836195 -0.3880337173147446 0.6441544158365551
Ni 1.58346533269802 1.3180169509921145 2.963058189551858 0.010017275026685974 1.2374066455066042 -1.6195538221335848
Ni 1.0231200180196 3.5812674846606924 8.295048904017555 0.4621737909632686 -0.18235266350072465 -0.4485567144004662
Ni 5.200215533119566 3.358460532047449 5.116726467470259 0.816092311761859 -0.9705665036847608 -0.06121976604243004
Ni 3.850811784083904 7.365118328205433 5.904077964689509 1.791902323233746 0.009995420649815043 -0.48477018820654577
Ni 8.600878645932823 7.632102679055329 0.5005531444118893 -0.6328477325744843 -0.5765585710644523 -0.06261998882406634
P 0.5003510913280669 5.662094254460086 7.958082873311984 -0.7702798814134346 1.0006730932621541 -0.2618295759811297
P 8.640100715145413 2.0438629409354068 8.175514848188612 -0.23066446323223502 -0.33452211854984965 0.016436805399784597
P 1.9275407062986278 3.4994405570493456 10.51546326964843 -0.5853532865379467 -0.3171779708444473 1.0467238648736295
P 4.371130474283835 6.615510529897684 3.802302587154263 -2.4875448796472646 -1.463385787448028 -1.3571511472578046
P 6.895157483512017 4.523127420824466 10.210531338268517 0.9468509052353757 0.05621845617309673 1.2908184854688416
P 7.033769556083596 8.473667487185976 10.124075475076205 -0.2982312545386154 -0.4029090917646803 -1.0764561018307395
P 2.397163272073428 8.885032937570887 5.655749239067653 -0.836892793446978 1.2126330381063501 0.7947547266263475
P 7.0885433128790805 4.211078832410735 1.2296411263698166 -0.06056670583946343 -0.6512156935587107 1.2537007546809376
Ni 3.108883831496102 1.8771371474247331 0.6140667497568015 -1.432457473300288 0.6427912169404414 -1.3425207989391394
Ni 1.302364694000983 1.0640700525191782 7.278571038278362 -0.10221806283166265 1.7000396354944787 -1.0563025097010001
Ni 7.1438930581035605 1.7284589913559367 9.702847822812597 0.4085971432883931 -1.1724261268701615 -0.31791587745173633
Ni 2.7578417407066844 1.8161006592981015 9.281700626075574 0.07300338894091943 -0.6604786069178754 -0.13614402615514618
Ni 6.690974156769647 2.4350779389789317 2.964878495840955 0.20519434398558853 -0.3755039602788501 -1.392986668899175
Ni 4.740521910739841 7.10020936423462 10.413712627997903 -0.763698114430859 0.760065145663962 -0.6717788624220431
Ni 7.333749815508838 6.581783207444247 11.562222584207907 1.1697046141739404 -0.45203515986736986 -1.5519798317383529
Ni 7.583545940223612 4.101010186431627 8.207201525922176 1.4067772949253645 0.33425138138696625 -0.13986698353268814
Ni 3.3141002803412754 8.900145776826927 12.634112365351218 0.581440838857418 -0.488059657591095 -0.34315819695829286
Ni 0.360044881361361 5.2487539866043305 10.39657102949751 0.09511539034861038 0.7276941855324242 0.33407577504105046
Ni 8.656932377014964 2.7634096288536467 5.822265665355722 0.43460179488227085 0.7225324388258265 1.3327632053317433
Ni 3.838514888258511 2.7698734990012692 11.378619415460301 0.23718400951830765 0.7738822540527124 0.5981236988297376
Ni 1.400090730787317 4.000349351459456 12.694809660291885 0.604708808246423 -0.7620191840665392 -0.08624534155249017
Ni 2.822334159407293 8.600878645932823 8.198222506301272 0.333347124405142 0.40429003127260693 -0.29791603729104177
Ni 5.8278417819088135 8.142044434859853 3.606160241734147 -0.6552314995863231 2.201399866849221 -0.18659344105494963
Ni 3.2332424761183973 8.890043122635806 3.471344207189856 2.000529089939651 -0.9716512521085071 1.0293318946494274
Ni 3.4952257845768506 2.8596819805572764 6.988519722248196 0.03959216047032536 0.07989677362664305 0.9863415071308304
Ni 5.3641070978526395 4.825402491292215 11.686146951840085 0.26068774906720266 -1.2206273691657363 -0.49770566532129124
Ni 7.933646335644989 0.005726970665446691 2.632929964339083 0.3180840275984845 0.453764998074283 -0.14270985229812194
Ni 4.811587911669786 0.7635732320425351 1.5612276080020333 0.5517391980279273 -1.061113043715766 1.175282108261718
Ni 6.422581834204427 6.035855888837682 0.24466342782527573 0.0701000992511954 0.19736739174200205 1.1565981586989693
Ni 8.144896948984407 9.053340413592931 11.876172848704671 0.30742989031874796 1.4658283354512496 0.13672380991801614
Ni 0.2564135917767957 5.190295732397967 5.601622783554278 0.2783298876289981 -0.19537658656421836 1.1739356215361525
Ni 7.152368316415931 6.492230720745572 2.775159792805167 1.2666871396382766 -1.2362637901514129 -2.4098317439355013
P 8.679313641684526 1.9311703476686506 3.793416822802814 -0.04742682602339574 0.37600609672624924 -1.0573283798623532
P 1.9218356780495238 3.37678244969361 1.6221388415020421 0.23332426945258528 0.6786383085460377 -0.7474909085433772
P 4.604286933272056 1.2118705119342663 8.113144444001813 -0.28429921783855555 0.8331628940909005 -0.2743960997922307
P 8.766333607830315 2.0298289371495497 12.728022250228616 -0.6002314892013598 -0.3201349965902422 -1.0870189649482505
P 6.605764439972132 8.075430915912785 1.2165506464866964 -0.2805307519350588 0.8239616872076068 0.32134650039984014
P 1.6803593861980266 3.176585328586831 5.906794252979266 -0.036333287213395495 1.0782162790549559 -0.006761229983233518
P 6.904912716111046 4.374714402286477 6.108288719452307 0.5173769184979734 -0.050902957497454264 -0.5209816051300963
P 2.7459471225142416 8.861015134349097 10.440140439948 -0.7256110777511503 0.12808053242072134 -0.44216572327245784
