# total energy = -340893.2458344258 ev
CRYSTAL
PRIMVEC
9.05606971080865 0.00000000000000 0.00000000000000
0.00000000000000 9.05606971080865 0.00000000000000
0.00000000000000 0.00000000000000 13.25447342332993
PRIMCOORD
 96 1
Ni 6.55638633373204 1.7101754122312722 11.472396914154626 -1.5537952876805368 0.20077050388628004 0.6960426200654141
Ni 4.658523872372693 0.12834262293090867 6.025828326903934 0.280287268465685 0.04865658466543878 -0.3674348101174704
Ni 2.636584197015577 1.3989997936503413 4.8373531795103135 1.1276431662275161 0.5831781332634989 0.47138193982509785
Ni 3.557360106308559 4.443270146402839 4.856174409628667 0.20451505853037683 -0.6011725129583905 -0.3889947956764333
Ni 5.07919643237739 4.196329231776815 2.7072260704401145 0.28320727032595744 0.8461739616385878 -0.23967232315780013
Ni 7.279160330256084 6.0797472616109856 2.612363738009881 -1.4450432803850985 0.3810570288865954 -0.44140493384703333
Ni 4.77567319288033 4.806174036376753 11.271100403148157 0.7038346053060073 -0.16102716255007105 -0.16888805335538656
Ni 5.812149451493471 8.163087091037504 12.360671494105471 -1.02764550808594 -0.3891518900795879 0.2094289508922264
Ni 1.8895761573809546 6.5314096928878795 0.22593173801457825 0.6322373526839951 0.5023346794528704 0.3367445801224652
Ni 2.678821707130575 1.8002651958127482 0.34546552173260975 0.38941619948456807 -0.7239732850374112 0.8098602148092182
Ni 0.6591677838217064 -0.10978401884028555 4.580958633492984 0.7080229323557419 -0.051052595701441106 0.8842501996850192
Ni 8.766791880230501 2.3679902192066704 1.3637128172002788 -0.6943662608042558 0.3495664144774818 0.7366917610453442
Ni 7.2363341755961725 0.4354864791826807 4.810141500609467 -0.6366887035871293 0.6351229017619062 1.0292038537119952
Ni 0.9000040017134854 7.22071245498117 2.331965173057986 0.3235190825711267 1.893088088146153 0.21013908958537358
Ni 7.650269019579095 3.877048430615926 3.792330707712026 0.9933783593729537 -0.35874576698390476 -0.5479920722806692
Ni 7.458859925713185 3.7329120217415017 12.521289044630471 0.33326150666987125 0.6636282082904505 0.2012656983551437
Ni 7.832404697845143 8.601772174116542 7.386254696329613 -0.7557896582170597 -0.33038752755618583 -0.8291283190102107
Ni 6.833646970456052 0.7389082906966172 0.5866322861765323 0.820509209882632 0.35222133560182567 -0.6863418478378825
Ni 1.6791764848891537 6.599203432322031 9.32220245974484 -0.07062486140641386 -0.7493860686835611 -1.274293748340941
Ni 0.026728990374017568 5.296542110499166 1.31848861522509 0.03072545410831482 -2.068312111021896 -1.1736286318186948
Ni 6.576735322846191 1.7367640335215027 6.971044757701709 0.2113778470884811 -0.09293535197815607 -0.08633147350839325
Ni 3.5288334860550754 4.556452908284753 0.569035436711598 -0.14812973776211263 -0.31257569618574554 -0.7427708773598884
Ni 6.002281639500416 5.4316133933819275 4.68509890955804 -0.09374962034933532 1.3030235121754654 0.5014167956242913
Ni 4.958705422068631 2.982652853004974 9.159875123218615 1.384909034097363 -0.5264984211832674 0.43653346468734494
P 0.16485669685536705 5.768825212987863 12.30836906787945 -0.24869715236422973 -1.5849902252261026 -0.4733730021131976
P 4.033845225240944 6.395559587991848 12.53628046277892 -0.26545534565917506 -0.26104564662725366 0.4375223109631755
P 2.619658402331843 8.703843138204482 1.3806123492812388 -1.0472977350992285 -0.34924348392042437 -0.2117249460152547
P 6.337836198310673 7.466222510559559 5.964539562494569 -0.269102198383143 1.12928661536821 -0.8466519297162708
P 4.585178762076516 1.2191100207248844 12.55178807691291 0.8261869769936997 -0.4893243832361315 -0.010332492274259626
P 3.8000265559315216 6.0517277812731205 8.320827528148367 1.0153646338360578 -0.14363236411239133 0.00562865904068708
P 4.8035024957498385 1.0608551988424666 3.9795894047328035 0.2827619552584227 0.13743009195642136 -0.3531924412658433
P 0.10154933446044676 5.6616194572542975 3.564738086473801 0.40443658415280026 -1.2087815255707441 -0.1484711802619314
Ni 1.5224974191731184 1.0320387843514878 2.680717142565195 -0.4439205011800355 0.4875917168157409 -1.3847635096584345
Ni 1.6417477479025997 6.572035222556808 4.770430634002635 2.0618126193404813 0.7309995957565733 -0.4998617924323456
Ni 6.000479481585989 5.722657368526829 9.258846194572342 -0.5200035574875432 -0.5873795729393562 -0.34797413028969754
Ni 8.362891161720867 2.4446407950242834 10.109279986355197 1.7788141225912204 -0.5647782906000726 0.7091753007926302
Ni 2.435358323354499 5.302093481361194 6.836948813549519 -1.234232875764313 0.46191950886061733 1.2617758183795882
Ni 0.38689160798262023 9.266985790218003 9.427933887295147 0.9822184861013924 -0.5494138923288603 -0.20695889208517904
Ni 1.4805225350858504 1.2580782895981346 11.587802941202327 -0.7140719667632992 -0.8580468018167738 -0.7556348778067502
Ni 4.00677663224486 6.934694598642834 1.5848240091955144 0.5695001215557741 0.46761887323823975 -0.5371600146621717
Ni 5.366110839637979 7.814736305427827 7.99444948498981 1.0973283172940584 -0.04746564968113116 0.7628457937328926
Ni 5.575822250815727 2.9078587715213184 4.759350532453384 0.05282305733830257 -0.19390283023216928 0.6041735045682434
Ni 0.6655849149682519 7.411098212945924 6.903765403039113 0.8967349624155911 -0.5643306615396927 0.2538308740463693
Ni 5.1630556398527085 4.686987100136724 7.047046013305933 -0.01599817520046922 0.18560176656564165 0.17208264903328427
Ni 8.192637047192143 7.149966436752531 9.475517195484949 0.47224711603887054 -0.15413917718098613 -0.5861739826670291
Ni 4.726743247093165 0.3702981710650149 10.43838843459516 -0.737279515228014 -0.2892539907406696 -0.0025803591326665236
Ni 8.212614737439504 7.241070500165243 4.725220016132328 -1.1188589922769827 -0.6163757030613901 0.6839322099551253
Ni 7.395231978443035 6.027901261309021 7.145817851121383 0.455488408523293 -0.3418052824748242 0.13108049558930973
Ni 2.298856181424102 5.18719912226407 2.548954947631837 0.0020252579601448993 0.14165749977420763 0.6220745532183802
Ni 2.2441122387471797 5.230296959021633 11.42145923766581 0.10868644416482573 -0.5054822239429166 -0.5777885868168113
Ni 1.297743875855359 3.310111285305195 3.937984008298342 -0.4327680841076418 0.24797055861085038 -0.06614651392008608
Ni 3.470784077856718 2.423983899532793 2.7362670754651526 0.2035670927948107 0.9104106601304707 -0.1255701072940418
Ni 0.9898556106560197 3.275671051392815 8.10342751360706 -0.7523379522230333 0.6256270464563289 0.39646744990439464
Ni 4.343662433333614 2.5061315097929024 6.830281734873134 -2.3032746874088526 0.021208515756815087 -0.38562305099072297
Ni 4.137971917201118 6.703964049176726 5.92615450452428 0.20189459018839423 0.9464025048440476 -0.4875768044174055
Ni 1.0090635349600316 7.552698922242261 11.384386404227179 -1.2189520383458425 0.004192697925108908 1.1140980805532297
P 0.30425949798169755 5.4041825575889755 8.016027382792341 -0.2581927505594908 1.0188222533673552 0.2815465947940829
P 8.540670870354559 1.4872964753873126 7.9895583016250775 0.3335111607868321 1.2899502239312752 -0.7517841366020923
P 1.5320968532901635 3.1311361754418345 10.56434568870868 0.6552332993585361 0.7595812640490079 -1.9355082049835763
P 4.130790453753177 6.120898043335375 3.5802457006077892 -0.21853425562760426 0.043168564967674045 0.6856242529455676
P 6.555507894949631 3.679607994182136 10.387901750388446 0.5838515051814397 1.631242828435739 0.585087948691702
P 6.274570493837392 7.7215674580729585 10.231645603137757 -0.13210533730939827 -0.1494093758054846 0.27653911427716243
P 2.5021830633070237 8.405943718128823 5.820874069256075 -0.8682579380218207 0.43406700542472343 -0.13043129204108506
P 6.840339406128218 4.106293784614869 1.3774445360226142 0.6612088002156805 -0.8923100938750181 1.265004352619215
Ni 5.145378191365471 2.731147679138393 0.7292038061684799 0.3848200954734534 0.36442919052192724 -0.31959609336763667
Ni 1.7249277501337876 1.3106125512141522 7.043055908898414 -0.6477529318210908 -1.0902706391163288 -0.21773952764045082
Ni 6.947871180378968 0.6070754584178697 9.388368823414053 -0.858191297814438 -0.2923208025914514 -0.7820786738205757
Ni 2.774019114147913 1.4867712233318515 9.176774655299575 0.013809137968950412 0.05003855261462995 0.5314200268546009
Ni 6.6221062331541125 1.8416152110754163 2.7128861141412024 0.040131835023879264 0.4891611181853899 0.3716496195297664
Ni 3.878434009313952 6.982193685382365 10.29737455862975 0.6928547092557359 0.4091378462832115 0.2614148570412143
Ni 8.034029038582778 7.259472434246221 13.2660049929679 -0.1834962901868646 0.3087702063967263 1.6693105818417378
Ni 7.449767631511756 3.6890806433202767 8.299023228597791 -0.017406368401905507 0.45839426931617827 -0.7680196246243483
Ni 3.164525905243292 8.511954072632719 12.41135650624347 0.36402835553908275 -0.23643376161584442 0.239950002299219
Ni -0.21205059403853416 4.836575263104036 10.157115053288823 0.769314432176372 -0.18423779633857948 0.34212024261208174
Ni 8.689163248861341 2.5948809950259606 5.830881932126591 0.7000630540787169 -1.1361992833276433 0.4852000766551128
Ni 3.600983195121583 2.842790909133612 11.43421018411562 -0.46284587732962873 -0.5168495852395937 -0.10229493881618514
Ni 1.0402526397705065 3.4359363207978597 12.655835075457773 -0.7775077666204416 0.9945978336023515 0.6465324291504284
Ni 3.025026204168799 8.222150779067096 7.915876305527811 -0.402476632212952 0.1768312194618632 0.6633011639683352
Ni 5.626509074167709 7.999824262488363 3.7131743173470677 0.16508847710363825 -0.7062087619651386 0.11096212757287988
Ni 3.2011848762864985 8.469109805832964 3.5371813713089364 -0.13362100262297635 -1.1234352987937555 0.33237267630701467
Ni 3.035159946411227 4.057354782757782 9.131086782544394 -0.9258539912687345 1.49862815559009 0.22864640436094172
Ni 7.063263623321786 5.982639023840161 11.436291268983636 0.37104309629401905 0.14019351363417146 -0.3961884852113951
Ni 0.6439762265279865 8.989109340739313 0.37591021759551757 0.18210892292103475 0.4133593405637268 0.14034315183815832
Ni 4.693036554844447 0.5368103175020761 1.7409352593274565 -0.2546047760979163 -1.00798736753538 -0.19465256391400024
Ni 6.0024537048289295 5.716571689539419 0.2549763654675849 -0.894835174289717 0.8171672899935926 0.7374916312388201
Ni 8.08149190104262 8.854907440569038 11.549417883232037 -0.018215751677078305 0.6675401417503471 -0.42785007798073416
Ni 0.2210269705449635 4.967299632424362 5.633230489263625 -0.5927531785464437 -0.6816891795572195 1.004002157635387
Ni 8.043066996364674 8.764020722834449 2.6039741948343806 0.670981049111096 0.05330771028420496 -0.14302095578063753
P 8.781969853419339 1.6641615209589078 3.723923872344174 -1.6730541080445702 0.5593383505314239 -0.1694290134605211
P 1.6290330257324757 3.3514250762881757 1.553662978201797 1.4328660215926163 0.3838898703497001 0.6266976538126884
P 4.8167062456957375 0.9755560762495912 8.302787836864258 0.09569208878768681 -0.49623139476860995 -1.0590227368456406
P 8.508983681698387 1.773912032340483 12.547228345707314 0.07989677362664305 -1.5732271711529036 -0.3204874948336545
P 6.376387887967523 7.884196361727578 1.561151442420084 -0.4824366549773627 -0.5104030582833016 -0.8893654094243973
P 2.1622000863050355 3.34702382630621 6.137020564617051 -0.5997424653800832 -2.045334933400432 -0.5344277033326732
P 7.116404641622561 4.049476001925868 6.069979384593396 -0.8311769740091233 -0.24956824211527345 -0.25223139076973333
P 2.3511187609424677 8.593875281144784 10.212161468701131 0.9459073103751838 1.3483710870723293 -0.8142951106521201
