# total energy = -340860.1767190859 ev
CRYSTAL
PRIMVEC
9.37823212789463 0.00000000000000 0.00000000000000

0.00000000000000 9.37823212789463 0.00000000000000

0.00000000000000 0.00000000000000 13.72599068540532

PRIMCOORD
 96 1
Ni 3.3626682254465474 2.171642146303846 4.618837379345279 -0.3114804062390377 1.039810682693564 0.31803260553525875
Ni 0.9716129644912265 3.781171826118545 8.852632689608424 0.06282079198096278 -0.12102002602951414 0.7909865178331669
Ni 5.924566737795521 3.5657163253490554 0.16369891429579506 -0.0803639430710487 0.21140047279630048 1.522570011117668
Ni 6.046127380303319 5.870801334038601 10.375530951805025 1.0353894136974169 -0.6091426756480606 -1.5855257860145984
Ni 0.8740024507318026 4.442074587946154 4.556438375257184 1.3581299662313062 0.07206365073546944 0.5590123346505728
Ni 4.999179078575159 2.5678818243316908 8.619098771113098 0.682362037254528 1.4318252390329276 -1.3184449889368584
Ni 6.564030861390386 7.593104253025979 13.69757736556954 -0.9327376057624452 1.1766463355990961 -1.7311643819237412
Ni 1.5169665304895983 8.522618334303388 10.842530327702457 0.6835506582459906 0.5529740988762928 1.3164989209540812
Ni 7.010791074921202 4.431298999438095 2.3111827351020264 -0.24696165773036177 -0.17287789124107 -0.6693540550306343
Ni 2.0998142678154017 4.233108823684564 12.470048394216292 -0.6071349011894125 -0.015923098988159676 -2.590405204048616
Ni 6.897924053429045 1.8278830542560687 2.4031194185330116 -0.4507393238740818 -0.6154328795321465 -0.8369840676092036
Ni 1.2189638321152925 5.476052794890461 6.792786570708292 -1.0755335900164702 -0.2758037787730347 0.7567463657033741
Ni 3.0962889252003305 1.0372793445899453 12.983290894025286 -2.1526306678653184 -0.38518416368109143 0.4901808176991557
Ni 1.2672054572549394 0.5307291510989227 8.946023936814518 -1.3427586259815585 -0.08564447474369766 -1.6205038447516802
Ni 2.4234195394072886 0.5572489154010017 6.615130971627733 -2.4764824511855155 -0.06365280096395488 0.13412313907037549
Ni 4.422380300855706 5.304524932564617 8.880496354548626 -0.21418086375491502 -1.8834464512913307 0.23618153639572229
Ni 4.663504022466412 2.6003398851031374 12.122313869645827 -0.08583113683320702 -0.45678964383321974 -0.4106586538031121
Ni 1.530480562726424 4.329976581473719 1.9010632737913904 0.03379946504794824 1.0769803497653259 0.49763393154309143
Ni 0.039607086985278386 1.1084507468420415 6.3837934350545895 0.3586799467429758 -0.7072359176780723 -0.14891700955009834
Ni 2.3624891664422254 1.583242495664926 10.614047524934232 -0.4487166370170982 1.6529694214795534 1.8763944295405557
Ni 8.791445353087989 0.45379013619891 3.9041110687226737 -0.9269274268385713 -0.3045425414686239 -0.8211332166198761
Ni 2.753402008723701 7.27629819959627 5.642123464045864 0.6188298210288374 -0.23893158833703368 1.3314347163283071
Ni 2.3193305430183027 6.960036083619536 3.3279350056045574 -1.6313220184131068 0.3179647284118008 -0.7120832184680446
Ni 3.2940945934440005 6.70083113081341 10.290279072106454 0.0426214342149524 0.7673735063999171 0.7196864847365994
P 1.412896290564508 1.3370451505704435 4.182803049693199 -0.335170550767126 1.6675912851577859 -0.34879996862510254
P 2.6155326208586245 3.058035117085124 0.22368865059649126 1.1503704326217026 -2.670358027724175 1.200277601864791
P 0.24826805870856386 3.1407980140247407 11.866228116785551 -1.124160092774922 0.6147754484538057 -0.5204113344489231
P 6.275790902473774 5.935445486855007 12.353034318556803 -0.08197062543653624 -0.41594998410903844 2.6274121202902685
P 5.590148364767784 8.702961734660196 6.757455957491224 0.4848612052584553 -0.5699708905446055 -2.328572285633377
P 6.688348704090846 0.3037524923815216 0.6968373331821158 -1.0429332874829456 0.5298583387944358 0.13920518157897316
P 2.5591694468521555 4.274194857848015 10.14154406470662 1.2093086017188075 1.4013214140171155 1.2474496315649033
P 2.4542082748920206 6.74443053113888 8.083194711625362 1.7064709929421191 1.3311158995363075 -0.09565043691647397
Ni 3.71674337263694 7.523245803246579 13.03120803233954 -0.12602673521548619 -0.7531378224165094 0.5920111581740966
Ni 5.9072920345476145 7.174366196555285 8.241262935459678 -0.62321355191883 -0.41144541137046553 0.2506519620977554
Ni 4.657033042422408 8.557177119031149 1.4754612893580787 -0.16473854996338724 1.6097352933812663 0.11683864095831491
Ni 3.813479835178826 8.631584011305247 8.127913872845403 -0.5840050000401684 -0.9981248729190038 -0.27346664599942583
Ni 3.9585141922520464 4.165585553660174 1.3673143320052656 0.7572544156880442 1.3125229670254688 1.1285782764472758
Ni 4.434637650011522 1.1617284825376744 6.498021238002377 2.3676175724612967 0.786910033770948 0.40580543947586883
Ni 9.076384174358964 5.821415564601319 3.0124841066913097 1.3850213913055114 -1.1451801466700149 1.1047341228398266
Ni 6.35578722098878 0.4692304572778204 4.643625922029788 -1.2227986657854424 -1.1733666364065598 0.7672498363378593
Ni 8.924578733819411 4.94553559183356 10.666741934602712 0.9433547191566591 1.2377568297571717 0.7540888734758691
Ni 6.340425677058231 0.27873980995345915 8.44212965861112 0.6856394224542192 -0.3398975239291501 -0.7411510823682784
Ni 9.398488928839198 1.1528848098108688 11.101210099519504 -0.6730039930783958 -0.04919728766025721 0.05882915432306643
Ni 0.2746340200066984 1.662404151536575 1.8055994373248254 -1.7805614442996305 -1.2082562491948934 -1.8447647184504166
Ni 6.880836914820095 8.420104880881638 2.796039202451324 0.36453203464837863 1.8858851426398102 -1.3878341781639583
Ni 7.77299749824929 4.796665537893677 4.597053622176855 0.18526572338246158 -0.5059478507254255 1.4305587136156783
Ni 2.220615273535424 8.742584764639785 1.6310048931520391 -0.6870959523950876 0.5614104025691041 -0.4672530052583888
Ni 9.04716160360952 3.223120134062809 7.014557372871451 -1.5906867613902476 1.567481269808062 -0.25581062348055944
Ni 2.0550332102645044 3.192106321011329 6.777002068516895 1.1504457659443286 -0.5551111998239537 -1.0697889742232092
Ni 7.606430720623848 3.4965331082699 9.424128077161376 -0.9728624988077891 -2.5965218584693153 0.3091371028178418
Ni 1.380813359070975 6.344439560331903 12.314423199804386 0.6617405043494345 1.4606506479050523 -0.8957743982745348
Ni 7.469677342360563 9.100927007366442 12.167939905895224 1.1586776669358174 -0.9984884269060094 -0.7368887075474987
Ni 8.124409227566499 8.611945993606486 9.920253428019189 3.045642930013684 0.7295798325909113 -0.54110768645601
Ni 8.734678915107763 8.959475134897293 0.5369084681293492 0.19124739488719322 -0.9524350841913726 1.1154491952644854
Ni 4.302573387722155 4.817035057684367 11.929504923383961 0.45995055805970464 1.7577161642703405 -0.3988110104359067
Ni 2.3452332196582146 2.1170514581355167 2.1540607748712457 2.45050556750578 -0.7443037690646471 1.1953907060861348
P 6.856913045121177 6.494706970832013 3.29083378219574 -0.8372002973850678 -3.1869314764842467 0.9145907596500893
P 3.971953198633289 8.785462041105273 11.345025373699237 -1.5186454792522814 -0.6426256378968547 -0.8484655858862419
P 6.922373104117042 2.4588036085464586 4.490100513751001 1.1529813878819886 2.287136901306725 0.6918604636632666
P 0.1637186085828855 7.803307943904683 2.78796829603702 0.623623642873055 2.5263623667350945 -0.20927545603349768
P 9.110155187603107 6.417646038916678 5.649219972160788 -1.3156183181213406 0.47195092495469043 -0.5983232164350535
P 2.8395598256284327 2.1397936706090093 8.510635767343643 -0.49633475311569364 -0.8002052082179574 -0.15367406461910954
P 9.022656283529836 7.221032278727697 11.442273887705474 -0.17896137843098858 0.8430518710698384 -0.368571751935391
P 3.164665614331973 5.039974387548227 3.581207288880484 0.412356096110193 -0.9682216576016681 0.07910615940454764
Ni 5.32864574513444 6.404085115520114 1.3598436324356227 -0.32525689119783985 -2.7793753728658586 -0.5593969716835011
Ni 5.232171873087094 0.49327436834567173 12.666055317572368 2.1525008271556736 -1.345431287717715 0.8314065735214262
Ni 6.094125171412322 8.306581383153134 10.410271674232574 -3.496127457564482 -1.2279277594818916 0.810283932610198
Ni 3.5418674815057187 5.371391726352658 6.828679877842228 0.8354917993343932 -0.5923389738271606 -1.4288306751809778
Ni 3.692669451226856 9.004349974767669 4.201388829767412 -0.23616199601169652 0.40303893247432526 -0.03071876924009548
Ni 6.6941163167387625 1.953767061691816 6.760420416609934 1.2389750184349888 0.2190813863803259 -0.6441539016159228
Ni 6.754699695121757 6.381155338407664 6.089727718451983 0.20272402806822504 1.2520591053124566 -0.30125384341502315
Ni 7.7732319540479855 1.8015677354104522 13.074898401514904 0.5634222907928104 0.02498649474200858 0.9733358388997817
Ni 0.7166075839513402 6.7954012217753474 0.7950893180067713 2.2539498730317957 1.1189183847600084 0.8486800158898932
Ni 7.259332978002642 3.868923942454408 12.186895188308181 1.0445248003397818 1.1780948951201646 -2.1559553613631772
Ni 6.499086605151651 1.2364167217702076 10.398014325076758 1.5100505384944187 2.305218955619417 1.9439990160634069
Ni 6.276691212740765 4.369083808696177 7.301211472765686 0.43623187428652616 0.5639974465699898 0.3303157937779859
Ni 0.9226942310049457 6.7910403439196045 9.486045977950548 -1.7051085653769535 -1.032164479002216 -0.04118444465810971
Ni 8.199022440943448 7.230635588242277 8.06296211402111 -0.517647912771173 -1.8111604001324098 -0.3121051843072303
Ni 0.7407856037360456 8.07543610033492 7.341373751082275 1.8962703425288763 0.1616650532443861 -0.6644741012305138
Ni 4.274541852430085 0.8380791332556325 9.791298049620528 0.28006024005654345 -1.1922907270045724 0.37066540123962616
Ni 8.24759230420127 8.546982980903854 5.924618318071234 -1.1467834866013928 -0.8583753888007861 -0.257033440144067
Ni 1.2331812317482054 8.780960489770312 4.901290031326885 -0.4299388421889628 -1.3433934313520801 -0.48863815580238434
Ni 4.656892368943191 1.7259791859109275 1.1406659114060387 -0.028693511279950585 -0.004497373649721287 -0.8377872802367894
Ni 7.980528393022862 6.561320552357462 1.2709858225531108 -1.9694966461138794 -0.4130070994306306 -0.22337795687315076
Ni 8.828742581544516 2.9035006110487505 3.4034138297902925 -0.09920550125758398 1.295928295891581 1.156523596707292
Ni 0.12073629591958243 4.773923325420185 13.635797324790001 -0.5126707712715558 0.1029091753614163 -1.331302818736133
Ni 4.6665894607772485 6.968589031155958 3.3888644407464263 0.23878632100842104 -0.48516253854895797 1.6366210620285169
Ni 5.4651083982073425 4.574213876091105 4.587747602615021 -1.1019524463296313 0.17464989553982824 -0.6805848907494472
P 2.819893673233829 6.224604512502507 0.9677425681663562 0.6855196090469032 0.267022690146295 -0.18748921339634161
P 4.668849614676676 1.2402242839410271 3.171582060393499 0.42431172581017246 -0.3900666885843734 -0.14233627100878712
P 8.52472843649165 1.5159443032072846 8.46387121373578 -0.2347741145252344 -0.3903430821742116 -0.022115086731484494
P 1.0631538865340135 0.6778623564820675 13.719237330076252 0.80148613181291 -0.2730197882699943 -0.15298449475125267
P 5.686172081681635 3.506605329381871 10.454661659511247 -0.36595488313783425 0.42047461145226944 0.16552350775852784
P 4.567002015723222 3.568923680675214 6.242690432813901 -0.3529217041029599 -1.770512030483428 0.33942444094747354
P 8.405549864898603 3.355972167835796 0.8412986802833233 -1.7785423569870724 -1.0590425343399825 1.71223489200909
P 8.486699705943192 4.971850910679176 8.346116257752414 0.6536682688642613 2.2185470680524695 -0.806428820530166
