# total energy = -381166.26812981523 ev
CRYSTAL
PRIMVEC
9.24928905474251 0.00000000000000 0.00000000000000

0.00000000000000 9.24928905474251 0.00000000000000

0.00000000000000 0.00000000000000 13.53726946407651

PRIMCOORD
 96 1
Ni 7.699080353306554 4.0051733367498565 2.8056802274396055 0.698127527618901 0.6599132213327087 -0.9161935853608351
Ni 6.455346970139116 2.6148942198546554 5.863735627557977 -0.12342606436784549 0.6936697489578634 0.4659106322978815
Ni 3.89662368192601 6.936855702285899 6.147774815942603 0.37723971202303413 -0.5520299897954687 1.7000314079643626
Ni 5.396543869738208 3.43476968874486 7.8945973721766425 -0.1405310994792483 -0.33649132646107854 -1.5927097053575474
Ni 2.8761496348303184 2.851407786955933 7.013036545587802 0.945793667615455 1.0278794784736167 0.33567937208274445
Ni 8.712848665931617 6.695014544763819 6.850304556241282 -0.9184929229179731 -1.1195292788711302 0.24684467253652326
Ni 3.0447641719331413 4.091866921843919 0.27789951039620764 1.6275077868733392 2.401960568717541 0.8119775182625372
Ni 3.080651412962157 6.21146171976461 2.264189856614171 -0.20124615797111792 -0.5544920781827161 0.028276221236873882
Ni 2.600326589797774 7.098348286916469 9.692075509066253 -1.0267649052531995 -1.0289624271251503 1.4504539098777085
Ni 3.379949153286361 2.9458985226137737 2.1800148528943875 0.11356279842052054 0.8844291484650445 1.7657236079558492
Ni 1.8565727687603526 5.47161109865354 11.718293185715673 0.4988552055447022 0.6494519167900685 0.08762988060484263
Ni 8.903282275608523 4.285066068909402 11.517075830081104 0.770472457040215 -0.25177193463481157 0.3012777546744231
Ni 8.510844195809529 1.8743591513631352 2.1544969896791937 -2.788658855050313 -1.145664285395285 -0.21646117514865945
Ni 7.776959366055087 2.3349274933837094 8.803259540244639 -0.18902493331457768 1.0072268352202716 -0.5461390782323304
Ni 8.512758798617005 8.52332148656936 1.2508451614218732 0.22655841148366146 2.087880520072127 0.5515394233122953
Ni 4.48755150205559 0.7593638459561508 2.484427449994119 0.7189506350118393 0.24303481187212986 0.8993785706860252
Ni 1.9488066779204924 3.4095006314017486 10.465026560453234 -1.6824386345832636 0.08598154636814224 0.3259058376357484
Ni 3.6244356074409922 6.488080203644705 13.421078952448877 -0.9194311184615263 0.5414198183797901 -0.32710114349543024
Ni 5.509338948178632 3.946514346387481 9.983817505267622 -1.3362491069978149 -0.5473336127610638 3.1136439806440053
Ni 1.4937416628102957 4.1090798485333515 5.618697915783416 -0.1613943160815027 0.649850437780068 -0.9119072992806553
Ni 9.442321584868832 1.7169362538595672 11.284559805653215 -0.12937688263464173 1.0633535030105106 0.19131064402496084
Ni 0.7440118761984291 7.497834324876316 2.574883645822873 1.1096922381760501 0.5892739617485916 0.6245726370498856
Ni 7.862089821320824 0.46886587911519517 10.268140646822244 -0.7802331359714048 -1.06551194411441 -0.27148483968270665
Ni 6.1690444807545415 7.751431328622076 6.661135324360423 0.5578589377724199 -0.1698488746067591 -0.1799329983156385
P 7.655340465980209 7.039865033043669 8.798358342043278 -0.2137016101256513 -0.3417217216220824 -1.0462950048663269
Ni 8.343432066266958 2.257270463569376 4.161844267063822 -1.5341309764823903 1.9332368924508967 3.0396702573700165
P 2.9493485073828003 4.763004575531133 3.7779673290938107 0.1204261011992571 -1.5663024190086121 0.8882837463244444
Ni 3.7723039894850308 1.7707671154030906 0.24462611841739826 -0.2120900426641573 -0.4100832409156163 -0.5907906555034341
P 0.3861013919564744 3.5765335400983966 1.2992263419307841 -0.07386830804437601 1.1951315388874773 0.02149570797993072
P 6.990751308851897 6.075839396257277 3.4255250244643185 -0.1807333827297468 0.2142466839958439 2.4480190536385003
P 3.8947553255631586 4.953419686630191 7.084174676567793 -0.5686308315769432 -0.5044527542371376 -0.5748043073775068
Ni 6.615415164275235 5.289409356119887 11.746369402247524 -0.8753626673874021 -1.238941336983576 0.9976440766278432
Ni 5.636868143876587 8.758188680241986 11.712296871705593 0.04269831019947485 0.7525701228384974 -0.4459259616458385
Ni 7.460642934108875 4.766824531857162 9.38369681687548 0.2722777678976472 0.795891668444268 -1.5727278629189818
Ni 8.579788395456509 7.3627577094155585 4.680497218604528 -1.4113314899549498 -0.5900517204548805 -1.2356436400689108
Ni 6.085708387540256 3.079116031000606 1.2267498388433453 -0.5123249578963628 -2.2362557981861424 1.358303772805009
Ni 1.3034097953115633 2.595378220222897 3.688026318658179 -0.15538230555946786 0.5124062047562595 -0.9101823461697487
Ni 5.360665877998118 3.3282363789066642 12.588550456309267 0.11409810209870028 -0.000537360560708752 -0.38338670546103654
Ni 1.6224085210460264 0.4680038453873849 12.974308699646626 -1.4361593476319072 2.1664089525963335 0.4026416970359066
Ni 5.0345821969471025 6.18743206713745 8.387285719847078 1.0618136693272164 0.4260135389926276 -0.5464542954799041
Ni 3.032777093486336 1.8421808751930466 9.40647966535555 0.979776452318803 -0.13415707763210444 -4.0982682479734125
Ni 1.0888725386960958 5.704942910364616 0.7145602904034314 0.2140944746886958 -2.8845391485894063 1.62326726642943
Ni 7.5665750401669465 7.116402898898077 10.999667832829703 -0.8122611109412269 2.0668879769808597 -2.483647087254755
Ni 5.2649542362021755 0.6519250307321969 7.6179354166386 -0.6140568251202263 1.699594063316628 -2.062000309871255
Ni 1.0643526737559101 7.5701082685362975 -0.2650337495015271 1.139197960944651 1.642399873493823 -0.5375366812753001
Ni 0.267203632683333 5.65389608478752 9.499237084268845 1.4645407269880777 0.702794594077267 0.5683097007920986
Ni 2.958024340394454 8.419026504651015 7.959291523562583 0.3437996871970337 1.7182983245943502 -1.5667791015347148
Ni 1.53831398613989 6.831145579162028 5.389051945708955 -1.2376061631119202 -0.8421622693760336 0.753621189810831
Ni 4.877871494690759 6.704846538891099 10.65155697020379 -0.28112030588994164 -0.6999206149635817 0.8025945343857404
Ni 6.636605285202419 8.51141765172288 3.039591044637387 1.1165514271897288 0.043872018792601865 1.1490738252974664
Ni 7.62268122678602 4.630388270924427 0.5423357558331794 0.8189891736936797 -1.9414371688735015 -2.0120782282298313
Ni 0.13567781924088365 0.31833647664743264 4.3840713824915385 1.3544270634584223 -1.2286826353700453 -0.376967432198254
Ni 1.9909279396849606 0.44722346795957835 10.703931993670517 -0.45015954011121184 -1.5554634194115793 -0.7047566028996443
Ni 1.6734368480452735 5.710797710254144 7.573763587519459 1.1746835554457704 -0.04473436679289715 -0.0975247711210514
Ni 6.455550454495466 0.5304272963422368 0.9232177740492742 1.1916986019465283 0.764747895851612 0.6781672824468901
Ni 8.308506751286142 8.787499676845323 12.59843239659674 0.5872775001438532 1.4419947233667618 -1.789370557950828
P 7.340152447282849 3.023213328737882 10.903498351231974 -0.3969006807870713 -0.6242461069484022 -0.44394749776322895
Ni 5.540046587409645 1.4081949895429338 9.799520798792454 1.1044003936494915 0.4266686560781232 -0.18804174346570193
P 4.664268416256716 9.11400882518689 0.15509207669446706 -0.5844469726735935 -1.8895492217549585 -0.13239690040788812
Ni 4.555210050541994 3.6761113846649893 5.242957577280731 -1.466541045247558 1.3254155067174205 -0.11667820412105066
P 3.5819351248305984 1.0279382232581693 6.4509961046287945 0.08747844262864289 -2.0147218365002657 0.10340668382312515
P 7.778929464596113 3.8083762162925465 6.977514651471324 0.36229620333932444 0.5905973085457055 2.182779680644873
P 0.5087210650930374 7.284064759241624 11.086969096206138 1.236326267958232 0.14110342704295054 -0.13726245603030557
Ni 4.058412243802179 2.014624617910821 11.28297540246036 -1.4394133357928307 -0.17784423410740985 2.497295531276125
Ni 8.031388805804097 4.517408206705503 4.996119028952473 1.4493061694265104 1.0243640091211907 0.13207628384367578
Ni 0.845565368879403 5.246196678262268 3.1886627591705685 -0.16685456786512554 -0.9212910544884004 0.3351448397355131
Ni 7.846421525881867 6.456401389076566 1.6411235322568793 0.9606988668620615 0.5109931264588168 0.5236750928018594
Ni 1.6806697919846267 3.0865432100073846 12.680806563762827 -2.3845043209143064 -1.9160367265225262 -0.4627687442347901
Ni 9.061204634714043 1.9171833590859038 6.432531749147808 -0.11362141957259787 1.0670340371858913 0.0611212927913528
Ni 3.4110730105189995 4.586380154219258 9.264839754473607 -0.6997887173714078 0.5576797318820783 -0.5104819911503531
Ni 8.767548960634091 1.8489883518418493 13.56366691544563 -0.9035278169677085 0.3189666873137539 -2.430067354256086
Ni 5.235670987465613 5.068897058858867 0.424489640710811 0.9422100640292548 1.3172478833049637 1.634463649365882
Ni 6.019992189728103 8.49738648042365 9.057732451651596 1.3199370001013526 -2.649543147861353 1.3485675193538516
Ni 5.401825213714385 4.54390741947564 3.133674811582527 -0.9375769361326176 -1.2177667597884898 -0.8837516627820459
Ni 3.0952282923079633 8.36021952566584 12.216790086831013 2.4738067041255656 -0.6902830918738176 -0.9001578720542109
Ni 3.0938593975470625 7.873975157589454 4.312337597304777 -1.2593114159994958 1.2304749513837776 -2.8242007567106655
Ni 2.904387713918356 8.479470607775916 1.4592908363513335 -0.8917195114788706 0.5759335358859435 -0.308631623936333
Ni 4.959043254296594 6.590118359065349 4.039413279421328 0.6104074012930971 0.43560992443181107 0.9059035162887366
Ni 6.599145665056153 7.532028946032056 -0.01448253659877126 -1.0976715595660902 -0.8643046098010277 -0.422799145820388
Ni 1.2115458577084237 1.5492928920938698 1.3870289167669547 4.458607327586367 -0.7951028539943855 1.278512671518295
Ni 0.46256156378391244 8.026875152808694 8.419166168913781 0.5809692985376381 -0.25886020894016065 0.9150779836991529
Ni 6.1120503623986675 5.352508005166264 6.05508491683846 -0.28247476303530705 0.22581279156688852 0.760793024968922
Ni 3.304502703525104 1.8779201275992619 4.5305449717656865 0.6731119794111697 -0.4615698388306825 -0.1162493441137482
Ni 0.627992495638749 1.0804371871964922 8.809648949034031 -0.0004098338439089716 -0.4748855821029822 -0.00940355270208703
Ni 7.02219889119691 0.6761655671468474 5.138368467974571 0.8453005578946989 -3.0147629526053756 0.25496164521670284
Ni 4.90598933302277 9.043538492867285 4.996023761276545 -0.24456770357688848 0.4997093260148813 0.46030974117133633
Ni 1.0355873851991477 3.161841671145842 8.192796296976557 -1.1174788241000047 2.233345823628199 0.4378028183180718
Ni 6.747975973148392 1.63104735690198 12.411469120124496 0.5253743348811533 -1.21875097807863 -1.0700861937486539
P 4.114037467397154 8.74448123405513 9.96226573714347 -1.2225161015480173 0.6584620907084788 0.6714027100295469
Ni 7.636656902351702 0.2488983649718576 7.583565058993286 1.115248392107589 -0.6050299390312677 0.06130512666738475
P 4.19824299377039 4.86663360864688 11.80536506672677 -0.9970424384881021 1.148034071179042 -0.6280716513420797
Ni 5.098781511375555 7.402631393971251 1.8519934458135832 -0.5353026497384588 -0.2034673339921528 -1.4995031019958756
P 0.43075140931303874 9.146695812247854 6.531393698751606 -0.028890714892421215 -1.2082855597709319 0.375391860181018
P 6.0186602921229015 1.9876351928276594 3.7091849920030184 -0.5135053513577091 0.3913861787267453 -0.9188914439079722
P 2.1964471395985496 0.41413136204369905 3.390896611657996 -0.4367427524846736 -0.09893604964628122 -1.3367041922573624
Ni 8.535290066438314 6.318494491204756 12.772319028386818 0.3005470471559856 -1.0443419949050143 0.7659267466510615
