# total energy = -340856.271371206 ev
CRYSTAL
PRIMVEC
9.35478639633196 0.00000000000000 0.00000000000000
0.00000000000000 9.35478639633196 0.00000000000000
0.00000000000000 0.00000000000000 13.69167548733507
PRIMCOORD
 96 1
Ni 5.642152214339375 6.563654785966909 8.16133346697439 -0.7823586669548397 -0.9396860120558204 -0.7538577313016694
Ni 8.459102860784967 4.930814269985145 11.062203094185612 0.5139601795069406 -0.937425755266734 -0.5632073465685268
Ni 6.64100015845403 0.9479672618508124 9.110331626266916 0.7481298276789567 -0.08135561756035667 1.2687190824666408
Ni 1.7280815945124097 5.182083827919846 10.117367814762073 -0.5917432492246906 0.9473550985653039 0.2675651929133263
Ni 8.303654378126705 7.126522918184814 7.376992641897496 0.15190437431319645 -0.22415263025564622 1.1655471403621411
Ni 7.455540104414202 7.449571750804285 1.8647372471284145 -0.7326800687827898 -0.3742304928830652 -0.5317696968845358
Ni 6.3423018343715665 5.98087031388143 10.390598668832569 -0.8219333439236683 0.4103192681858224 -0.4391590752356501
Ni 0.5195685687087271 2.9799016676542496 0.8873052151127874 -0.5945539792006084 2.582287460037488 -1.5110900355025265
Ni 2.834088614805099 9.253642273801564 0.4866518824278325 -0.4001287008060657 0.4463900457664505 -1.1547575059458048
Ni 0.41228413839531264 6.594394613493842 12.377945357063998 1.5351522186580528 1.394087872383154 -0.07142524582052215
Ni 1.7545930586668006 1.445398664442761 11.369156081630756 -2.088486786197558 -0.8416760737682343 -0.6458048069557846
Ni 0.39948585536439446 8.546878819910107 0.3593575643846219 0.5717557503591701 -1.5032237453805724 0.39553413945684784
Ni 8.126568274935943 5.618868151431725 13.330530141394204 -3.824106632789491 -1.3498805817383204 -0.13639650848558446
Ni 8.438372654516042 0.870159762924302 13.314018008232978 0.3970168946499614 0.9572425328823451 -1.3121108191887143
Ni 4.2517877572432194 0.8291306060313085 4.446289665944295 -1.7349860696626764 -0.2814105834368509 2.6479200104356333
Ni 0.5079096986397019 1.1446797065362506 1.9559651223696355 1.6092221011902736 -0.9395019210694723 0.21433770104775346
Ni 3.6168222876089797 1.8195059202643018 12.38229907457192 1.9111881401809732 -0.12873873483001055 -0.09191179580964816
Ni 2.9061953070076556 7.783537618945343 10.387914780665353 -0.09822025452617923 0.9801379494232797 -1.0171191546333194
Ni 5.427946319417976 2.5266061464597662 1.4669810917365491 0.48150797251550626 2.143089304033787 2.640944350448749
Ni 7.832079604653577 2.2804443018025173 2.5214862719602253 -1.493038063096822 -0.5227150428814352 -0.44804326509915743
Ni 8.145081396870149 9.43458254891597 6.9963230035409145 0.7221467733516337 0.9504514781024406 2.4240759125593416
Ni 1.6718499745293316 4.755982670273991 2.4541645529104463 2.918105414580626 0.41814082111277023 -2.368769426677553
Ni 2.338556233816306 5.628802934399954 4.485187802535817 1.0318150660825973 -0.30261935630398207 0.5607228895837763
Ni 9.300837170293766 3.8974284551372467 3.213888258042994 -1.7563287970045107 -0.6185814524634572 0.481299456049126
P 3.2915563706547903 1.6148512620760131 9.86382504377532 1.2304266146443454 -0.5249611586031346 1.3694417916996995
P 5.46912608836915 8.306666619290331 4.236970711345499 0.121697511712513 -1.4124476058372641 0.32840983500452475
P 7.340784941823547 3.2985163316042847 9.865002811360725 1.4754977402202136 0.18911697880775172 1.3368476598137622
P 3.0805498126214657 2.311857673937466 2.819950726387128 -0.5840690205088845 -0.35188117865358753 1.5944945651721119
P 6.870052099110438 8.06840021420482 9.015475029450013 1.2615516181839241 -0.39430103838069513 -0.1842812479820052
P 8.545035927024287 6.016970433913821 5.479900931140156 -1.4800352230792508 -0.08600828584101962 0.41033366636352553
P 4.164722761870984 5.27585620501357 9.678781759423751 0.4462998000454894 1.2320962890372844 -0.5778366664459275
P 6.228500859975601 1.5706218328163235 7.171015216937355 -1.544950178585081 -2.4230474712948267 0.9107112220900251
Ni 7.826850279155233 3.2857096292657664 12.69004721884597 -0.11648897092838004 -1.0248180659394737 0.5212561989477216
Ni 6.142165537928716 3.304924360166655 8.096586185093027 -0.33257656478770464 1.6123652748049457 1.035823930131674
Ni 0.1805773094089762 3.015608886665297 9.622180625384887 1.4787350162105888 2.039461505338791 -1.8671605696471132
Ni 4.699741695504691 8.868000566567757 12.06172271195104 -0.6689329083328157 0.11262100333254153 0.0016002546075843409
Ni 2.5260635688588646 -0.02135323503133828 8.617513068761252 -1.0835831997938241 2.9298201319143926 0.24082880535974655
Ni 5.879155723284856 1.510115075529591 11.401536738661104 1.1597125359582352 -0.6975138052943018 0.6157578669717331
Ni 3.039538429822295 3.5236392620472685 9.049129808363856 -1.0413559156934968 1.1839899204483608 -0.387630568339055
Ni 9.490149979077255 6.254628777894872 3.572267311788749 -1.3716634819413667 -0.6051543804242739 0.12777020026915414
Ni 3.9607884222218233 1.983158550439642 7.5605569345472965 0.9874151998109834 1.2175759839339226 0.6798590683270161
Ni 2.837634078783404 2.414283228286946 0.7926347785417089 -0.46182592070554657 -0.528459144454064 -0.12815483730208252
Ni 5.39869390290041 6.40852436604021 5.651101938318381 -0.9430556998590017 0.3380730691259016 1.5613013662495951
Ni 5.353856412536263 8.584092159502967 6.571388387736998 -0.7298834798742591 1.6761240052191455 0.50664487679245
Ni 7.639109074457113 3.722980401661212 4.888270573202739 1.3154522248571217 0.6633584995688317 1.1367980932539068
Ni 8.369923683726459 7.289146521875687 10.717213545960034 -2.1918204506909027 -0.9721855273454224 -0.9714519916135076
Ni 4.879961652079969 7.87954578994623 0.8395808377203947 0.357068636391798 -0.3540797289668031 -0.41977424295113513
Ni 3.093132000090646 7.341608163011122 8.161744142089557 0.7723904999985343 -3.0331782218877694 -0.8315287009215873
Ni 5.954536590665265 4.804346915043999 12.293988021674854 -0.5617544161720841 -0.4278017412413019 0.8675999927228477
Ni 8.375171718797247 2.580573908177014 7.157364712881572 0.5514761741745277 -0.1465513375313992 0.09219127472327993
Ni 4.637354626187248 0.663670631157793 2.2382196032302963 -0.17889787218290482 -0.722509298897375 -1.5825188808674746
Ni 4.156715064864576 4.19769838330508 2.5589054168499796 -4.642795501633933 -0.3521136063793678 -0.13411311176804644
Ni 4.3166444901233865 6.541418459116171 3.1017262421932004 2.174817745485319 -1.6696448252527052 3.071434951376123
Ni 3.7730846366685933 5.174356774500111 6.97674343597735 -0.42884072402877754 -0.8924257935172759 0.19122991138569645
Ni 6.290176965540139 0.742081513795651 0.37731968941032623 -0.4672707458702017 -1.3819949457743619 -0.4467692834827402
Ni 5.202561454960764 3.292024109965912 10.073157095074828 -0.9913777840031571 0.3661896248564597 1.7964760586473576
P 1.6331585787133256 8.592137275654265 12.24572480859605 0.37021700084829784 0.9982541994080162 -0.015173365306328705
P 3.268178759884916 0.38769040541652167 6.589159675123765 -0.6345724285750749 -2.766943574860409 -1.9821526443149926
P 5.448648461328233 2.7567245327455323 13.230580798957806 0.45817392577525606 0.8663766618387079 -3.5964300485409866
P 0.33095643341329845 6.515730216149356 8.96477489456026 1.0060384713391253 1.7215811091106803 1.32291510889307
P 7.558985330461927 4.454346943317682 1.6494087778603235 1.189376895791887 0.17489517878141492 -0.17130514743731143
P 6.058823747473011 1.4032272881520078 3.588067545718448 1.1352639159975675 1.9315394501438157 -1.5960125444785351
P 1.381280959674167 4.696046554946828 12.344551576685758 0.3184681504107805 -0.5833943630393631 -0.05865740463189253
P 3.215080993286355 6.3142561852766965 1.3782724604250307 -0.6686842826571193 -0.4554446997695511 -0.8986288370041943
Ni 3.493479431266127 4.196435487165051 11.618892390103598 -0.8632627988000745 0.10367639254474405 -1.2618485805990527
Ni 7.0451362780496 1.3462005113400224 5.404433064247877 -0.141064346274899 -1.411933128094691 -2.4619901711066117
Ni 6.826664600610769 7.772779614789538 12.80724772255517 1.4859891266698406 0.5566402348739703 0.3213300453396079
Ni 5.614967205576968 5.5436088962722065 1.3800657729438721 1.822082189251236 0.5396773817673867 -0.985686904265967
Ni 3.087752998012743 7.626367855622152 5.815690047115965 0.5902000731072867 1.121134932795353 -1.2408166996294179
Ni 8.665329123058624 1.533343009719906 10.864426074828062 -0.699631365857937 -0.04554914938470866 0.7927168702607121
Ni 1.4948480644145712 6.297034023841187 6.784430547252325 -1.0129642519246813 0.07124295460638698 0.6175165015340526
Ni 0.5924872563553912 4.36020037477506 5.7440548361390205 -0.8651445892038198 0.2642998918984932 -1.4532726102734261
Ni 2.797558174606477 6.770882010366368 12.200145483684462 1.0638576963404387 -2.3786013251663096 3.074619776862008
Ni 3.8022902792550464 4.476386819657748 0.13069010544195578 0.03378403842898052 0.8501257471974842 0.6352897663570736
Ni 4.811774615304614 8.593390817008071 9.11039991620634 -0.087020786265934 1.252857689954352 0.7240740722813336
Ni 7.253242852353967 4.94118872790583 7.133485685570175 -1.786989202202845 0.8721708999229819 -2.01841676885335
Ni 0.6396821528475939 8.672738113746796 10.188358480968292 1.4214014725964423 1.3109198842044067 -0.4214827410018096
Ni 9.222967929778187 4.844619269731597 7.869550200867555 1.7499138946171022 -1.3155938926413084 1.872570942029407
Ni 1.8919587395570885 0.6625059602730995 3.7428658707342497 -0.13815231483442658 -1.5213554219842766 0.4684706797155739
Ni 1.7191477736699807 2.759063229301142 4.678924489723898 0.782509076489775 -0.20997479609336744 -0.744415612052163
Ni 3.336506118453608 8.332308088326034 2.6221475136281533 -3.305276269674443 0.4736105720453005 0.6253102865468586
Ni 8.880058886008479 8.615991980521484 3.4933353675583017 0.6015918598839962 0.2802690136332399 0.8117237503805181
Ni 5.57569581301517 3.294942803267313 5.889269182669934 -0.44682996151734655 -0.7494385191880513 -0.43280073711779016
Ni -0.033121556099166 6.106177675330995 1.2869641340222968 1.5406304681638048 -0.11073767026689961 0.9838405950858475
Ni 6.702741747522126 6.170791183769378 3.939546509146532 2.573835986836025 0.6433807708953242 -1.2618861187052075
Ni 7.36550028702323 7.960623722136104 5.4804219927327456 -0.14536374498120125 -0.07451956847512972 -2.2475218580182648
Ni 1.3169668043949017 1.452966686496714 6.764590916631778 -0.27976764851678915 -0.14196526082261354 -0.18760902680365754
Ni 6.042621257735748 4.127640389285237 3.374381776911017 2.2759114649045515 -1.8489023947678735 -0.23152372590873677
P 8.136278543034834 0.09155809919487301 1.6503807401488348 -1.5903977693949192 -0.009943998586589325 -0.776084918130986
P -0.4057067882023161 1.948321326547281 4.984508871944699 3.1319798028387154 0.714537336435492 -0.4711361423628789
P 4.503496990130374 4.685064035921685 4.852425838834221 -2.07571020325818 1.2366016331068057 -1.2352489757336533
P 0.30374429577084694 0.9932912010985273 8.718680404363814 -0.47145855869930414 -0.48418860467146285 -0.48987074265790476
P 1.4457073723881015 7.681018516733638 4.21186059416723 2.1156373784704208 1.8635283722111646 0.3798933475957974
P 7.620118858425563 9.22535340026491 11.246793606884014 -1.5108313825245012 -0.8551514825468498 1.409816081751688
P 5.010030599716755 6.802314092073761 12.522857543999926 -0.4686025773077478 -1.1548724342571144 -0.17635942203176722
P 1.8009740887576509 3.5388314348725087 7.263926953698615 0.3401582337897045 0.5271717931012082 0.48940948675077
