# total energy = -340867.40775236813 ev
CRYSTAL
PRIMVEC
9.26466630807725 0.00000000000000 0.00000000000000
0.00000000000000 9.26466630807725 0.00000000000000
0.00000000000000 0.00000000000000 13.55977562869153
PRIMCOORD
 96 1
Ni 8.426899571968782 8.191197196999337 4.832202567927783 -0.9208575664954076 0.5455528667115572 0.9438496565152067
Ni 0.5598230191012021 8.127270999629376 11.486173908504703 -1.8469349866288578 -0.10340642671280902 -1.1788561987662214
Ni 4.475574989200086 4.610978086962691 7.224052198189431 2.098893840463495 0.31352880412763423 1.4263045663250147
Ni 7.9056601820801795 1.1692286792291515 12.238198914965036 -0.1571170288623875 0.21156142385419696 -1.7321583704058943
Ni 6.8011451968552565 8.53268353161664 8.645767121830842 -0.9599262503620951 -0.8337732739813899 1.5795155752647765
Ni 1.980767122507659 8.369365994335816 7.468602329461529 0.7218744935268535 -0.239698034189413 -0.25539461898906335
Ni 4.640671342407724 2.504860029612196 9.217406296312573 -0.45126357180866794 0.11437680968138365 -0.3572956648009395
Ni 5.894319660830365 0.5932249204603208 0.5375424231511995 0.8426073273332522 0.14689817934785668 -0.23180937546995561
Ni 4.69869594735382 9.054960564129217 9.804802815212684 -0.07793142237015611 0.034177931433289524 -1.0374157000988262
Ni 3.26959337881635 7.5983697307226645 0.9677805549170915 -2.2139738468594903 0.48193451852996355 1.1065261817432428
Ni 0.9212237538991891 5.540390879391635 0.06984631912639613 1.8384637159330532 0.2601213350407714 0.04700233689146744
Ni 7.754349652305367 5.759027739063186 0.592147439771317 -0.8783184075816164 1.237817507791778 -0.859906737843648
Ni 5.0863017907403485 7.680584379340204 2.6956426700963863 0.4232740285742775 -0.3590453005021945 0.9669682448105413
Ni 9.222058085254522 7.6940274101204675 13.688593539559845 0.06709833631039411 -1.84723503436778 -0.49313501523147324
Ni 1.1776873195478144 8.960479497349672 4.098130631795496 1.5252534714871022 0.9442186098188513 2.964223034874295
Ni 1.980359477191097 5.306300556355867 11.318765094592205 -0.21268216772220144 -0.27615961945055667 0.43558189940735303
Ni 7.430716329620228 2.6782019358139295 6.058737840465904 -0.4844202610662947 0.6144370912777805 -0.003487958548600445
Ni 1.247320551349644 3.885110012826216 3.7714483074357976 -0.7084211962354251 -1.5801948607199883 -1.0644253959184506
Ni 4.226197966793241 6.93782681856526 11.323415957067526 -0.7078666092835357 -0.09588543574541551 0.7407852143884275
Ni 0.8378853012612171 8.207058305680116 2.2297559553971418 -0.5450440453959388 -0.21496093645404915 -2.4011666120613357
Ni 5.7670046167350035 0.8891504056854113 11.41364268908877 -0.4517088868762027 1.4011432365680385 0.44912801352290393
Ni 5.644349699781248 4.7987265492383795 5.201720076858497 1.4425369690234768 -0.13600801479791416 -1.018314203382685
Ni 6.660313004649347 4.360035335953596 2.012840470721437 -0.47516660367851077 1.7303555128692008 0.7319290495493782
Ni 5.096863510305819 1.1203482999068453 2.881221347528011 -0.524701991404477 -1.3307320338343276 0.3220589530858325
P 8.631769137540077 4.269176753691682 6.862426332000706 0.3817818228677618 0.7968177798029632 -0.05608450169839373
P 7.985262194805209 1.0406814345178175 4.676549689064957 -0.8176406300855855 -0.503455680431191 0.34241309126215225
P 2.2527777246499845 7.121165299689051 12.580786818403682 0.11687720750573419 0.8656426118861608 -0.5270980024404793
P 1.6424029804285716 6.2910604651743975 2.080557769535425 0.09295566369313023 -1.6536780175108035 -0.592167995466935
P 4.485024948811297 5.356987545603846 2.3479026857363716 -0.034630702699991966 1.2369741859548762 -0.8517920791563138
P 3.4779371942447086 1.527456265824354 11.71861604740828 0.09446901501386311 0.09520512184893926 0.5278135404502652
P 4.788211153004335 5.1970516115172325 12.707679393716427 -0.6019726402621827 -0.7390096105452434 -0.6529249629403335
P 3.748345009119642 3.777361943925833 5.391231605128318 -0.37282127124036435 1.3228755139043862 -1.6304743257008307
Ni 8.865572255920993 0.508172504559531 0.4879431057251384 0.98224985355996 0.03723574442300684 2.4293003941830746
Ni 2.683751470918945 5.793529356310394 8.10226381239155 -0.7631463556924469 -0.6555901684773225 -1.1429420013681153
Ni 6.598638121186763 5.500580608362835 11.66471514542586 -1.0815522854067245 -0.35600857055839974 -0.22705283462157674
Ni 1.2016828052272632 6.892995098409719 9.478798664425085 -0.30958061811316356 -1.0466562448604877 0.40551850436306935
Ni 8.68889506985648 2.1693957280804708 3.060333287892355 1.5154369996173127 0.4971083980569245 -0.24735812183783204
Ni 6.6157406951498 1.3539846542946232 8.726298380584307 0.4981908324878259 2.711760759040678 0.5075226514117129
Ni 1.7095810756647434 0.16671952274085738 12.839114434908952 0.8858787364273775 0.8853804566347203 1.5404826297320309
Ni 3.764113471137566 3.444871600271754 13.406685494424718 0.31631536573383584 -0.2696650128651485 -0.41915255020673625
Ni 7.0486970800038575 3.0965016186043246 10.823968915215682 -0.5572601278461564 0.14029327243682937 -1.5062612466553156
Ni 1.865459085918307 4.63802164785007 5.706359964163367 -0.12740073274487734 2.9546608451071563 1.2653481091118788
Ni 3.3902285985198657 1.8244444082723914 5.882420123453267 -0.8095023172491671 -0.3247138742101762 0.7087086455688569
Ni 6.426157828949581 2.7429526884833 3.83832530101769 0.9139729235604324 0.6154094824933789 0.0018974741330289905
Ni 0.47579527529158877 6.0892852981424594 3.9303957016297475 0.8839465524016712 0.7752500809345165 -0.07446428975716207
Ni 9.2647589321644 8.67587821372535 8.825989895682818 -0.8210213736323602 1.198146414454401 0.3839325506621775
Ni 9.080947953060049 4.173926719610441 1.7847379015059892 1.0124124931862692 0.7081401746598965 -0.2837148060899952
Ni 2.6252358386597177 3.3863189093473838 7.528387221001871 -1.4639599147839433 -0.7973937069110912 1.4278935080786892
Ni 6.628451817293507 7.964453754327971 12.215174366312308 -0.21636218767694995 0.6812883445743751 -0.3750373050550767
Ni 5.749253516131982 6.626154180054703 9.49797189130293 -0.13569074066781145 -0.8443356228782686 0.04581423012063723
Ni 7.772230458236385 6.052977070969579 5.2751870275692685 -0.22681835001326742 -1.6046815330074427 0.34554160958880487
Ni 6.064455992497315 3.213921999106771 12.926452443982374 0.2617249320824654 0.10225148717275938 0.47105232439982103
Ni 2.223362409193517 4.155786503023429 1.6620218377547498 1.3290993833269111 0.09510150639153944 -0.0907422009815792
Ni 9.115560746302682 2.5794035345453414 8.413569570117202 -0.16125007719415457 -1.3411820255230578 -0.4333920908448859
Ni 6.831681536932269 5.651937461469073 7.44302907111366 0.16042398174843342 -0.34702127945812494 -0.7235133146818571
Ni 0.24364867924251948 3.3129520170324973 11.10319206006127 -0.2850895749503348 0.9075248539422434 -0.8064249638754241
P 5.703347094687321 2.657689964657829 1.5509672094570712 -1.2092939464307884 -2.201584729166518 -1.4876122640955605
P 1.9287367566482825 7.056062489700831 5.228595020819481 -1.6628547989140652 1.2813694242407996 1.219568331773603
P 2.0313799944253543 3.7100726726942352 9.727281646535378 1.6796237908422877 -1.0154906178909608 0.1771405231721659
P 0.9606717764762261 1.0691054306817362 7.116671936540581 2.100816254297188 -1.579724863062105 1.462763837593313
P 5.391516956849911 2.4067008903173073 6.8109666695845155 0.00046948343725080433 -0.1676716644497822 1.4292327957154032
P 7.722923904264947 7.564979873429716 10.425433545012147 0.8731481762345866 -0.7766613594597463 -0.48348335107432217
P 8.651011849415065 4.181764627287976 13.002455133855486 -0.5511678989054895 -1.0750862180664065 -1.1574088275257228
P 7.80638928283103 7.684948037160676 7.182938388614261 1.8199296616846077 -1.280140951150337 -2.6528372452315927
Ni 3.7422395940374966 6.20937390253513 5.42255451537297 1.8530148742743506 -0.07917480785895396 0.031952641647196585
Ni 4.07599919697269 8.942228104767233 12.711381554364113 0.32352756721155895 -0.34296536422119644 -0.5225798028551516
Ni 0.4531209310244523 6.336531447303639 6.972911183321826 -0.4981257835778454 1.0390223824643137 -0.8669852419569842
Ni 3.3514559701150417 1.217988617889746 1.0395224247655013 -0.6945719490571586 0.34876937249748324 0.26703888809621107
Ni 8.227885275489923 0.5912404289419665 6.825787356241434 -0.6487705744523279 -0.7883081996700553 -0.07237038334261084
Ni 5.610135287188891 0.8892467582147805 5.307377110578242 1.1866715810455823 -0.4511183044800553 -0.9034388567983279
Ni 4.125620749597836 4.647897782110415 10.407249784493592 0.6733127825680663 0.0388622242828363 -0.4544190867185141
Ni 0.891120073737709 2.6242352547008836 5.822526835317385 -1.4732979043554175 -0.3208356222016926 -0.8101864878003854
Ni 2.4873220163337413 1.622993504560446 3.737508128965491 -0.28103314549277403 0.08416917574975182 -1.1610225130189102
Ni 7.84537499856042 5.295164427480695 9.500575262529155 0.3424642562150618 0.10378643576004706 1.22250196048063
Ni 8.819026572502635 5.967686553145252 11.62526990224871 1.1048799043890716 -0.2748072191877203 -0.2961100944305546
Ni 4.5619494729798165 0.4133634685934795 7.374985656046422 0.10775261949664668 0.17443829374965442 2.0948726351192435
Ni 7.522075203861559 0.13216139102930807 2.7322677488562315 -0.33325096514690994 -0.5826749683748352 -0.7935427085961172
Ni 1.5549260013608663 2.9792943254264443 13.137470042100729 -1.1927069886063846 -0.6620603495826984 0.26623644679957376
Ni 2.4046811930670677 1.3180099551080207 8.749228429640922 0.7877171030532756 -0.15341052654507772 -1.2299422188087592
Ni 0.5830782579444395 4.72429422030066 8.616247115645349 0.3167858776123512 0.6524133134112376 0.26780893349301615
Ni 5.371384837011516 7.494503556995906 6.936340766093066 -0.3078322679634892 -0.32348103024433966 -0.9286140705123749
Ni 3.4402855904604306 8.854927154358952 5.522462823662561 -0.23778873298184208 -1.6488816245634246 -1.6981591306423143
Ni 4.05974897230792 3.4049316239149565 3.2452208212190814 0.34782809163013645 0.5474328573430896 -0.05663034689953473
Ni 1.3905615567897833 1.1740185116987556 10.687028809316311 -1.973203919762137 2.092202544486249 1.4411007507975828
Ni 5.331018686005585 6.823250690612463 0.47232936363418265 0.41603945849905116 -1.3453927211702956 -0.41730984057104253
Ni 7.962684203067441 2.4778257333911022 0.6413567147467585 -1.011696440955851 0.9829895599394619 0.6652469748407963
Ni 7.8158485071085275 6.930804201520851 2.865004475661869 -1.2263393319488491 -0.10920632122403773 -0.9500652984076154
Ni 2.4541452463653606 8.647843333545422 10.287204724032463 1.5949321669301628 -1.6762492179431001 -0.03672126668043353
P 7.130077908655704 7.957069815298428 0.7504620572579673 0.9687083674300994 0.7017059889987786 2.032732928365706
P 5.987846466982504 4.271678213588768 8.972530975253852 -0.6186236185553023 0.10072116657116204 1.3730793884522867
P 8.120479999242104 4.42300727269615 3.676963534789739 -0.2448564384619009 0.2440671097913861 0.9612606529028026
P 6.0143897358904646 7.251695182985482 4.660562580922695 -0.5072884239137199 -0.4401335233337775 0.4989886457987729
P 3.701604767709287 7.258449124707613 8.998050498537266 0.6112849188020439 1.3595147623939747 0.6917707321629376
P 3.3579875598463205 9.026795978621292 2.808148145134375 -0.8660151647342311 0.3437230683228274 0.0853588251824788
P 1.0958803162468358 1.9133481459480646 1.531264970134324 0.5964100585727407 0.3899713006570897 -0.07238555285126243
P 8.432356460410942 1.452755261564355 10.152556696572127 -0.1703021600940938 -0.35279880537185043 0.02001938054472036
