# total energy = -340893.52122315444 ev
CRYSTAL
PRIMVEC
9.06488733753730 0.00000000000000 0.00000000000000
0.00000000000000 9.06488733753730 0.00000000000000
0.00000000000000 0.00000000000000 13.26737891133847
PRIMCOORD
 96 1
Ni 6.3793508229823175 2.0571764073202634 11.579051631686722 0.664488499408217 -0.3299121305816641 -0.6480750910472
Ni 4.746229832908283 0.18185432551396952 6.040106489185334 -0.7403183020543379 0.9970750914982506 -0.09472818221252073
Ni 2.876179889423289 1.5285937772423486 4.791566959112115 -0.13195518488477917 0.21732969379654185 0.28884055735233477
Ni 3.4204629039105767 4.415705920474935 5.107422977773634 0.4111733886560015 0.5226119416446677 -0.508218649037473
Ni 5.378841107028902 4.744833840299135 2.459187832183863 -1.6244821126731377 0.04205296330599209 0.8484794698433128
Ni 7.4561324987627895 6.021922325718128 2.577360419525612 -0.08387324177588781 0.4507146412837334 -0.4311521457707736
Ni 5.043567193769624 4.402253628059514 11.685562241809846 0.9472391418127297 0.7950809996175145 -0.880583035246077
Ni 5.308860178830081 7.892280475363582 12.360314362952574 1.4224072881531373 0.7871188073476445 0.9081365193843135
Ni 1.8376520370882856 6.698317004398372 0.319186458171914 0.4275526013449733 -0.6350370269163192 0.6083309783800426
Ni 2.659320595990592 1.4880465373675649 0.28737958241232514 -0.38673531021829527 -0.15210594880104128 0.9233340530603583
Ni 0.508514783077066 0.24834799165604438 4.829033950359702 0.7152855274554262 -1.3510188091078217 0.3634074341256322
Ni 8.544544424657134 2.2835175726306756 1.2821113393458015 0.7768202536351138 0.6941556874553464 0.8382238535535758
Ni 6.748164818409424 0.9394305068596767 4.981316801266132 0.5626229348199665 -0.6652652296732414 -1.1869081225364202
Ni 0.6909284121234017 7.358295172590526 2.499746856411841 0.04617932676953982 -0.1884019550185981 0.5590362459099727
Ni 7.833005178797248 3.883950579921685 3.9576589896846723 -0.39682406191286496 -0.5896334019705394 -0.8547588750941215
Ni 7.80976280834365 3.936254978329354 12.802661815822171 0.1694999759077726 -0.2245670920852455 -1.2476257521314513
Ni 8.138564392233246 8.794245803953087 6.885915748850113 -0.4189885138250462 0.24788905464063757 0.10652723172997783
Ni 7.013901982936427 0.5167547654258651 0.3591589842063084 -0.8571551432404398 0.21610944823619557 -0.06107321316223676
Ni 1.821308045696773 6.263247749359194 9.296664450473973 1.105491312720825 1.7771246507039393 -0.06348182260372938
Ni 0.3758501607726932 4.882166879445786 1.479126688488337 -0.16782387375693034 -0.6129653918282605 0.22759867982271767
Ni 6.092283979173989 2.0558710635818396 6.8803163681054995 0.5725013702759431 0.4739170475421258 1.2133498616677167
Ni 3.495810245256251 4.261602840244369 0.4498132938624143 0.4331738041864927 0.13559226741673422 -0.33998751253979514
Ni 6.0611642218544866 5.735562543101446 4.887065544419705 -0.8846214669815088 0.1354076622097539 -0.9998161445784975
Ni 5.070770919873856 2.670987105652754 9.341030727272353 0.9174734805145232 0.8208264840127347 -0.2774827091373544
P 0.31529490215173855 5.572784365942606 12.544439442678176 -0.7453859463852324 0.2809423855511807 0.26019049771581
P 4.103320847073432 6.091613177530633 12.676621812990298 -0.834825369394988 0.43263027297819684 0.18021890498717347
P 2.1952165076585612 8.524266272276208 1.399018468452245 1.402963577606229 0.5256522711328883 0.10045222918049153
P 6.498146168065939 7.768617285922089 5.8097985292920455 -0.7547676447104484 0.5352162606722395 0.3469683147330025
P 4.6077908775387995 1.2511901030531847 12.67940835927635 0.9137512944679295 -1.7548432135979197 0.9132872103473174
P 3.9420927656039706 6.217424745208282 8.244110498371867 0.2067724871059858 -0.39232283160840176 0.11517205188916939
P 4.861752753758773 1.0938780527989935 3.740670974855548 -0.33497154738244245 0.8712262766215254 0.06881300500865567
P 0.2927994783929048 5.543078731006395 3.7959559081326177 0.8886871524104502 -0.25436283529043935 -1.270310852433793
Ni 1.3770560600532675 1.1371810183437827 2.6147349489250606 -0.12500523592950732 -0.0830376332484699 -0.4794199796382259
Ni 1.990350059822632 6.41237420658702 4.885354093740437 0.45492790803413263 0.8493922114655693 -0.8205794009989351
Ni 5.916969063194038 5.512194660750776 9.180335661162747 -0.32165451855856214 0.5548463761983412 1.0438840814319894
Ni 8.609186134370322 2.2513372235237044 10.201008405431272 -0.13511558489063183 1.0074548920706776 -0.07134554162252228
Ni 2.233932640344723 5.094221782730118 7.278496971692309 0.6789913210100823 0.6241324641886735 -0.6013542899518934
Ni 0.6046606013216235 8.859168525165517 8.919472686414567 -0.2538617272843047 0.040850201247142545 0.11782851567540997
Ni 1.2833704521601559 1.1140564914221254 11.407464197270937 0.5775391898101666 -0.2390354609047496 -0.09393062601188984
Ni 4.190144335452748 7.1351448475295935 1.4511596988926108 -0.42329228340672265 -1.3286540682593762 0.1636661428348149
Ni 5.736024852342137 7.930207962874446 7.9426758085538065 -0.6739401317394199 -0.3047289464478171 0.3687131626092618
Ni 5.330180793224333 3.1758287964880885 4.567003418156598 0.8898863149248739 -0.42471487478586206 0.7236974056682053
Ni 0.6675718240926913 7.020356182531966 6.791637297342467 0.35707017905369476 0.37903691313277305 0.5805072712995551
Ni 5.07899277244851 4.444912986622164 7.226502592422516 -0.4808970784043846 0.07705647596437051 -0.43143548133914733
Ni 7.8349994539531735 7.189316612674173 9.085898574131335 0.6355427629081442 0.18302474986708478 -0.33406960439346334
Ni 4.569129134175072 0.6299688595390187 10.557715337684499 -0.15353085417302592 -1.7960772805470422 -0.03956182145302219
Ni 8.142634526528745 7.147527483270473 4.569324935735835 0.7144810292762598 1.141403967457034 0.43115445976361877
Ni 7.476619143546383 6.0136188891598215 6.795883290447173 -0.18659935459222057 -0.11804525967190638 1.6103608427804073
Ni 2.648261433762281 5.114445545788612 2.6055540312981478 -0.17265780481046394 1.1375349714199312 0.8175077040521469
Ni 2.2841158551774527 5.289533839591752 11.616173250736852 0.7517926212425247 -0.18023356027519283 -0.4413841079114269
Ni 1.235589432401608 3.1818116219558634 3.7827021367440814 -0.36089340945452686 1.0475412185686024 0.46124459428077985
Ni 3.7632516085528627 2.8987967826688923 2.8084252974894452 0.15909574985531308 -0.7715533488092197 -0.5821509775505651
Ni 1.0946938926355083 3.151335471618501 8.276349769244808 -1.5182685555288369 1.1524291149229442 0.17164710415776244
Ni 3.706568869689231 2.3844097657463346 6.916523340050024 0.5708970019033006 0.5301254764128935 0.5507117852046773
Ni 4.099051285262338 7.0700952178981495 6.06609733339928 -0.21030723973212168 -1.8366477457702368 -0.02117869096014417
Ni 0.42836758402656294 7.346175418574745 10.958217458850548 0.8437571246669792 0.18398017180181864 1.0086396564073985
P 0.020464889054619198 5.496249524390448 8.351934610631778 0.09156932486856488 0.0634262867754456 -1.9324434500153234
P 8.492285350684828 1.5090680104884289 8.081770155258623 -0.05016556511079747 0.5564618003145771 -0.39627564560856265
P 1.7259454336952698 3.3579877022076903 10.400948087143359 0.12391997328512853 -1.032980547145608 0.7721657855822378
P 4.199562753120958 6.420197204130489 3.80443429701142 -1.0165203447070557 -0.8878091206808709 -0.491560985876134
P 6.9137349807865585 3.888510218119096 10.537363759718284 -0.40295845694537696 1.0070214040776848 -0.9313813488448669
P 6.228520166984882 7.866146405933892 10.337118591311857 -0.6996097685913822 -1.0839153863222624 0.18001990160248996
P 2.319477979646832 8.495983824610361 6.060578630149611 -0.5976719560042998 -0.3408516603123033 -2.6287377810802277
P 7.147826624543862 4.032560338586386 1.5769476978638715 0.24687218334034905 -0.03794511178520562 0.4658306709895655
Ni 5.52417844146047 2.968415115384819 0.34214419117143935 -0.04261629200862983 0.3302828836575215 1.0188199393745099
Ni 1.5219038905829276 1.226723972844814 6.948908555604832 -0.6527293019897598 -0.3481865034108197 0.05361264311913348
Ni 6.870694896966869 0.649389473602899 9.381536268666604 -0.5659301448163286 0.615721871527475 -1.1467346356413284
Ni 2.652141205429263 1.6078390200291492 9.172110182633263 0.033848830228644926 -0.747118869915939 0.7888103361174543
Ni 6.403934796722629 2.002206932113313 2.4042346737736433 0.1579732062150957 0.3554737811008523 1.2968248395639215
Ni 3.9853776013746147 6.973780792754045 10.592316918128505 0.2642039897505772 -0.45669194191309087 -1.6766032588484092
Ni 8.289893617019661 7.25327845585693 0.26035352809471274 -0.010986580918490757 -0.865294998738755 -0.26921944068729764
Ni 7.448273241671031 3.709496828213612 8.265179108905507 0.7077323976985167 -0.14750624524550082 0.08971530237896162
Ni 2.90437168821841 8.390667966603377 12.296140401412323 0.2195588402373767 0.649310763226514 0.6214281778836329
Ni 0.16859964763672636 4.96502901217447 10.40987700090966 -0.7479130836824603 -2.0446996138092786 -0.01640466661026852
Ni 8.525462837369762 2.343799071662044 5.913602364135356 0.07434344790858165 0.28942522621121125 0.6270262407967008
Ni 3.635491090154651 2.6415352875545706 11.494047466142833 -2.0531117491323734 0.7655415953975009 -0.7549494217039515
Ni 1.1992029756930493 3.323033497656569 12.706061846735286 -0.3919086268891186 0.1339048524119823 -0.19858480908887088
Ni 2.986499565094229 8.397847357164709 8.020063655979476 0.5813066272723989 -1.1919706246609922 1.5740666363350633
Ni 5.746839262619494 8.144610671910526 3.682015716564966 -0.5114780365150352 -1.2687599630069053 -0.3352242868231969
Ni 3.2194309033062667 8.710314014549862 3.404422586235989 0.0051326932408750315 -1.5401131622077542 -0.011274544472554774
Ni 3.348179494395368 4.341455430465019 9.41999767802603 0.9862319781361597 -0.008188192237747189 -0.14854882757740223
Ni 7.339304234173877 5.993340736778893 11.382588334166895 -0.8414598439923702 0.5700382534474311 0.034117510508999305
Ni 0.37104758360174295 0.13625250460762325 0.4506409180521232 0.7901028296766328 0.3277012389732743 -0.39365209194278655
Ni 4.818685475277865 0.2990615023825092 1.4275701432641401 -0.3395622520769185 1.0476854574559502 0.1804911848119537
Ni 6.22554688402514 5.729960442890711 0.2860171298853455 -0.7287141421565063 0.023843382276500874 0.19621116665037175
Ni 7.850210334460638 8.9122887634097 11.411869732388116 0.19902189662628952 -0.23838162937083462 0.3555588846154909
Ni 9.404910986471458 4.651501763001846 5.776894802196698 -1.0968161535443304 0.7181049991820924 0.4938214997755367
Ni 7.839123977571109 8.909714335481143 2.6728861994944184 0.44220197582703197 -0.4393719625774046 -0.4357163681026883
P 8.418406521044881 1.6093891157185274 3.714255893926615 0.2831018550963447 1.592941104642063 -0.8660982113663406
P 2.0024788787254844 3.228042546025033 1.5817502750348218 -1.3815210914617368 -0.6640506405398499 0.44372586867072616
P 4.5597107165068635 0.8187986156551894 8.305087274241687 1.4553981412568613 1.124381978977741 -1.004013984709929
P 8.469713781874587 1.7088218620155322 12.418757502885661 0.2535765919437181 0.26730011217739774 0.20575227337158755
P 6.427322205369385 7.6796272895324735 1.2683272720635308 -0.37236541464986833 0.1704353432378484 1.0966886268275307
P 1.906472659741842 3.3025831124212655 6.1426901902287 -0.06904440429317141 -1.7333379925362922 -1.0292542473339565
P 6.893556542163427 4.052412441274911 6.015840692981263 0.07870146776696123 -1.0090476904790946 -0.013374364424376966
P 2.3061072712150623 8.53130968953145 10.236909890681458 -0.2610286773463892 -0.1570995453608907 0.0460487147289465
