# total energy = -340856.2828727777 ev
CRYSTAL
PRIMVEC
9.42899498509092 0.00000000000000 0.00000000000000

0.00000000000000 9.42899498509092 0.00000000000000

0.00000000000000 0.00000000000000 13.80028725809516

PRIMCOORD
 96 1
Ni 0.005587622353487739 4.426743364428165 9.081900357719475 2.2663662444182777 1.6519386662221938 2.0436372339830355
Ni 6.1480252339419925 2.858371504543955 3.7256221646970795 0.970384983801574 1.2906881305385642 -0.24737431978774815
Ni 3.86402095123858 7.536067567146396 8.566348377111384 3.4468157558135477 -0.615949671267565 1.7973654032308464
Ni 5.986836566826108 1.23409513414029 5.492362161325992 -0.36534090370291916 0.7499771653003406 -0.07452779600524584
Ni 5.988430066957291 8.358191057903989 6.987002110110695 -1.5443354278192176 -1.004896130204566 0.47638376391506343
Ni 2.0575952581473076 1.6170254733570366 3.0761529988040057 2.0624821346036804 -0.6112895467877344 -0.023817928355204143
Ni 6.904607781434156 3.7742474911853288 10.436356611235855 2.004663166712683 -0.0779897864119173 1.4667477619417257
Ni 8.131348299584367 8.46560616733857 8.45093653713682 0.260716545422609 -2.8802801162027363 0.27850240865112036
Ni 8.404204552816275 2.2369441693617698 12.211501613882145 0.7446467542263626 0.20940966761851673 -1.3637362566744902
Ni 2.1598904233734104 6.405474509574171 4.824207556320689 -0.6375158274741148 1.0969578213285174 -0.6216210106207294
Ni 9.289417448175938 5.2523367252938975 5.433007581587602 1.1409185431801834 0.5777034833021728 0.7993171491860492
Ni 2.5714094750028718 4.151077270728254 12.751727388237464 -0.7543992056274362 0.18766327708036068 0.3302512590886377
Ni 3.5062660282955633 1.0872762551896358 5.676251133565098 -0.5583348489675739 -0.4520852963790149 -0.05708183261465653
Ni 9.42178167800763 8.17994533908804 3.5554504941789546 0.11701913240023717 -0.19601319170695275 -0.19751780127693724
Ni 6.637635220994311 6.246991963982841 7.781637252155627 -0.6082085938695654 -0.33729788152277396 0.11090967706838964
Ni 3.6494547442254732 6.384296987120689 12.04933421709989 0.09153615763778429 -1.2485670329987981 2.9897690016642
Ni 2.964805998513192 0.4119235555089158 8.12883830115288 -2.073024171785584 -0.513910814326244 0.29153790167883986
Ni 4.716816962272743 2.1338286815829277 13.719486419090897 -1.1381710623420334 0.287155456340428 -0.9405815272868963
Ni 6.243474948900406 5.652974716855987 11.91799680480835 -0.6282670551823374 -2.6314988887651327 1.0806940511714873
Ni 3.671575166164863 0.3653829797840084 1.1120669684731153 -0.5323124567618832 -0.22455423656943907 -0.06189339507068695
Ni 8.921432065810823 7.9317553364074715 1.1653983062955284 -1.312318050103514 -1.5444290159742886 -0.03775227904810917
Ni 8.11053850793039 7.348392853471371 5.2663689554431725 -0.47430631256074446 0.36232191437093725 1.8406344983321268
Ni 3.493640604179262 0.96493504689314 11.630247454196535 0.07928999328057958 -0.5774587142812184 0.3319024215388155
Ni 0.5668928576157541 0.9799554357036462 8.249355941843632 1.632202621245847 -0.4656581499674432 -1.2375380288781461
P 0.08589154286977027 2.1435122593031974 9.963890422636304 -0.4937024576991691 1.2849527707166837 0.7101824019009059
P 4.013338513826889 4.290588678663125 2.9294142663096543 0.11746393324713963 -0.02263702067322553 1.0008152752669732
P 2.149424239079837 5.576269843677413 10.883651155159619 -1.434612829080394 -0.9155947754345715 -0.535059423379401
P 3.698183789657172 2.1417678952542683 9.371485533630352 -0.26745874924244906 -0.15848279886166253 0.4736830771544487
P 5.978124175576323 8.959591208005499 9.257177828953788 -1.1095508275021795 -1.1320616070101857 -1.6730440807422413
P 7.220413106249149 4.8698778358201045 0.08568599078184244 -0.24917871998633861 0.2123479243112343 0.05045969931244858
P 8.144416886459044 0.2966663510500429 4.516144379184483 -0.134036235783524 -0.412583895850283 1.097865677854767
P 1.7783650043906658 7.888834551808963 8.23937817948376 -0.1777100225223907 0.693540936689483 -0.3433628567699313
Ni 8.036379463363765 3.4041217269872055 7.9271605872126445 -1.053693097102611 -0.1642505545833752 -0.6718161434178817
Ni 5.6048679850849865 3.7145430957376666 8.703924012401686 -2.5422121892831573 -0.683433673052152 -1.4156447726183232
Ni 0.7437940017648005 3.262696233095942 7.090021422141975 1.4898316403443825 -0.21154188347017117 -0.9391797618433632
Ni 1.8452260069363655 2.600205625302486 11.123044848536153 -0.3933227336278258 -0.028657001615060324 -0.10503650611706426
Ni 2.8956160342373005 7.802568677843287 10.495766822043914 -2.0539460721082112 1.0638870069164774 0.5426477772496202
Ni 6.998199984405332 1.826641458069129 0.3791087676003636 -0.6683598094381651 -0.6529830698717786 -0.7765777986070045
Ni 5.024654786431817 1.0492679769127053 7.854282000147883 2.190847288144356 0.8831759927842338 -0.4435314932717329
Ni 7.4209018239376565 8.913738006005818 10.69585763614937 -0.799234873884888 -0.21714097482450345 1.7989684860519084
Ni 4.604875935305807 0.8557303142343071 3.621485516775 -0.8091696165000967 -0.31314673819786715 -1.486465294975311
Ni 2.9080905944358566 4.239822970341866 9.253064901396261 -0.2487033230118168 -0.31695017110435736 0.9935274833563084
Ni 3.2739167369782414 7.438373751411523 6.559869585894091 0.053974911554558656 1.276599513655982 -3.2765017686449114
Ni 4.828691986275666 4.023380393351803 5.165834183557259 -1.445542331508704 0.7543740088164556 0.8144812585209974
Ni 5.814606546730247 5.306610019702732 1.837025610107428 1.497236417448886 0.30312277830296186 0.7700631374169382
Ni 8.770492716106755 4.738673372356079 11.799259358346992 0.43899760995712134 0.3573298604729846 0.30127235535778435
Ni 9.291171241219725 3.902623256191632 0.15924157967748512 -0.2321443902118712 0.5675519966904676 -0.21665272233417526
Ni 4.872253942524592 8.06090427899222 2.447922643830998 -1.2732678781795879 0.10338611499783484 -2.0727657759178753
Ni 0.37648656413005493 7.039121822093717 9.671006984323723 1.6923846900523822 -0.8580869110260899 -0.8309157499279368
Ni 8.234605222286095 2.3668097155558074 5.609237381302682 -0.2988496048489047 -0.15326834454025862 1.5769403583384325
Ni 1.0925093473364222 1.0878514238760395 5.60178470376607 0.5956968345557999 1.8171299874522833 -1.002840276116802
Ni 0.19042043697798783 9.268343644665904 10.645251277841227 1.3583490242206477 2.5682068135747063 -1.6399017896623178
Ni 6.851833697207915 0.8483690979478276 2.813243392248937 0.5120956154943761 1.3110648944227032 -1.7799474648647153
Ni 3.612502513372759 5.901268438480003 1.619711793992387 -0.8711236896053901 1.5896014987458686 0.31819047126936173
Ni 9.073370888969956 0.7727740174641669 1.2409518992018091 -0.5885535386427992 -0.8685302178466009 0.2919197104982908
Ni 5.862562414583501 9.350083601099225 12.825848716824652 -2.111818518944963 0.4203740813186631 -1.1441403925515907
P 1.9842376781437052 8.771407328608083 4.064930202097803 0.54541454136148 0.26458939811445403 0.5132387279598838
P 4.6898217499912125 5.719251121720424 6.755986078666447 -0.7272781810409281 -0.11901302290181441 -0.6062082756100851
P 6.630799199721483 8.801259526331915 0.9215512986470509 0.4468829262424691 -0.48367361270825737 1.0323434277822414
P 4.841477703304571 2.3690632453271263 2.0738103006064583 -0.3423842949067458 -0.6778916601880002 -1.1831676816573817
P 0.14312837036281215 6.081098228432278 2.7020689425640434 0.15722347253326469 0.9109027692755408 -0.16593539848496583
P 2.9580548381940943 7.391304209075021 0.21488019254191382 0.3534667779731525 1.2126908879274791 -0.1635825819820731
P 5.688559743454135 5.60698007993342 9.639224671352238 -0.198495077588542 1.0920837810656676 1.6159457930673526
P 8.73252215380926 6.087557089910745 7.40003168671658 0.8138986465446499 0.0073111889494325705 0.5691509657464714
Ni 8.067787445239343 0.03514374963874367 13.061474583855503 2.159535108294636 -1.3763629442995653 -0.6179975549355292
Ni 3.355288962612057 2.871779535233559 7.223139028662907 -0.24333691649358088 0.5707517345746881 -0.008056294645573222
Ni 7.1569842578321525 4.7942384390606065 5.856924818557261 -1.6482815290855806 -1.35115173514126 1.5112399308168294
Ni 4.393223287704154 3.2883525281074846 11.121499436278752 -0.17759946508645544 0.5230811679716024 0.7719847799196834
Ni 1.3012201485420436 4.468975832401962 3.9300870895176594 0.16295369014882258 -1.1244125751053602 -0.5768017974235098
Ni 0.5542429181128193 8.696833408267661 6.554859960925466 -0.33388988428248945 -2.8616385898421486 0.8463089445545554
Ni 9.36836642213097 1.8852709481028562 3.575612513886115 -0.5935458496510682 -0.507602355609713 0.33919432721453846
Ni 6.784510673914119 8.218538215046232 3.4309029010854357 0.9550398688040713 -2.200847851000493 1.2278956206923757
Ni 7.729833411500384 6.968951242352483 13.130641918543732 -0.5231685854790862 -0.43220218430184276 1.2423292796192025
Ni 1.2798823331759572 6.3435825873192035 13.148320341005011 -0.6880045802522862 -1.7208460307168687 -0.017361116986266877
Ni 2.421318734836119 5.308637253597433 7.330160949011865 0.13300162387142256 0.2691078548100978 -1.1576885635496705
Ni 4.678968976908417 4.5168468393014845 0.05212065488250789 0.6261772625328442 -0.2568822592781834 -1.7224012910191304
Ni 1.600958466117173 4.585414489916676 1.7419822848274398 0.07255293166706214 0.02177184445945283 -1.6888987883863107
Ni 1.2254204588699409 8.535908753007831 12.509353189585974 1.7165206638686372 1.8929693031801011 1.9006754135751072
Ni 6.9245501055610985 5.797266625184409 3.8861743746599764 0.6232541753487782 -0.2512659415326705 -1.2589095525753866
Ni 5.365182935767305 7.045533538597888 13.730029921142314 -0.7160108356572249 0.4371309890620278 0.8082167656685241
Ni 5.260473947857279 7.432603206557769 11.05890128230884 0.8125133361613491 2.532339410254136 -2.121388164911269
Ni 7.968283262491528 2.8946071317873794 2.020403530825173 -0.10213475908923701 2.0521817811189367 0.2826336572106745
Ni 4.577343270317308 6.578788864078825 4.134096593886546 0.026519129336451102 -0.7908080832737735 1.0375126306880067
Ni 5.801490814881274 1.443805408800973 10.212998809416145 -0.3977910538118246 0.46822385381209036 0.8993986252906833
Ni 1.6380615608876323 8.336787239573889 1.810252922104571 1.7082818208986128 0.08761856775093298 0.2127942678200335
Ni 7.657880751730784 0.26298220981548404 6.691993376356878 2.5053909066897497 0.9955236878507305 -1.2078770114786035
Ni 7.925070179052388 1.232492205014247 8.849958398980066 -2.7240568027992116 1.1370816859325965 1.332914386197627
Ni 7.783569253202252 6.222618012272133 10.247831402224541 -0.8011372331139235 0.23356723870132678 -0.9545205059654917
P 6.360969653839338 2.803334461551535 6.9559514871402754 -1.0719664414905024 -0.8016648234826194 -2.1200429637372844
P 8.993582734472463 7.537849647174761 11.641825316983994 0.1606345550973427 -0.7942045105498321 -0.17818156284217057
P 0.7042205103412634 2.4425339732690374 1.4856833465680679 1.9430945019712664 1.9698787120436458 0.5206679305444194
P 1.813290001348679 1.5304012975867163 13.214851328730642 1.0548238682729447 -0.39355490424329 -0.8532349822504274
P 2.3441989858837458 3.0847239551309054 5.099909480201066 0.5032001127769592 -1.3461175151514624 1.78154900502388
P 6.235432016285616 2.6071547945136246 12.169645362803227 -0.03659631106679504 -0.5420535953090471 0.004223551163044339
P 4.919361200840529 8.772529378996314 5.16856670626742 -0.7661658592450611 -1.6397194984481827 -0.5823710639811712
P 8.295243088224804 3.7371726833994465 4.05756049971595 -0.26973006177512904 1.86387469980699 -0.6274376173025065
