# total energy = -381176.4913581605 ev
CRYSTAL
PRIMVEC
9.14947297040281 0.00000000000000 0.00000000000000

0.00000000000000 9.14947297040281 0.00000000000000

0.00000000000000 0.00000000000000 13.39117853508465

PRIMCOORD
 96 1
Ni 0.8729100342878785 9.131173928330156 12.434673454771998 -0.08323740796410181 -0.20428854434186755 -1.2417014162272162
Ni 2.0912035200993393 2.1098135479252145 12.37901995612084 1.397891048179328 -0.40074885088856793 0.06293289207879484
Ni 5.744661234501802 6.101271089241878 13.496701263472499 0.44490729057333694 -0.21724793271601292 -0.8275884853269165
Ni 5.146221662226962 1.3869868919272796 3.133173854365287 1.039216757863307 -0.45165977880582214 -0.3647050698911332
Ni 4.298742587792584 2.631104764925827 6.991051836562271 -0.4117832543258586 0.2957164585365617 -0.11713868869723698
Ni 2.9030728461078046 4.853713014442679 5.136386893834615 0.9714823306308108 0.18417223320796666 -1.9553208688341293
Ni 8.884138160730041 0.48211134425923374 7.736914120415272 0.030938598560385427 1.059713335154762 -0.41463357929046013
Ni 6.149324120776538 3.752418413008494 8.591445608540988 -1.2624543325038515 0.14053752723715152 -0.023837982959862173
Ni 0.034897004489022096 2.1772177145885494 11.215955433419179 -0.8517010621044041 -0.6024974024174011 0.2974154435055394
Ni 1.3302327116893717 3.284633313375492 2.760725347132894 0.37584000346203017 -1.1249987866261335 1.0576363980210755
Ni 9.128932307476006 4.791496598898946 1.9856304974472119 -1.8272614194593306 -0.16275211566097778 -0.9323087457551428
Ni 2.2233768052382747 3.7599484291838605 7.2303526397946385 0.00412482080165096 -0.14922811303261396 0.7535594833349603
Ni 0.5008814878604054 0.7324775199855127 2.269670393139249 0.35273735600629574 -0.004974570396455949 0.9819629184471604
Ni 1.4984457704793017 8.36201434169789 6.356123251518318 -0.18782962745489587 0.49138152287547626 -2.5820899993147015
Ni 8.863789733058091 7.294188512037083 2.3437646543681097 0.9597344460662632 1.0712897271384518 -0.2048531585960859
Ni 4.243360828485788 8.536458191515067 9.202886581769894 -0.7025457112912546 -0.375675709970024 0.5448617541818035
Ni 6.868582482353583 3.91128985999399 6.36705046697183 1.1698794491889077 0.24737714800122557 0.06934856579715154
Ni 1.3871149845475166 5.960488150128435 6.4634264394909335 0.16750968495062118 0.16905774616403144 -1.3250910334984662
Ni 1.6380301286462404 8.220837975250861 1.026719077932147 0.13050842513592362 -0.8415228360198217 -0.24660761682505267
Ni 7.223142855169866 7.417120829573199 11.394299703522577 1.735180702171986 -0.18156076372704863 0.20599369995843236
Ni 6.622187177854654 7.733070426860872 1.5669689176751365 -1.1072797720798155 -0.11841601274776382 1.0395268329045582
Ni 7.545387289794903 3.945298450666939 -0.19226153329215723 -0.3332766761785228 0.32563150092843923 -0.396940018665439
Ni 3.71061447144683 7.149425552223415 5.381874570624436 -0.3811369901949113 0.3114557236486894 -0.5392755183432777
Ni 7.150230705836336 7.089972277487655 3.942965335084049 -0.6391464210990024 -1.0661146106954154 -0.28036491578115585
P 2.8916268555423326 5.560720231841332 2.8192581848975227 -0.4643407167076003 -0.29125302344856935 -0.30723680047133534
Ni 6.896570719875387 6.024991933890687 7.350069832562803 0.7536065345228118 -0.36710853712630326 1.0913620724082946
P 6.019227765980019 5.36979818137794 5.049799942343488 -0.010469274962440035 0.8202700972886325 1.5852712468016312
Ni 2.9633770218208544 0.8226162968463575 4.675864645769057 0.061905993476177264 -0.5911737498744657 -0.1356999966391921
P 8.24039954825564 2.497385218871172 2.462717866151289 -0.18603011235231187 -0.5455549235940862 -0.021093844555821736
P 7.026996455695374 5.511148387809576 2.0620139567891673 0.5913293016157235 0.6473749796563819 -0.6609714873938939
P 7.640971832910399 0.5774424469761179 11.630506155028932 1.8645516712693566 0.3409195374357612 -0.5645800585463373
Ni 3.5256944751888337 5.163139037571133 11.953005859947156 -0.4544116305193464 0.5485762269189133 -0.26174498668712337
Ni 4.9564432958728295 7.352406607934843 11.290330583465275 -2.0744729884169693 -0.6371468741704704 0.49789361296238127
Ni 4.689754460539195 1.951225734598815 0.5421931877814438 -1.2909028176525315 1.3814930664372789 -0.6579170168382863
Ni 5.702125335110212 9.436766322324374 10.61566949751835 1.4792412664230459 -0.7069109302384857 0.3206499885534478
Ni 6.16339601005687 3.349594570781448 2.0001067934285786 -0.05145368779460171 1.3510604609790344 0.6481733071879611
Ni 7.793566741504278 8.800246643947618 5.605359595046672 1.1199277998611292 1.0515421121978794 -0.15646191177689184
Ni 1.7579522696067849 1.4567516225921266 6.972264308962639 0.7490988764604454 0.6351054182604094 -0.0919318504143062
Ni 0.008005788764818524 2.1116800403915263 0.3926953757554412 0.8382811891540725 -0.037721168699857616 -0.2310681264285569
Ni 8.24264116910979 8.922593395219794 0.4806794517544405 1.5322941803839676 -0.4420435958722968 0.04312896997899024
Ni 6.945868079720922 1.7064224383799758 0.653372092463519 0.4024370372242682 -0.3155180666435211 0.2523398913231396
Ni 6.20261065079517 5.28248476174061 10.751268345301343 -0.26812877872628016 -0.8465143756971422 0.825237725706553
Ni 2.0900598359900795 8.084529128372841 3.478706442296717 0.9690508383711828 -0.9987270252793767 -0.3524846165655413
Ni 0.9355884982117519 3.9636797416709624 12.741009700910878 -0.9166026478737956 2.33706823891953 -0.1900628876607888
Ni 6.452976826521449 1.7817408990793884 7.102480521853808 1.378164259174362 -1.0975406904151808 -0.04027453124933064
Ni 7.817163232046526 4.201328150102272 3.894128193724081 -1.1273423471576456 1.496160667886204 -0.7672110126801239
Ni 5.354079386980273 6.660486871305546 8.91449428183166 0.6911539245145452 -0.33452623231490775 0.19703314833103486
Ni 0.5502694274873927 3.8823866751847764 5.310245177387851 1.251203956401013 -1.3312341702817265 -0.23829498319429931
Ni 4.503233306528235 5.3354693591543985 7.00236790461293 0.19932271569615995 -0.029819654464593805 -0.08194979950092983
Ni 4.741220245455885 8.1157105319277 3.5230182543731656 0.6541225827928605 0.5254902916337272 -0.45798032170721126
Ni 5.092303818580018 0.7184577827005625 5.425034464066038 1.8860550925587711 -1.0014613934914043 -0.20535092416811085
Ni 1.8769503138070474 8.700480791728667 8.652777270057799 -0.4839543771734697 -0.5423022209847433 -0.4700223404734098
Ni 7.979785962910393 3.894848257239271 9.791589285012142 1.157506786556168 -0.07198806030252765 1.2694374486899043
Ni 0.9037831006068809 6.664247304656791 11.221633596284832 -2.102052440697135 -0.42546049470263503 1.3234642965283205
Ni 0.4733598734551778 2.493313703442207 8.85284147381697 1.1039424801764663 -0.2184859188881721 -0.7685513287581023
Ni 8.273099764307597 6.280372020751962 0.3419286105663303 -0.318527028673174 0.2939753074757389 -1.9320014773818985
P 0.22923272328173286 8.063201707103365 4.3401073546562925 -1.3441081980309175 0.104014235500137 0.6753167003719724
Ni 5.360639559030987 3.006434441166267 4.837014311500198 -1.0017845811587778 1.1939660578244664 -0.6117564591218237
P 5.312476733821839 4.174382952488112 12.79983715170205 0.7085242974721926 -1.9968940642902253 -1.4710283915949505
Ni 3.796024800726351 4.285695439474149 0.8644797099817028 -0.9545037937949431 1.1049680932275034 -0.728601527838042
P 2.226441878651091 2.242846883514313 1.0669877379455401 0.5367182991390628 0.28747992955938234 0.7833102322348316
P 2.8728612866775975 2.3489716193807473 9.208778842300802 -0.5913110467832784 0.526465511062803 0.16534121654439266
P 2.7576328253014553 2.780918233765985 5.326582476151806 -0.08009577701132657 -0.45810656287243046 -0.25129962298408337
Ni 8.264837790302304 6.219235243007371 9.419796794984821 -0.4118686149508133 0.2101041225823801 1.0751836628762192
Ni 3.9917686233943828 6.933616935542531 1.394878312281172 -1.1507645827363278 0.556045538712765 0.11792107538921627
Ni 4.896999170609942 1.5665452970810667 8.963545520856881 0.05999900626145151 0.9091760163924213 -0.38297764294807585
Ni 7.599350880806218 2.0972238732504827 4.586987581217548 -0.8697304088022891 -0.6040462349617597 1.607828820387173
Ni 6.33860841559547 2.562154337346772 11.135755728941447 1.488936639333939 1.235338450123666 0.7803046126392885
Ni 4.047745098437994 4.83691458224587 9.461282334890466 -0.38173502879022647 -1.1291639737474166 0.15541624412119684
Ni 5.136504922034691 5.339156596722651 3.154613814151115 -0.775153150345336 0.4223016373586791 -0.32913694297853635
Ni -0.11341595079978736 7.404823938030438 7.638609439014312 -0.9001933532778368 -1.2671653648262755 0.21998384358993725
Ni 4.290965535849618 1.8765385875277139 11.342501792740558 -2.3818026057124273 0.5946503955691566 0.4213410732176227
Ni 0.9246731770729766 5.91195019653145 3.8456789900139743 1.109707664795018 -0.4522069095585438 0.37034349912383313
Ni 1.9213893035564458 5.514515393827236 8.604608955164926 -0.39410306343727614 0.6458045498454684 0.822422624855261
Ni 2.29782606601465 0.5789768135771008 10.623810698481705 0.5127345346299557 0.12721535620694865 -0.4235519648260125
Ni 3.5532709864313055 0.020704342166751814 13.042338440545771 -0.799308664545617 -0.28404802105969795 -1.465140822465922
Ni 3.749444834324419 9.09708299240134 7.121830742035196 0.4217658194598672 0.5510146611570768 -0.8901544809845959
Ni 6.160651168194647 8.924844165546817 12.89139318191109 -1.9973707468163278 -0.7046992672991477 0.1452902114307885
Ni 9.035516189431668 8.598967390190769 10.043490742286691 -0.29013125113930033 0.4454873314465231 0.09641739698948557
Ni 7.567830946755017 1.4116904686872913 9.443646725925678 -0.6730978383437827 -0.07472294273518744 -0.2569020567725253
Ni 1.5237989598133725 5.804352395532288 0.7603083865738841 1.9639615752282624 0.9452542501722171 -0.44238709525464454
Ni 1.610069339543057 3.9531669973386463 10.391661123247715 0.7940831544806195 0.08902856072458215 0.013338626090435093
Ni 6.002566575876322 7.52933911437377 5.971420855265672 -2.1664680879690428 -0.8138312836418242 -1.1795185149405687
Ni 6.8199438845549825 8.56397065644742 7.737168475761171 -0.9096359867479754 0.2443090505988631 2.0827552830304192
Ni 0.5733544624959797 1.1994135485358002 4.791390465013607 0.44638747466328926 -0.413119713749095 0.11424645475110647
Ni 7.367558135014317 0.30201860988960066 3.267393876586154 0.0489175516363093 -0.7712918676177168 -1.1239546616323353
Ni 3.728794474047624 3.225710708066428 2.758943944764311 -0.5175460970859861 -0.7155673203619032 2.1244462350113023
Ni 8.476410201042489 5.765403089507338 5.568721445869713 -1.7934095039068918 1.6804881957251123 0.4973822205436014
P 2.954200100528154 7.056805438319121 7.361599083331431 1.1601275120084666 0.07946302852333412 1.6853408958317233
Ni 3.1310411122383397 0.594124680867425 2.235992098437054 -1.0978661920753996 0.8836012532471105 -0.328118529016351
P 8.722741459231301 2.50628765597765 6.6377522611080355 -0.38159104701319446 -0.7815917068818281 0.653807622655603
Ni -0.06947194753287662 4.6676127361839255 7.793090053967538 -1.244259920983012 -0.6017255572483831 -0.7808892814981648
P 2.67474775053518 7.350595012305776 12.28817392500683 -0.05050057985271302 -0.35607824745407063 0.7721642429203411
P 4.890466446977851 -0.06451018839326396 1.2516844870654096 1.5959397822590708 -0.9902902073659332 2.1480492191422234
P 8.412089406737719 5.27822110738129 11.57747764014535 -0.27557495059168025 -0.31940197507895957 0.010547436498543125
Ni 2.7073839202770174 6.912865931064121 10.104166386598429 2.6593069121163357 0.9065825446336322 0.10503547767579974
