# total energy = -340859.53245950426 ev
CRYSTAL
PRIMVEC
9.42123112073577 0.00000000000000 0.00000000000000

0.00000000000000 9.42123112073577 0.00000000000000

0.00000000000000 0.00000000000000 13.78892405783466

PRIMCOORD
 96 1
Ni 4.498732158182885 3.516220209573603 1.644053852296572 -1.1040908328288728 0.6405543571901227 -0.8162656041149297
Ni 7.269638759593626 2.315616177594808 12.14540859441256 -0.26194193318927794 -0.9126580614037508 0.010321179420349966
Ni 9.369113048698075 0.8943669085641337 11.204149391297685 -0.29625896130359297 1.6088071251400422 -0.2538660981596789
Ni 6.52076392599927 8.786127255838538 8.482739112769075 -0.7521245506606467 -1.6500609895835066 -1.3332936239139166
Ni 6.332245087681246 2.287842387721668 0.7460277374954207 0.2168985197963942 0.46447030030692915 0.39132858601593246
Ni 2.2675961616574285 5.030315713068251 7.688276825159062 -2.422453803574886 -1.9687803367731447 -1.1742302699584357
Ni 1.262426151771042 7.103288078525094 8.753070981575348 0.8357951895074252 0.48528183773564165 -0.959237966045819
Ni 3.352950271140252 -0.031205002312691573 5.996210493910151 2.0579230544780884 1.283455617345867 -0.8503064957497227
Ni 4.585369801219994 2.076608960738739 4.657181252559898 -0.7284153799691648 -0.5667089319638821 -0.9063807130354713
Ni 0.6112843453161 3.318082294098023 0.9137105806698093 0.33131286758393264 0.38081225986564093 -0.45008292123700555
Ni 4.151889527864142 8.348746592724384 2.072557831279631 0.8257167222255005 -0.06068497658488258 0.4081718828255164
Ni 0.5424839194997565 8.27883163524522 12.969006981941726 1.2753345309006294 -0.050720666283319095 -0.14890184004144677
Ni 2.3523684008970873 5.668425130265557 5.234592502859075 -1.4521374682277184 1.661964940109944 0.04431733386013658
Ni 5.700155837284802 9.346087559400262 0.2659717229605178 -0.5145695309561655 -0.03577330094486742 -0.14226787966469692
Ni 2.6723039946223133 3.690842731723756 12.647766547681417 -0.20143050606778212 0.7691696790683914 0.4459588717663029
Ni 7.397305864943329 4.265274046562665 7.91597291171605 0.23889559289277568 2.3315241691728494 -0.4823327824096467
Ni 2.1984066389883847 1.0806717575265985 4.434173170697915 -0.8415740009727313 1.2909228722571897 -1.2839811508320338
Ni 4.843106425900963 5.427458297299035 11.805511295808362 1.402392021373475 0.4597191587751889 0.7235559949943345
Ni 5.656271741888232 1.1520470058573007 9.588169866152732 -1.1676438749901699 2.1089522531407616 3.7212663629927976
Ni 3.8749430125619626 6.228611543378484 8.344298829427535 -0.5844289749514645 1.198134073159227 -0.22428144252402665
Ni 7.931235306422457 3.151043863144571 9.946709897253868 0.0644012490942052 -1.520282243524756 0.2966525971975859
Ni 2.912941084493326 9.137086964235491 0.2774646830236941 -1.098064938349767 -1.2313938636536212 -0.07867472829408385
Ni 7.492036345667353 6.311179214493884 6.647337226395012 -1.0799638578736819 -0.05717079278403703 -2.429959882143944
Ni 7.004120197858651 7.516088749176894 2.225367376600313 -1.621759314425336 -1.1042978066333562 -1.0473509569346673
P 1.3928725203543182 5.93615768135609 3.3256126842763134 -0.11410530118755188 0.24513026094857782 0.6971186267384124
P 0.9781876034424675 1.8521858099354582 12.87153303866307 0.9428207010300601 0.8824262591024028 -0.4651387871288634
P 0.3133897222178114 6.544156843317793 6.87463385274487 0.10787757511028517 -0.32952697932810343 -0.7347372084221346
P 2.8381553504319332 8.103738051530053 7.392628223602754 -1.2812256995740838 -2.6513352067647693 1.6222156852364642
P 5.163013755932288 1.435974653552967 7.620007756788054 -2.3589997488852985 0.3732640152047378 -1.895864622450025
P 7.708272446470716 0.5771870249942312 0.8508596624195743 0.8252724355992304 -0.00498896857415915 -0.708868825295805
P 7.781635574605771 8.417201259352009 4.0494487114439925 0.8338059269915382 -0.017315608460312115 0.7031959432807438
P 6.528065380256964 3.45455825071346 3.049792948237643 -0.03604583787996373 -0.09682903060560742 -1.4286339857891397
Ni 5.9859300463153176 0.35723895905856995 5.852405761466248 4.474889609686157 1.8987368017914978 5.025509606507977
Ni 7.377417645668499 6.119796321860584 4.029357935696207 0.22002678101273074 0.17540220032482048 1.2328498793738576
Ni 0.9346530357271373 3.6841065513440765 3.474009324855958 1.6273962009961391 -1.0751306981510966 0.44052433101429295
Ni 6.704374302809863 5.197928839131018 10.33551563390706 0.7334899662785948 0.1041204220606981 -0.9849847359926197
Ni 2.9760350705111076 6.1619751743918085 12.955508241734728 -0.8284166376551668 0.7570096466670898 0.34580849009694636
Ni 0.5574665036365458 5.422615784410706 12.992283075992129 -0.19623636346135237 -0.054147432576680934 0.5643424886142345
Ni 8.509557589788368 4.588365752773474 2.714418782780696 -1.4105737858533192 0.5295598337174106 -1.556132934674778
Ni 8.788275296574996 8.73471559663307 8.370262800767897 1.7238565354084183 2.6107907096835037 -0.5976580720472288
Ni 5.429578074341591 3.3433971426017974 10.722984497838743 -0.02129387638176978 -0.7874635922815728 0.11796555547390651
Ni 8.764637427242667 4.300848615952412 5.1641037923937265 -0.5501271163458009 0.3610183650681653 0.4823739200602274
Ni 5.168054114677922 7.049050049929548 3.9668254550639204 0.46198944286660437 0.7591457191734862 -0.09252860345804065
Ni 1.4612800808254411 6.5579401047100605 1.334101937380222 -0.1322053532223723 0.93126359232008 -0.5942984115463765
Ni 3.442640393118642 0.48760995779144417 11.094596487368976 0.7583833870861648 -0.3189119228164185 -0.04810354037544619
Ni 8.95536083368495 8.187389164244983 10.823988576485606 0.12855053007860442 -2.597505819649139 -1.554537050942568
Ni 2.666057718270247 2.482485026384855 6.915186600753671 2.43089190703991 1.2621458001244974 -0.5613008735744333
Ni 5.149673292411132 7.6715861717875375 6.532847597264972 -0.2847913269836257 -1.3650935420333328 0.4611394361614832
Ni 6.981009917479135 2.268585390943955 7.3712005751334635 2.5193869638585253 -2.750646123251966 0.08718585108888856
Ni 5.086758309788055 4.049556113480816 8.484766561744888 -0.706357628838177 -0.12720095802924544 -0.005822777329364166
Ni 3.462782985638579 1.6348474250699665 13.138845402837614 0.7771334140001585 0.6083931990765458 0.305120525459281
Ni 0.2359735803773884 3.226112234144972 7.071815513243474 0.3156592202070757 -0.5337885270867775 1.3315000223486035
Ni 6.111788275255371 5.313338922559094 1.2320210119957418 0.6762047594038806 -0.43210628215392677 0.3747578261414449
Ni 3.874726324242056 6.01341177801815 2.1766228679759445 -1.0093176563110293 -0.6685634408085388 -1.0344712727585215
Ni 4.065826579936349 9.280063570448101 8.635106802341774 -0.9664373120077355 0.6088701387129642 -0.8943633768596211
Ni 4.544359181370001 7.961524565052764 12.421145423615789 -0.06157792071279717 -0.14658604742407658 -0.8395762538164121
P 2.0272322874941233 2.0875846952035313 2.1359316278670297 0.16443104602529746 -1.3723782486202043 1.0908833329996632
P 2.3632970292053788 8.073674902450954 11.700757567104 -0.8939692267449959 0.056349325324006175 0.7076467799632458
P 8.708260779141964 5.761676477675441 10.91574006387249 -0.2629564904967213 0.24695034487645212 0.7793309358721094
P 5.653407687572956 5.498503802534228 5.3182360785889635 1.838050025434402 1.5681878089567831 1.8742573285928945
P 7.643068104641678 0.9409398233737949 9.457478545555649 3.9209089239222217 0.2318451138038975 0.009670433210228507
P 5.415003429520103 3.436591962623881 12.79875591111489 0.2365610312223281 -0.0803235767514165 1.9747411823422698
P 5.122916995518419 7.142075287788226 0.462948942739907 -1.014131275649589 -0.8988836333274778 1.4582698063777013
P 5.035243017038282 9.32651024075834 4.360995640819475 -4.549390923328842 -2.2197480303391064 -6.1083333024279565
Ni 4.23547469195997 1.2232244083306973 1.9833302917580833 -1.061354984523243 0.38012988908663564 0.4357243385224883
Ni 1.1697118145452714 8.22813598961857 5.235612822208892 -0.5139303547102697 -0.8614967080385872 0.9894391722195476
Ni -0.08182810445833062 4.747886041149325 8.989992337821542 2.344516210557143 -0.8563203060439704 0.7725717627714049
Ni 7.549929812007396 2.238192498769345 4.505571972106868 -1.3724551246047265 -0.2562803640281263 0.4672026116364276
Ni 8.286406305210622 6.656081071164776 8.66720776375112 -1.6385452756344232 -0.11890169413493071 2.221450871962826
Ni 1.4697686102269676 8.721657770050921 2.507749942362738 0.9472843932283685 0.17127506553032437 0.3719177855894885
Ni 6.496400621856821 7.468888380362636 10.583937487201469 -0.5075794727915774 1.2189324979618168 0.2195688675397057
Ni 1.5863563475675744 -0.03877307741618326 9.540556847407524 0.012836746753352087 -0.12823582705166303 -0.09828581765679202
Ni 1.4115642432540163 6.077184092689548 10.796065931157921 1.1614277188771287 -0.2163526745952532 0.3701928324785818
Ni 3.419417057963523 2.520339533749264 9.852779279067233 -0.0001848623172964558 0.6403584391292326 -0.18029218142727016
Ni 8.737165116771134 -0.03448735929769904 5.843676990666567 -2.1434752266182957 0.44741308771432625 -0.353907465054997
Ni 4.7344419440838665 4.44412670156663 3.774732201590582 -0.517752042449205 -0.26571476996814886 -0.1419493199830136
Ni 3.7701789205031706 7.631046613502558 10.094527132108546 -0.33117557067512 -0.9760825484069836 1.2346015719576415
Ni 6.8732969800233645 6.742106334167368 13.001604442240595 -0.8723976712218072 2.0313391333419726 -0.6695859685357823
Ni 1.2594678851427632 0.7669164915343374 6.920137457801953 -0.9787747505271659 -1.1182388421944807 0.4557252071244474
Ni 0.4045043343687995 0.8476988393183401 0.9447676696510868 1.1675873107206214 0.055951061444323 -0.30602941042679555
Ni 7.701752954410942 4.655821768883272 12.825727012081249 -0.6047882553341069 -1.897012362901223 -1.3244215182352677
Ni 1.1436621100000772 3.121753255032091 10.879019872756631 -0.29922498591045243 0.022475812505012904 -0.7786192545170655
Ni -0.0048971560298705025 1.1019825827277665 3.373294478010014 -0.203615686644559 -0.7845340773396037 -0.6903496834456949
Ni 3.0019340353554975 7.758280342212449 4.110395598848447 0.46160557716462436 0.22860166716593533 -0.6162985699665515
Ni 7.7284150389906525 9.156014217917695 12.578366931554378 -1.1853394924977199 0.3857377221917163 0.49627407508108734
Ni 8.992414536388836 8.015140792382493 1.3147130433643055 -0.17850243651669903 0.1328121335684358 -0.6884390966865435
Ni 5.534907440278398 3.5010143422549977 6.162766557821031 -0.5218812341262302 1.3315015650105004 -0.23689064664760495
Ni 6.660490207413293 0.30513012873688133 2.6466047598814884 -0.6868995201135654 1.7234811543468704 1.356200353308761
P 8.194831936972182 5.9312209561547595 0.6736717389863626 1.7851122968951063 0.03468649563859188 1.7507099081558366
P 5.8860555733013555 6.165442187510301 8.343237056659996 2.8130367696740457 0.34780443748105266 0.24686498425149744
P 2.3409875534863844 4.712942694256694 0.8154659806707911 1.2677307504114423 -0.48185018634627336 -0.37303235880990593
P 1.6921096689128925 2.010415389623175 8.765812254785807 -1.8238485371230395 0.41235635322050923 0.3766028497699837
P 5.628328369851688 0.2882783723101222 11.764200138679891 0.5351666383812267 0.21291510966861396 -0.2202666649376787
P 0.1325953514428635 2.047714044340869 5.274525333848319 0.8595583533652938 0.07154094546278 0.49321009144378286
P 3.2388214751690105 4.678781309561983 10.733878267591225 -1.1091196535020318 -0.6791455871997594 -1.3209950090522218
P 3.2941241029014843 3.92589303143372 5.3902840028345045 1.03374416478451 -2.416519954588954 0.6998946468216527
