# total energy = -340858.1608986807 ev
CRYSTAL
PRIMVEC
9.40572046561634 0.00000000000000 0.00000000000000

0.00000000000000 9.40572046561634 0.00000000000000

0.00000000000000 0.00000000000000 13.76622264622391

PRIMCOORD
 96 1
Ni 7.491007452902261 0.17290065869231083 10.044895735313776 2.7212951808936747 -0.01922516677819915 -0.7519839113177242
Ni 4.896599326201531 7.030098926972746 0.7169905557779356 -1.1688250397824644 -1.8230967465586796 -0.2184828335643786
Ni 3.8413245049321816 -0.33739918718416795 10.639418165615357 0.4958845529521524 0.06267038244602754 -0.5733686033722447
Ni 1.1389763287739256 2.7685174204884833 7.491523826962493 -0.47392630351350634 -0.6396390444647049 -0.29796668802331905
Ni 5.422397918461428 1.1881118131209207 9.891622934342621 -0.3531546460493724 1.8418814833653507 0.4564366313691752
Ni 2.1312892564332477 7.491835156313925 2.2089560536091426 0.2110279199482301 -0.2190703306367324 1.4050366580851736
Ni 0.2166128045487855 -0.09050090291698874 6.877549425914737 0.3912391116259197 -0.6468471321773698 0.19404809756078192
Ni 2.583375216452066 5.268219346597735 7.567953771881185 -0.39126353710595196 0.09843159920603693 -1.0241192401002364
Ni 6.475123789451675 3.426588661364726 9.369359952451413 -1.036787065375892 0.6672411224526896 0.7529773855792451
Ni 5.942647135574939 8.252917849060054 8.88319236388525 -0.493772391705156 1.1509579296940564 0.038577860273198074
Ni 8.97964144450152 8.509637586764281 1.385501205933797 -0.6033348107170319 -0.7706238950164148 -1.2756767447313966
Ni 1.8078077140018074 3.9376861123469906 9.36981424875577 -1.7759794813559027 0.6981200714197332 0.9549172271832779
Ni 6.818564270968935 1.6984285892944562 13.178377688311036 -1.0305732232556961 1.2523288140340756 0.618454954187922
Ni 2.9958254699168565 2.3761577861977314 13.170696036307552 -0.05714739574526932 0.8083306655385691 0.4532340652714775
Ni 8.417019456143137 2.700043774614417 8.548246188630197 0.5948275445769691 -0.6653408201061831 -0.1795794716309617
Ni 4.752569526851314 8.504859480706035 12.826953631159446 -0.8091688451691483 2.263430301718405 1.017790212558415
Ni 4.5691015410794 6.492646646905436 11.69572761614929 -0.20177477678107833 -0.641090946419883 -0.4478267782129772
Ni 4.58935205750342 5.202633256943907 2.5567457403258764 -0.4054136033540889 0.801206138678646 0.7441266200568346
Ni 8.724765228032364 1.3902783714199838 1.435514244011568 -0.8376350709296413 1.397719041377838 0.11445342855559
Ni -0.051186872007040654 8.536707250613945 11.512650908353796 -0.1550611747746233 0.7518818385222212 -0.036536661473453205
Ni 0.20507386653253487 7.79405036449794 8.807078451178285 -0.13566014454019215 0.5392806605496003 0.8641477725081892
Ni 1.9372868636037848 6.378536444742775 14.002313168308381 1.1097495737765468 -0.877727568075153 -1.8061809446399473
Ni 1.721698342026934 7.300692102542941 5.225781675880811 0.9012904429967574 -0.17843198829007978 0.5574953837854141
Ni 6.063868062501445 7.606603758917684 6.4596071721991395 0.5946241703169114 2.272475699750125 0.5371294185345523
P 3.1154003957406213 8.550702962847547 6.554690542186163 -1.1844316359714697 0.7617918985470816 0.0533889571441016
P 2.671629092720797 8.420019881010422 0.2395890987989461 0.7337229082250074 0.37036098262532985 -0.7124010068187795
P 8.990787223397229 7.6794886877470985 5.559998907790364 -0.9904151629795718 -0.36429832137101775 -0.39930234825002847
P 5.952824125250177 8.705191923490615 11.09419886458238 -1.4293053008245513 -1.140285537581875 -1.2105959530716635
P 6.279070949534224 2.366056042287189 7.463110085640931 0.10520182805033494 -0.15225687255660877 0.04148140707323823
P 8.547777783744959 7.145196729797053 12.988926723673666 1.2311210696082087 0.9185016646687213 0.5434872424317801
P 0.689999899981202 2.7417957683005407 2.596337239993144 1.7205040739964175 1.1582161539183666 -1.2388428637324989
P 7.145911564561672 0.16912802416482625 2.805707639689865 1.5093910505335488 0.33592954042033757 0.8798700683394525
Ni 5.039820233581257 7.625847863238884 2.8929720341528338 -1.1089692439670966 0.6061499115683238 1.5066967915308376
Ni 4.297962833715155 3.672614094761422 4.512485687149487 -1.022111465641588 0.5524516507139196 0.05075306218315131
Ni 8.222048274093202 4.029354265188838 1.735163571619422 -0.18836107447833367 -0.4648845050262123 0.24593038825237
Ni 7.041216488706695 3.2247607090067985 5.273894758399988 0.21275364439008523 -0.4674208982948208 0.24464740777488833
Ni 9.78853341499186 0.8868164844103245 13.199012898707068 -2.9482207459087677 0.8040034989181251 1.6115857163264438
Ni 9.119683218322807 5.568167776120258 4.608160676961438 -0.4059951868891718 -0.43507539208457974 0.24592730292857645
Ni 2.8018136713668067 1.634131083361061 6.486465207335596 1.1655108878075668 -1.3789990963708314 0.5721727832919308
Ni 7.672434397306776 6.5746457189837475 7.846196620004865 0.35232623661080614 -0.10035684125320782 1.345877117005882
Ni 2.1231250909636477 9.643591260744698 8.548507667662518 0.33319620064957456 0.28072769843721335 0.5179813848511917
Ni 5.843811823645723 6.217501102571087 9.59681943398124 -1.3266856316790956 -1.8535522348350595 2.1808855489459535
Ni 2.7392468180214373 9.44889284459179 3.4927381536817204 0.3120445062726239 -1.4342559599616074 0.19283633664086788
Ni 3.0779185992010394 2.3964365197835122 10.710452048633233 0.023576758878675524 -0.627624536502332 -0.8270544672003176
Ni 7.067383203379999 0.6838560832937103 4.950705733878807 0.1790865911549432 -1.2336813741362174 0.3550078972080273
Ni 2.0445873240613874 2.2487667065660895 4.455782360018114 -0.5499422540285046 0.6311631457832096 -1.259114212387025
Ni 1.7172964647921727 0.4945744216269113 1.4976409096334613 -0.08209583816049087 0.924565097253982 -0.5903507397525382
Ni 4.108409346723389 4.234888071458082 9.43732380826966 0.9216312114366386 1.2512353238595806 0.06881120523644278
Ni 8.075234381449205 2.1247804977869764 11.093235718794261 -0.12887654595945547 -0.4219344838272476 -0.05300971942781194
Ni 3.235426796152566 3.1228309150044273 2.407863529724777 -0.8503607460264259 -0.30223163394726016 -1.5828448967483255
Ni 0.7991598713988738 -0.002692857804085875 4.54695577195708 -1.1525615267357505 1.1419138172139174 0.31056766461678126
Ni 5.842927685910536 4.623758183411021 0.6428038752192666 -0.014400491696046167 -2.5511742835724514 3.3236059212215667
Ni 1.5735300256183948 4.778369418421722 3.3349092216581737 0.6696618160790403 -0.12881586792484911 0.26719186873430756
Ni 1.4764347719977924 4.03501650898227 0.578284394280016 0.04673391372142919 -0.9906715019647521 0.4773121892666038
Ni 7.129752536593039 7.522356719619056 4.076797660402214 -0.8146792334644164 0.4807027030053915 1.7351899581433663
Ni 5.683425476194545 3.0769686214217424 2.814503869582918 1.5779160919881405 -0.847795813512727 -0.5614782796925621
P 7.1178731114915355 4.914441978155255 3.791947293566098 -0.22381710129309842 -0.13655077467526158 -0.9446384709650892
P 7.706868740376138 8.722225683473848 7.865124692114338 0.8074703744208028 0.5510054051856962 -0.16127141735039321
P 1.581026384926311 3.973700616474985 5.734113845010469 0.4205450596788886 1.1976573906331245 -0.10316165769185458
P 4.2188042892541455 1.3975678048749838 3.519486141887307 1.3354523221281323 1.9223115037876441 0.044466714953807294
P 3.147389251457338 6.431641143177525 9.95000518259879 -0.5466826094406263 -2.965122663870429 2.071230313109955
P 6.686545576808442 4.865250059484737 11.090330291704905 -2.996826679841929 0.6239134061993319 1.3517821696364074
P 8.809426119036823 1.7776623795201614 6.4739104514959385 -0.808390315131911 1.5503530947682074 -1.0794689205151344
P 0.016828715274433977 5.6528568842864795 8.628957617560134 1.4284221268886497 -0.9678064244411202 1.7523317600299755
Ni 3.6183713041356342 7.648327535442046 8.422106069836639 0.715215079228807 0.6717312970135593 -1.3026257625164148
Ni 8.697516855491545 1.8778238980521573 3.8040750296911012 -0.4874431070530186 -0.2475255006536318 1.0914122089199398
Ni 4.861177382470523 4.111851840458266 12.418371950572128 -0.21690366200271674 1.8203112133937425 -0.6891307234369294
Ni 7.66299105383733 6.974370032494197 10.777671911953037 0.35712262955818497 0.013330398560318979 0.8017836084486708
Ni 4.483039197707463 6.187957734207015 5.8053123281386165 -1.656934062554256 -0.6160612571447648 -0.24555295030829324
Ni 9.616220613836244 5.875255147568388 1.6310497692967278 -0.6132566978164341 1.084506225828726 0.2203779937045624
Ni 4.581216109195581 8.989263496662119 5.109746122713971 0.44336128624245585 -0.7255485999443311 -0.9054003514000729
Ni 0.7461736850435216 5.995460256671487 10.804447176748328 -0.0809745800718541 0.4374377216691692 -0.7277875165771789
Ni 4.4603714110925585 3.687061281583204 6.738262931456594 0.20634157021615432 1.0276977014801139 2.4310322892725162
Ni 9.055950055624637 4.707948788386126 6.792501959794147 0.7630931338570084 -1.4536302507231609 0.4837345478531797
Ni 0.971667370970644 2.581569318099343 11.647022913805182 -0.9120898476051067 1.8562338954322806 0.11555180382609131
Ni 7.227496784934151 8.934954865992221 12.683275605759189 1.2628543961557477 -0.54240737910404 1.4057773929059403
Ni 8.519842793601281 4.3311085930640845 10.623697444226083 2.360560922724831 -0.16729834027076348 -1.48335194615731
Ni 6.975874947788132 5.488802305806333 6.031147441723052 -1.2783316658557404 -0.7675503982974137 -1.9989398910756606
Ni 1.8952715097412223 7.99223830298866 10.62621629619931 0.4030412464671703 0.30610140131531155 -1.0305290002813219
Ni 5.138100607995834 1.7136376394837918 5.6939297849462145 0.03141810929996524 0.8959016678810183 -1.1948867698665229
Ni 4.775660570892637 0.5237782434777888 7.655658354067629 -0.3807441256318668 -0.5192263130018864 -0.0032951258115040023
Ni 9.10723004426549 5.132156192584788 12.842977216751626 1.0391056862067394 -0.8618674611144447 0.4898979963514144
Ni 2.2914310551491615 4.614004451162201 11.887877082023094 0.7272409000450895 0.1427885280548573 0.441724264859665
Ni 4.453034949034623 1.3948683630664869 0.9221387275031085 0.5226096276518225 -0.6130556375492215 0.7380192216075161
Ni 6.791071349692849 5.906886585902795 13.165024386793533 0.9038893140721852 2.1093582303299288 -3.0045818983073156
Ni 7.120497307535336 6.671439989545563 1.910269871789407 0.3015040117526162 -1.6515288323782849 -0.351836184348265
Ni 1.995385999670283 0.5845721184924904 11.983483410074758 2.7703538860935386 -2.1877275115684514 -1.4109010872857508
Ni 9.272055891833778 7.526372962309746 3.4302945152760422 1.3787013626247546 0.2480924289006953 -1.401048105751071
P 0.6804286387117722 1.1521067147135131 9.993149222931805 -0.8236719238813299 -0.16426880941582034 0.37631951420161
P 5.427420573254938 5.70437201594201 7.747203291969787 -0.5326996648979729 -1.0193914956072638 -2.9885261303960338
P 3.706681614727888 2.235702160670612 8.652759734077842 -0.6217958456356969 -0.1266885371692012 -1.3299090237123998
P 3.296592197130458 6.475904464260403 4.000684688267308 0.5683480102292018 -0.40040586572685233 -1.9233813398130553
P 4.773403197951734 2.189971547176146 11.877937116506649 1.7759756247011609 -2.7026721664758484 0.6698201960337754
P 8.604334381635173 3.027259388118935 13.124717111789586 0.2257148325364435 -1.3140388894493626 0.6831145991498364
P 6.432092617765706 8.533236539717308 1.0273388905536125 -0.6193301577040237 0.29877015776122096 -0.9381081260457392
P 3.7244019923139784 4.677831671066241 0.5813149174531786 -1.9358761298459564 -0.054388602053209556 -0.3833609944294236
