# total energy = -381175.2700546529 ev
CRYSTAL
PRIMVEC
9.18451414603685 0.00000000000000 0.00000000000000
0.00000000000000 9.18451414603685 0.00000000000000
0.00000000000000 0.00000000000000 13.44246483764020
PRIMCOORD
 96 1
Ni 9.167972620872307 6.634268316417804 9.586278552480978 -1.1800563897219096 1.8114380792738287 2.1189872687792604
Ni 6.437664611222354 -0.08606624313956457 4.938855722778522 -0.015109087727296562 0.8527454442085184 -1.8396801048386573
Ni 6.9688968969602225 0.22134219346714648 2.3329262376776594 0.1164617172348704 1.588957951624599 0.7847055699204615
Ni 0.17624623006858267 3.3780825926514417 3.7710282443953225 1.7904187967096843 0.856491284404196 -0.47445055144809256
Ni 8.011348412581484 7.309532149613162 1.822099186539096 0.41113636477047905 -0.8778044440596752 0.17605551763810323
Ni 5.528783481691788 5.246231095135084 11.503228051282731 -1.382007287069536 -0.6619122540406085 -1.239781316386368
Ni 4.312459932852968 2.8921483296186072 13.015276416557322 0.6557719454708254 -0.18707860822148428 -1.4635372254242278
Ni 3.8300249696276394 3.167160230238403 1.85745313601162 -0.14076198454313177 0.19802970791634927 -0.2847507035536773
Ni 4.508806471658365 3.3048360940560144 6.617496475529389 -0.2891264640238698 -0.13609877473950754 -0.17998082083443842
Ni 4.201584480684441 5.656797236854554 7.751516676585954 0.5088686239166462 0.42958248729080856 -1.495075148131509
Ni 7.249832809065166 1.3027865629801805 9.955314159109689 -0.06686282326082034 -0.6784197647773283 0.166187623705088
Ni 9.287104951064316 8.997756024199072 0.5244430930404713 -2.1391326333788836 -0.4913835797580053 0.9312360815162543
Ni 0.2984452694619741 2.3774389844416386 13.683084261343932 -0.1174078831982236 0.26168687975567834 -1.2324780978567356
Ni 3.438470771744223 1.1534188129290923 7.528573622340728 0.6466717829417702 1.1834610445280844 0.0408946813318328
Ni 6.798239443618325 4.401402765755552 7.600369886186535 -1.6778075635691556 -0.7325908515030932 -0.6823576663791538
Ni 5.760481214615528 7.55391369627487 2.6211592461003534 -1.1562839698926601 -1.093788165351284 -0.6048579322297777
Ni 4.121853715254109 0.9189473567983517 9.823188497060254 0.07485484032736141 -0.3597371843628966 0.04307986190860968
Ni 6.179194020191319 4.232683244852983 5.196776161425123 1.1363558635101654 0.7590940399999444 -0.2479726154933794
Ni 4.643800457408281 2.8266719298083505 4.00093407865123 0.11549164001211723 -0.44087014438948585 1.0092058133235133
Ni 5.049002842992363 5.223278994822861 3.0174572454288526 0.6632376577202513 -0.9481783657975476 -0.0267016776609024
Ni 2.8104612627210863 7.308430007941507 3.7745495870362613 2.219241523016333 -2.7396502863620946 -2.2343680942451263
Ni 1.113594760526613 5.617037476049588 2.352431389911779 -1.339286865382874 -0.13610803071088814 -0.4986983682518637
Ni 4.455674058570647 0.9746330647587371 1.1137013008882064 1.1398913874672498 -1.3115325780877414 -0.28667106050484176
Ni 8.503234240641255 2.669175884928804 8.013039281596082 0.6827181350423661 -0.006644501899711137 1.964698453394287
P 3.4603299148987205 0.9870505275927204 12.450007240644558 0.25591192494511406 -1.1694673013521537 0.23738815510931371
Ni 2.0315501898204746 1.7777453318661138 9.449609311390144 -1.2643515495265645 -0.12389837601857372 0.14939317785556852
P 7.105957398344493 5.874810044021908 0.3705170687256952 0.6532100982809202 -0.21480178516836554 0.3228323409167473
Ni 1.775779845884995 5.869179936982536 11.06524521702944 -0.4776281778451258 0.48981469260898863 1.2988542112891244
P 3.926480734925341 1.0788864823834006 5.151703159311385 -0.5793217356318862 0.6716053129586562 2.59191315605271
P 7.847028273851605 5.824488092196912 5.846745843255992 0.7110864017724141 -0.6021186789217436 -0.013434014017718798
P 7.243963904663601 8.383670238294513 9.04067617624751 -0.263019739634489 -0.8070721105411197 1.6498216198791908
Ni 2.0620886986392577 7.496427823584114 13.405591623511521 0.5887021484055216 -0.04698511050028682 0.38274315833976663
Ni 7.271361309718166 2.4007400962832186 3.8769550804581163 -0.3802268196758161 0.07402540244753059 -1.2129495409055047
Ni 8.029148000578717 3.8488164851293627 1.4965357212460428 -0.2386287123846342 0.5661499741366185 0.4224402198190725
Ni 8.401690254626079 7.9217351101619755 11.877372084559564 0.409602701734772 0.887529384656923 -0.7009292587337541
Ni 1.8664677364343678 5.7193070386652725 8.432821164593378 0.9987823039973444 0.762598453608777 0.8942265941714406
Ni 6.002190067723473 7.6015445855182415 10.998933944902905 0.7711008346528332 0.6293003815428582 0.6747335741749927
Ni 6.767030465282618 7.392532602002739 7.199461260864945 -0.5329542041109402 -1.2452654794293911 0.29945998473939395
Ni 0.13056337622986236 0.05849157696614131 9.449353981902878 0.7846009260217971 -0.8715468931857379 0.398051763672379
Ni 2.701450266880444 8.306382553569685 8.049186773072197 -0.14935949640415566 -1.2755209358798227 0.6709687078159218
Ni 8.462804010319367 3.4507504668692492 5.961531143004715 0.4762235841881154 2.2532469334275 -0.8947189604268269
Ni 2.2762531944697493 4.6425054409440865 13.346526014424724 -1.6139133360183562 -1.1643508060611947 -2.3269961993955084
Ni 0.10045929491999012 6.207647644347887 13.383546034724233 -0.04060054713018169 -0.3979435202292888 0.2606252712603834
Ni 4.449208160763602 9.3226490199752 3.4551167847917905 0.10890447371290277 -0.15767084448332847 -1.1764280489407029
Ni 7.894227490940245 5.198480807210617 3.60301042035704 -0.2532415772018026 0.7914017509937145 0.2641371410683838
Ni 6.3004112350455435 5.965571410682725 9.323370922770136 0.45953403934757636 -0.5014990709254523 0.022034354092220116
Ni 5.660094477355589 2.203208755180792 8.412670341029946 1.1920590706097405 -1.489248514147403 -0.7393510530450621
Ni 2.2152496529436267 3.626441033845039 7.810690662937129 0.33828518513670774 -1.1685756427758198 -0.29394394001717117
Ni 8.814818875732149 5.2756123551986285 7.950962070391489 -0.3425133642854424 -1.5866658131563125 -1.4819517233756736
Ni 6.182858641249572 6.8268216509699196 4.834259722784252 0.5987304791758011 -1.7019854463669397 -0.42346506153916097
Ni 6.445710245425438 1.9611233370016994 0.6129377216632498 1.4663361283256038 -0.20158220115429798 -0.8744481259929326
Ni 6.69474834064989 8.74871792897462 0.07095679927256307 0.5370779964713266 -0.5210952478898251 -0.06693558548028473
Ni 9.156354210750273 1.4847960755401275 2.295153087235852 0.014807754436793852 -0.38804297328612525 1.1477702759946942
Ni 3.280506316654223 3.5117723774232323 10.343452636262366 0.4236902901760896 0.7706112966109244 -0.09342000492405846
Ni 1.1254611525247686 8.18877485269013 2.5713957127223295 -0.22243359068201046 0.5222579007393586 -1.3637539972863029
Ni 2.054226754714783 8.828751783364659 5.123985214720647 -1.0237924528884368 2.2450595125207014 1.6000615177369284
P 4.967765817277434 4.024433575993709 8.918994224988403 -0.6870118773217135 1.8874599433260977 0.6878379727674349
Ni 4.739227557145771 7.5541708626649235 0.2443640960852402 0.637511970819373 -0.5782125617281074 -0.6391628761592347
P 3.7641352666905115 6.027034177905371 12.410190535853225 -1.293106767282386 0.27105855077856544 -0.5407644441839784
Ni 8.36744120217939 8.131748205695898 5.750081589492067 0.49011576878917534 1.106991037194803 -0.7004016683650583
P 1.7557759745444508 3.40574634860999 1.6308261732288862 -1.810808930330262 -0.2675507947356231 1.0133602018115193
P 3.4910061914264605 8.106169334399564 1.799824903354942 -0.5461226231720981 -0.18070741458781783 0.9124012081979384
P 0.8616121101360554 3.876792514561547 9.501201481491723 -0.36541418014301585 -0.19846293879902593 0.664664877085081
Ni 1.1165797275540128 4.968803667351576 5.900408202797497 0.5621969030261414 0.22716287783687972 -0.18940108570707379
Ni 4.1877801562469585 5.456308482266519 5.242453504555485 -1.3013744066078168 -0.4286080391926812 0.3070475672786648
Ni 5.132710502954585 4.914550743564343 0.2948761673485969 1.7782248257466537 -0.23090460426749912 1.3521683493312326
Ni 3.6740811076023405 8.170690544761053 11.520258895463986 -0.7538294491668953 -0.07899663040987685 -0.9117463482227588
Ni 5.485597897190759 0.2871299482996461 6.981061785661118 -0.48749170090276694 -0.1636507162158472 0.3359822480351439
Ni 2.247211761421631 0.6041481418317985 1.1982695498057128 -1.2051377581705698 0.7388622863341017 -0.7097404292674809
Ni 7.618003234481627 5.740431420705333 11.656834454512728 1.7700546312310352 1.4743250600683513 -0.4297166988758277
Ni 5.720363257767275 2.96450393036278 10.75156559431101 -0.7899639901059233 -0.0779170241924529 0.25770681206200774
Ni 0.7077669095438672 7.341411597465792 7.311907264915579 -0.49964710531837825 0.8406756575281781 -0.9296196289587538
Ni 0.07217742117392134 2.0490926114276555 10.981780946686376 -0.2919539061703359 0.6291833963490197 -0.2070961889939917
Ni 3.330185352504087 5.671914946784093 1.3871545894940027 0.5060645788089477 2.9086990336650618 3.215817049170346
Ni 7.850849031646677 0.5429287642283103 7.488743140778498 0.317517356461737 -0.7479485649060861 0.10740140680481504
Ni 1.0997169599776864 1.0178462028015565 7.3988937963509755 -0.7097859377934357 -0.936232249179265 0.14949062266538127
Ni 7.210734333263193 3.698952771326029 12.620148524303563 -0.14471197032981528 -0.48350700522340606 0.06790052049671531
Ni 2.244281901477814 2.2874950395206333 5.918098495078958 0.14336496938361762 1.1870050531256007 -1.746128459432741
Ni 6.857984706735974 1.962987793329583 6.031889111969012 -2.055671282329434 0.27187898979733177 1.0087443003060628
Ni 4.974957291684985 7.929771559851128 8.904449628728125 -0.24914529564524188 0.6934733166763412 -0.3280015438225125
Ni 0.12923254016133853 1.4363110265012236 5.28107346718168 -0.6518044761826453 -1.4512658642560425 -1.0361761712647704
Ni 4.298398442025432 7.799397384608234 5.637863361386909 0.08019167915924254 1.2153571219057326 1.22595675179845
Ni 0.5352863301867736 6.920880258131772 4.401156620782216 -0.3458046334422044 -1.520488445998291 0.03425017943212166
Ni 1.1337272150621835 0.3007790544517043 12.128490472189267 1.7299492785697173 -0.4001914357232011 -1.7512426407308552
Ni 0.3750679953782386 4.273921712400753 11.904324040688502 -0.5065098938764826 -0.6688262075516224 -0.09635003408665987
Ni 2.1243964411435057 2.5282119651240875 12.129740484535203 -0.6494460032527976 0.4714904403785041 -0.4308996634403353
Ni 2.0567616805595903 1.841357275348487 3.539521549361335 0.8693791961104576 -0.3087390960484747 -0.5440675404152824
Ni 2.5495659600124094 4.280121259303814 3.607339081772466 0.17422797751106125 0.32829722068606043 0.7476919688105897
P 1.8908158828640198 7.877759657462927 10.139744709541706 -0.47255590552854093 0.3822518205256449 -0.5790391713944608
Ni 7.802768101220713 3.933415042942839 10.155499824738017 0.30276205252943345 0.28490805506714806 -1.0957350046650096
P 6.0100979342176 3.207618014102084 2.247324730942976 0.3235375945138879 0.7948979370724311 0.7441610728391957
Ni 3.6751373267043435 5.877289862783132 9.956981148388069 2.1556393727846554 1.063310308477401 0.543075094595026
P 8.640267188483735 -0.2109361391839341 3.652264213211924 -0.4785468330046533 0.13182148752039233 0.9398479915549813
P 7.8647911237931165 0.9529943499385709 12.298470108403096 -0.14654002467748956 0.2689823849758271 0.021575669288246713
P 2.405855870542485 6.757956165519323 5.885581641959553 -0.26517740940744006 -0.5547561304773801 1.1027132357550558
Ni 5.502598432476043 0.7400927247735181 11.641523869790648 0.8028858403739141 -0.06907988551679717 1.3570742712732822
