# total energy = -340862.857562447 ev
CRYSTAL
PRIMVEC
9.30488792193378 0.00000000000000 0.00000000000000

0.00000000000000 9.30488792193378 0.00000000000000

0.00000000000000 0.00000000000000 13.61864402623681

PRIMCOORD
 96 1
Ni 0.6428412134080873 5.567067958035033 3.148562873760282 1.2644312537245643 0.7923813412981644 0.21210006996648634
Ni 8.228377580902542 0.7803925810498767 3.281385497327203 1.1158718846242008 1.5169858321616714 -1.2841426161105627
Ni 4.559469552613394 2.548078440956698 7.986980871862181 -0.30778418833437315 -1.6163425142851389 -0.3843742661852864
Ni 6.696727884066913 6.269866147674569 11.39865527175751 0.02376342096818488 1.5939644037002547 0.29861409179933085
Ni 0.5535235936232348 6.093259373685977 0.7787688780961881 -0.6337643308514826 0.3096425816993506 0.6434393920474015
Ni 2.1297306770722346 7.639945769508201 5.866966358825715 -0.3727220266583387 -1.3355567089164804 -0.955223188459471
Ni 1.9653598307862237 2.6560058367150585 7.739393620844232 1.17465038821499 -0.16213042291657884 -3.183887033230968
Ni 5.584226171482608 4.950246933393105 3.5194389601139235 -0.06957173755155116 1.6541773257447252 1.0734864776794546
Ni 8.619973791825087 4.679316509882787 6.014960602255038 -0.7591279785616734 1.1498945214265486 2.8262689520936033
Ni 2.416144434192512 9.146072158596164 3.847158045496201 -0.6147134848676188 1.5749670366621458 0.21828203040748215
Ni 4.2153840997512155 9.086111460409521 5.747013325833273 0.1293092626214999 -1.007431237921594 0.09238950677701509
Ni 6.232851303263261 1.2026102478480314 6.794055151430763 1.6978477700494823 -0.07566576626443097 1.6826188689148698
Ni 0.8181192493921713 2.6480780721503443 11.829917289678791 -0.051824697980775256 -0.5637061405818162 0.6846832291885371
Ni 0.2827801983614499 8.070482936655312 2.4673036388324845 1.4558249443816347 -0.6370291176456836 0.18612884271370525
Ni 6.3722478301928245 2.778476772396716 3.1058543683898794 -0.5149037743671325 -1.3529797894889344 -0.8597689267142031
Ni 1.5261784226994177 8.152784670898152 13.379528211795252 0.2725865573873177 0.8151574586524156 -0.07241152099319141
Ni 0.8074698050913311 6.0576588722486555 11.907693126404874 1.7894875431446666 2.097517528941258 -0.7856399088092728
Ni 8.081555753359549 2.142273666078379 5.324835670053463 0.37457399226541294 -1.1488786785675245 0.22905752375643135
Ni 0.2362790206476464 7.714645410265863 7.281834128494788 1.053506692123418 0.456052251446563 0.25852030910223867
Ni 7.279502323565308 7.32587788529129 8.988237065632049 2.4503294469392314 -0.8158529420575432 0.6631574393016193
Ni 6.719255017882844 8.94839911820556 4.4689850998750025 -1.375620923927218 0.5509305860837027 1.1966392337812553
Ni 8.7334841203755 0.20937579801154432 0.8650382165765799 0.008785973722746159 1.6293391836551228 -0.370797041721484
Ni 9.31633299897779 4.413103664581752 10.533585418561778 -0.5000469118599582 0.33210785268140225 -0.8223822585356289
Ni 7.5350610721215086 7.163042345523094 6.582775573337129 -2.2015801011808276 -0.544758652945036 -0.22737165141357615
P 8.44031501457684 5.3604994447290935 8.274796875602062 -0.37112742847770924 0.07726113577600888 -0.26095540090629255
P 0.25013120739352723 6.353210029371925 5.164530129328863 4.547283647177853 -0.05818535009148044 1.9957203556970986
P 2.43934151994349 8.279396281733915 1.772262003818707 0.100755105132891 -0.5885381120238315 0.499688757189591
P 5.466547253114129 6.664291044545088 8.374826282437265 -1.399166315347326 -1.736854747440299 -0.27279147430927214
P 2.4968364228136437 9.085636911122196 7.296869896992584 -0.5940672693721769 1.5488500278601196 0.27877263159337146
P 6.0567469932259534 7.64404922511036 13.170576716675903 0.14890209715176292 1.0997783214964478 -1.2434826764973552
P 3.9343857874392283 3.3292796167726237 6.107730335482977 -0.711490064968736 2.474295470836526 -0.009806444567460531
P 7.63908971981342 3.181517995542969 12.084599517786641 0.30844779006030104 -0.12021424229876718 -0.23597301992934197
Ni 9.195462504029853 8.511143821932011 4.807749087297557 1.9567329186903073 2.044316005217615 0.9026438717008584
Ni 0.5233478418821913 6.619190252473291 9.238221255795384 1.281022325314026 0.12199164591416412 2.4555572709970743
Ni 3.3335319505825707 2.5568157307762602 9.841063547214812 1.3120252014534435 -1.9476199006454458 2.129042081912101
Ni 3.691528210984947 6.812908715469524 12.406761724063228 0.8528074077947054 0.6134945248588531 -1.924826556900014
Ni 5.690460077627379 2.3105618702068136 10.955136855380081 0.30929753965510604 1.614013609041646 -0.8349906913282588
Ni 6.998355133045533 4.4277030338329695 9.938000939772017 -0.673304297927634 0.2645606017590476 -1.0288122747005313
Ni 4.548331601693249 7.667692945484701 10.240675919137946 2.0647120523754636 -0.019210768600495944 -0.079660746356437
Ni 6.096218328065765 4.030291267918702 6.335202279651161 -2.0597217982497233 1.2763043510130665 -0.7825059911659814
Ni 2.7710979962232196 4.19923081420621 11.759263414217772 -0.3752615052507408 0.27751741903003174 -1.3693831705476223
Ni 5.447239610541614 8.742882057242122 8.159828471104126 -0.5207005835545677 0.6828898847335401 -0.8029663159028623
Ni 6.261156772518967 1.807297698555232 13.310577130835807 0.8176398587546369 -0.33136428964715836 0.6369992928490127
Ni 1.5003108340962414 3.2063062171396814 3.176766919736932 1.384050799862126 0.2490041420816873 -0.21618555288976965
Ni 8.854670981514985 0.41499149078764136 12.052800063091908 0.45026829777493427 0.5174828479482184 -0.8512693738836242
Ni 4.636318622495996 4.064905451229428 1.5707739593535341 -1.3307670008373211 -1.2183079770039404 0.032936859937336825
Ni 8.39235762189311 7.654917334278887 13.113405623907688 -0.9878700279602148 -0.9160670870852998 -0.7139997187644671
Ni 7.924265926831459 6.867807554591374 4.272645449932901 -4.787977983842264 -1.940923719572193 -3.4668209952908806
Ni 2.112330536537004 4.336310424027071 9.472121016584818 0.4849704771428099 3.7598524507961124 -0.2517559937952116
Ni 5.230593903546019 1.8324860303353754 5.079481592152335 -0.20803978385418365 1.3043160057346441 -1.705789136383746
Ni 4.268338217283833 6.546705175056477 6.542124378700597 0.9121168441883001 0.4984924228886447 -1.4867545440809558
Ni 3.1802618356647567 9.383979534641492 11.270558600799063 -1.117373923091024 -0.8884932912320892 -0.13913473335235393
Ni 3.8414857857794757 2.0279072878331847 12.520272983102439 1.2422570316203705 0.21518539376002938 -1.029041617102518
Ni 4.711818483620519 5.099013482525329 10.54102095455199 -0.2368695636016824 0.21888186877501015 0.6266917402754174
Ni 8.692524003457809 2.350954388957313 7.799546930212201 -0.6799218032441516 1.0682882213079665 0.5626630440292826
Ni 3.2154715318066343 7.102700146928993 3.7039576803576533 -0.7923114072921774 -1.7743769127554732 1.020634109765113
P 1.6200368278218062 4.6203886542626735 13.338822118319598 -0.9037782424156178 -0.03478214067619171 1.7515411458078802
P 7.747863860378574 9.222083788559958 7.540956649149916 0.589464994713475 -0.6516188425344003 0.5025192846598506
P 6.519758219446837 3.1585256173276997 8.064947458791991 2.6175825357943565 -0.9676313323158366 3.4409430990828542
P 5.061756711026366 0.6216232773318918 3.259622294814984 0.06837283214744354 0.055557939770962385 -0.9100674178584391
P 3.170203251751076 5.016962980258132 2.826195959947986 -0.7405795261355245 -0.5004999402369767 0.566002907035793
P 7.644365591301909 5.65471069798227 1.4793664617268565 0.7787987175177233 0.620450644461712 0.1756156018872072
P 0.7715231618209027 1.3366471592972238 4.399952135901274 0.14025522011004232 0.41557280327527785 0.08031843454509394
P 7.298772746585875 3.931529186827295 4.6822531325314065 -1.3730138253216742 1.1204775017170123 -3.3759178432514054
Ni 8.210707598615695 5.171089144870726 12.834441360109608 0.2580166299929427 -0.4774199184890617 -0.2103157243725539
Ni 2.8242847359555063 1.835147228299587 5.294942786907216 -1.9362155154632459 -1.818515040725268 1.5138231181629738
Ni 2.6315991155258027 5.283957436150053 5.154833505557868 0.06814708928988264 -1.4649477326185092 -0.3799576251748295
Ni 4.828957718485766 7.38794148816294 2.2740960141867244 1.360105087679806 -0.17383588427896512 -0.2886706074333738
Ni 5.531737298349328 0.20873562171805563 11.817727886416144 -0.6688223508968805 -2.1858979145588804 2.5581190903214006
Ni 3.0949732323781696 6.304601294529122 0.7745081698870535 -1.333033942494627 -0.9297101317900311 2.740151394368229
Ni 1.710508253717016 5.475563689573294 7.483921407746308 -0.5847434208680897 -0.2986665423038211 -1.4238306508632255
Ni 7.288630418680314 8.219835693730701 2.156579931358013 -0.547565783376528 -1.9714008051151273 0.018038602669265706
Ni 3.6021733716481474 2.2880347363908817 3.326789628747368 1.4757031713628004 0.24545216306437084 -2.734845922994916
Ni 1.0252963023724455 3.441049931269514 5.632916789339695 1.0698439958308605 -1.1681051308973045 -0.46301222770416384
Ni 5.497030066158735 5.8755622143478785 0.4868149906685974 -0.3452672728814957 0.9841429568176149 -0.6500687244384611
Ni 0.1511941944079684 3.3733382613899043 0.7683111144878753 -0.3169689401574347 -0.14303895350276657 -0.060680348599192274
Ni 6.624373075081913 3.98242692411484 0.3748781186767445 0.9490592257406041 -1.8800433391470524 0.9741387944170514
Ni 5.516709904250721 9.131798460424482 0.9917679994897746 2.35205622768793 0.8007153150851565 -0.8194681702126274
Ni 2.650357769707099 2.8876603280332884 0.644733827624593 -0.8913855251782197 0.8617713018562125 0.678205077663361
Ni 0.899627276689741 0.14574618249172389 9.280670154790958 -0.1648115692931678 0.2807906904646648 -0.12731691478181945
Ni 6.910489075786614 0.020365608336608658 10.101765107361292 1.601374580121397 0.92410564111906 -0.5923906530007024
Ni 4.335249666796582 4.866344758416544 8.298411750823645 -0.2896085458666109 -0.4155602048697875 -1.0577875788869588
Ni 2.9893255341765634 7.301982932941305 8.461603667801734 -0.6338242375551407 0.2988791725352595 -0.6191175274725854
Ni 1.6075124485916352 1.1312696716535877 1.8483089923568508 -1.7216695550594283 -0.15055043138846327 0.48115701693399066
Ni 3.5980047818300815 0.6320773189850102 0.8923303835305284 -1.3416355681207088 0.32976969146652885 -0.5086038002910338
Ni 8.69191918573867 3.6688521989612273 3.0044496991102334 -2.5696890545471875 -0.3652123485448549 -0.015956780439572518
Ni 0.3630041511168476 0.7162763198883492 6.666543757926681 1.7671942789641049 -0.14159707884991743 -0.5152791554286803
Ni 8.13550549390675 2.4244443942766964 10.146516035644787 0.5939942500423964 -2.015102873988768 -0.22123494238821897
P 7.744681588687104 2.0749900210461605 1.5188601282978358 -0.24967340023457002 0.09937545117654498 -0.8156174290079695
P 4.669564987272668 0.5876911423105958 9.793112667952673 0.21890500870346172 1.4453857513261816 -0.0998945569048086
P 1.217116568219381 2.488257316089856 9.543727712575683 -3.6855658242673943 -1.8464295077473494 2.6163350365405007
P 4.711083397469565 4.042806342260887 12.448162892671492 2.1889747537119915 0.016639665439210055 1.36841103644234
P 1.9729712291593886 1.0061468428957057 12.820551023322981 -1.360739121719379 -0.08942451061142018 0.9730720437154339
P 8.897399027150161 7.8846084942319115 10.802131929769889 -0.9594292561210185 0.3327817388199753 0.3335479275620385
P 2.740522134298746 6.588521341668949 10.454256596030707 -1.5434638238475418 -1.400214811216498 0.9263594701502434
P 5.405860773664519 7.2979632213310275 4.568306404734415 -0.67299242311417 -1.3410704396458581 0.43790283423104576
