# total energy = -340857.62241505436 ev
CRYSTAL
PRIMVEC
9.39723247275360 0.00000000000000 0.00000000000000
0.00000000000000 9.39723247275360 0.00000000000000
0.00000000000000 0.00000000000000 13.75379961068636
PRIMCOORD
 96 1
Ni 6.435469202032659 7.596196576426548 0.3195049681556924 0.16248343538062338 0.7298089178825817 -0.5547108790617415
Ni 3.5672552697707327 3.4301026601974005 10.643845966276553 1.2949831583694924 1.7277065052821277 -1.0789331026163225
Ni 0.22091108332379897 4.963590059527594 1.140594743304482 0.2545911492511615 0.39600105179093736 -0.35844906167909235
Ni 3.283543420806809 8.354412287521052 9.664231455487105 1.3820168001512327 -0.20068077238595117 0.770692286360505
Ni 3.8521699645054945 5.247640208864567 4.361949158312429 1.0871128102136374 -0.627290807311997 -0.9483616854529472
Ni 2.8806746626692057 -0.07152421664847855 3.4215737319035493 -0.7265929820484454 1.5286270159450255 -3.3562882419459354
Ni 1.6845761048265993 0.3208581696478856 0.7489669547846673 0.875098357982422 -0.3994100774724863 0.028221199629222364
Ni 9.174969239582293 9.418564302642238 12.807868877573272 -1.7952894945384243 -0.6050065419925 -0.8737996937756564
Ni 7.089779712438411 1.7985081526831992 4.658646103261856 1.8385477910064272 -0.891220203244949 0.28764936525771106
Ni 8.417307965210284 8.759677339967748 10.1111196702211 0.4463859320013925 -0.7385594103817023 0.38845126446813744
Ni 7.1696843811059034 8.555071394901619 3.045737992742281 -0.6239465734301125 0.5562689675774807 -0.08002301479186219
Ni 0.46905910557102004 4.832179159063499 9.358622175154371 -1.9050630011198415 0.0755004443311603 -1.445226600040498
Ni 4.578698207324474 3.01616396207505 0.30037878067610335 -0.060773936754263076 1.1767448088501733 -1.6137289879216918
Ni 1.3983457975299824 1.824162597639362 2.5607374218146184 0.688696207002672 -1.150284814886432 1.348200108712104
Ni 4.867306014465014 9.21277430627044 1.1241768382557962 -1.0844627741853 -0.6385018455364682 -0.6961045836516012
Ni 6.930731550942787 4.209913211771488 8.845398895605154 0.10586851510005638 0.9834271616975128 -0.7887388594495706
Ni 2.132420018114457 5.978049508741018 13.308837226108814 -2.225983726836173 1.251362336355748 -0.6491750089795981
Ni 5.191989797498121 1.0486747730542247 8.831232567483756 -0.8909908608429624 0.4756327446816518 0.4326030192846872
Ni 7.049343420626555 3.846437652628843 2.90971305107911 0.4284488879069976 -0.014420803411020327 1.4436374011765072
Ni 2.187788512503362 3.763121788533114 5.274486222912467 -0.649458601658288 -0.6577262409837188 0.8992371600121546
Ni 2.1420615787463335 5.165809107517216 10.69968620174121 0.41568233226994866 1.0253227734900343 1.525318777507399
Ni 5.834318836358413 4.219075513541546 11.343968925255854 0.7767739737782107 -0.03245400676364734 0.013681354141834502
Ni 2.404883379674524 4.579543958257096 7.787139885037819 0.5082248196850602 0.4300031197679949 -0.15601222583398291
Ni 3.25892267143496 2.5544873224225513 8.181365068644038 0.5497399082097113 0.28641857817440347 -0.31492465603389636
P 4.527567864831258 4.554556716814445 8.31194431402439 0.27784034958708925 -1.2053732712201435 -1.1649262189486904
P 8.174248544407664 6.188942202406294 9.201278671649606 0.1617054195640183 0.5396611838174706 -0.29125790854457584
P 1.5566985638143414 3.630000591738608 12.441040385844413 1.5518649034270435 2.443480285227882 -0.07991811378288172
P 5.760776094150747 5.33993043007866 0.1555035253646854 -1.8908908233845176 -0.5684228293311953 0.10044657275353668
P 3.7204959415290277 0.8346396448126325 12.184354038070756 -1.0439622429680924 1.0486437076041617 0.9315304728282215
P 7.99723287421014 7.352404171482325 12.082190144579947 1.1352117226033933 1.1646855636927942 0.00493420407682376
P 8.45177701433087 3.071438484138109 1.553134193494974 0.12517647140004892 0.8876972776933552 -0.7229157903071743
P 7.426181844504608 2.8521634590073015 6.7946934531539975 -1.2032397698169084 -2.37088750146182 0.19337292587062826
Ni 6.691261872987512 4.594833255672362 6.143946373344354 -0.5566008969956028 1.0655206858651585 -0.4287404510054874
Ni 9.130651890712965 2.9393791746256706 7.984836984707695 1.0565261956760321 2.3033597909234915 0.3551603636254915
Ni 1.9214521465885026 3.2402973564521345 0.773598041112359 0.8351444432973038 0.5540251658486265 -0.06194815956802234
Ni 9.366926509589447 8.09566888553461 7.380935109332657 0.5536757529290077 -0.326924765818566 0.9344944405525518
Ni 9.018026058185635 1.1294157954217525 6.443338444599066 -0.9692058758918082 -0.5691154845228457 0.8151289194073251
Ni 2.1969414170408355 6.577856070155655 3.3693645871096116 -1.0730036245057648 1.2196176969542996 -0.7487291518258524
Ni 9.085263257328984 7.4505488685966705 0.2681115031501047 1.6113574023657218 0.5458007210563052 1.6274450519562038
Ni 1.267940400952447 1.5487672995128758 12.146764168008799 2.399453743135287 -0.32874742084960157 -0.8769793770552186
Ni 3.391818334647434 1.5705688791093217 5.0855633193069005 -1.242208694880938 -0.5312050826303174 1.0732139407443582
Ni 8.030188968884596 5.272354930562262 11.448937892673191 1.049926173861011 -0.7252562655148929 -2.7240760860729214
Ni 8.897882439590564 6.466536452957595 2.884969197960402 -0.2993298869194329 -1.467628621884782 0.5345711708890728
Ni 6.427396979242423 0.5337599916397661 10.714980197772768 1.9490723168212558 -0.5328395329099468 0.5723134226348531
Ni 5.099239111887378 7.317070576963947 2.7025942860198384 -1.2205718333374527 0.34562825576534023 1.1051128463354838
Ni 0.5926421112920813 1.052659199670127 8.843569254420919 1.0505589223490035 -0.15077308892223068 0.07798850086033665
Ni 6.769813340162812 6.033709317340048 1.9978770200298892 0.40569128249550773 -0.830120250609835 0.9891964600811223
Ni 3.7963598001851095 4.694838604838473 12.399751765037129 0.9845815870169301 0.748080205387944 2.2303417466945525
Ni 9.027536057561326 3.060650461130902 13.019429714475319 0.5301735560420094 0.3700329098619498 0.5573467740226917
Ni 4.540667607054295 5.781835292373003 9.966787574953077 -1.4962354869881973 0.366124318836163 1.3960948755108538
Ni 5.299992191593791 1.3807447808988862 6.517582220357549 0.9277373243343765 0.461169003847838 -0.5710672089325779
Ni 5.096119230669267 2.494279253252538 3.997858080435487 -0.3282334573276605 -0.7440479443000992 3.062300850285339
Ni 4.701952309905073 6.386133730963115 6.0609556534960545 0.5211333002166122 -0.1989730456662251 1.8245069966426448
Ni 4.785615871606434 3.748978953493178 2.4376543488670617 -1.8925862088090695 2.8590808564173016 -1.7867896845975293
Ni 5.704918943667438 6.4364747059192196 8.128372194652538 1.771569268103349 -0.20364371166901704 0.4755769517430519
Ni 2.781261339155929 0.3721398075857157 7.814221769623594 0.11968922303323258 -1.1684049215259102 -0.7073888983161688
P 5.500905024254143 8.298235631129867 9.853470106107515 -0.364368769597637 -0.8706081834215522 -1.9408370733956573
P 3.5400126925077595 1.7796948930486798 1.5317056840321397 -0.9029927703998448 -1.7738971449055774 1.5256008275241921
P 2.7646094430158845 7.422733060146032 6.715512371395525 0.545250247869474 0.9951552487677183 0.4123918344441349
P 7.336861148787272 8.877311897462711 7.146336956749279 -0.6331115277588322 -0.9678033391173267 -1.0119895467162376
P 1.8924992729951189 7.592804175463481 1.2330794872330784 -0.36596671021237615 -0.8347466936382527 0.22462108525163252
P 6.475426234982697 2.567295750435463 10.05118036190301 0.05144134649942753 -0.826319645916822 0.5340122130618093
P -0.044184847889883506 1.2423423393917923 4.164279310617047 -0.6089346734023126 -0.017563205694743945 -0.4569966176377033
P 3.4397724125270313 6.865881248875945 11.540442505243206 -0.2982513091432734 -0.20906745378774963 0.7462323535459278
Ni 3.510467793261541 5.491150696831251 1.2246821201954126 0.8597308743874161 -0.10369721848035045 1.350433883138629
Ni 5.073894775606511 8.550673490051992 7.401965176133901 -0.17849652297942808 -0.20696840516687579 -0.17425497409425475
Ni 0.28288301304995533 8.462339503756047 3.096764025953808 2.0217859424358986 2.1024476192530246 -1.0646585949751795
Ni 2.33518410559399 8.60273415857109 12.473252219698164 -0.3765884515922805 -0.6437713214655235 -0.7432640149462232
Ni 6.058311272246727 6.856108126987882 11.345386027929624 0.9218888359733994 -1.3493864157107212 0.4734532205318298
Ni 5.040703750117437 8.638650381509718 12.217720791809164 -0.5168197604429228 0.1897456135306861 0.6830310382970947
Ni 7.5260556324145345 6.746480011655064 6.503580343806384 0.14904402204626588 0.5503394894669232 -0.2854449014072245
Ni 0.2780443779921062 3.725016010402257 3.1601831294980043 -0.2454580766016418 0.8580835685919802 1.2784039138545724
Ni 8.604604207855441 8.811174174531768 5.122409868271411 -2.072930326520198 -1.472129337968613 -0.3676952628677087
Ni 3.7398260489557047 8.075032562778665 4.827088678172381 1.3206941899823514 -0.9999647543412198 1.5444349295115594
Ni 4.45378079457639 3.674252159979842 6.283987692214215 -0.2788374233930359 0.35455384038974425 -0.19016264646344666
Ni 1.6315663158164473 9.152970318101568 5.6465677676561565 0.1298607642495957 -0.3422935349651524 -0.37530547111479884
Ni 5.538757077105214 1.9938390291882542 12.167862834607911 0.15479172316332052 0.08638006735814156 0.6772224020351175
Ni 7.836709347198721 5.654596763176503 13.57791664421514 -0.2874058817883373 -1.0083262389320375 0.7507328125194426
Ni 9.111819836613275 3.2453530675826894 5.476818037693104 0.3404724225960136 0.6506742192329439 -0.7920949204059972
Ni 0.49973731106695013 5.190232515004786 6.78510733619437 -1.3141049668006077 1.3249593930166084 -0.9297803229063342
Ni 8.895880829050029 1.0996359653609173 1.167138166463155 -0.8540939878166129 -0.8776206101836433 -0.05130224981840197
Ni 7.6978840302253175 1.0552434386309126 8.470030198903345 -1.6200973533418808 0.9920915222407299 0.8282821689598316
Ni 0.6786578003093873 7.0348622852135705 10.415449987199061 -1.3294295129728202 -0.38883744416296256 1.1095971073590825
Ni 6.978525875868445 3.3653745221541587 13.725067909258566 -1.917877122165374 0.01701196117696425 0.4246799077828687
Ni 5.801992356267132 1.59910827446898 2.019057442552488 1.6373648821730769 0.2577448643887948 -0.4760459209596704
Ni 3.225769234876227 1.4824416319302394 10.263126485341028 -1.8449284977217904 -4.187253614164885 -1.04112991572562
Ni 8.588563131833402 1.837779187654556 11.03338099109976 -0.6094103274871505 0.36748134708468966 -1.2941933154783454
Ni 2.0435034033982618 6.732929202267963 8.590279066503362 -0.4332866756152731 -0.24447205853928866 -0.8508752237689992
P 1.5195700978722901 1.8967186304256376 6.62898735237213 2.3685215723328046 0.885139801378824 0.16942207148198563
P 1.3235062372256305 9.020074654889093 10.137746728749779 -0.29732056979888793 -0.0450873792569417 1.0496155845991277
P 2.333041536564684 4.386083131036391 3.201210507239437 0.00623749626927958 -0.18380199435274153 -1.7353138853157404
P 0.5108401413657436 7.07015829080161 5.156698490526374 -0.20874940832669858 -0.7203624277577013 -0.36097259943189447
P 6.017865583202286 5.812366901040613 4.448515525159197 0.6183911908295221 0.2997775159798127 -1.9192305508694754
P 6.951264504140302 0.725796198400634 13.649821448783298 -0.5482113873803268 -0.21865895413092665 0.17041940239824846
P 5.3046626161883745 0.2560379387253142 4.396319536490878 0.1256223006882159 0.28982991784879764 -0.5188571025879258
P 1.238047804100596 2.965541070141406 10.041484297322143 0.2024612613251416 -1.4162921763943352 -0.2917376763944718
