# total energy = -340858.71365018794 ev
CRYSTAL
PRIMVEC
9.39031937284008 0.00000000000000 0.00000000000000
0.00000000000000 9.39031937284008 0.00000000000000
0.00000000000000 0.00000000000000 13.74368159017890
PRIMCOORD
 96 1
Ni 1.439742553135827 3.65643074423558 10.080619635327562 0.8232813733111306 -0.5540791590150135 0.25524523789539266
Ni 5.788305570391471 9.286546993785123 7.644235531226635 -1.7616062433533661 -0.5460894559413176 0.15105848137313338
Ni 8.61480110421204 2.4631183434715167 6.226836304103588 1.0297640970908395 2.053529810506399 0.8783302346561583
Ni 8.170188260615719 1.7927997824493032 13.023636825655979 -1.2705967591053278 -0.45793198496777904 -0.051404065503588885
Ni 7.224695779496635 5.683847657234307 8.320067148776587 -0.04900034115810271 -0.6833182305202102 0.6520690426979415
Ni 0.6779012439487161 3.9476808911685763 4.8089140361892015 -0.11451719191398986 0.17089557070371858 0.5263989194909258
Ni 6.64713479364221 5.15645914800688 1.7935641544495722 0.562879788025779 1.9939470658467597 0.31654625079771936
Ni 6.4393458056575135 3.5312202251743035 3.924068933003016 0.20011847212457795 -0.09412320163867016 0.25433712425882654
Ni 2.9212156857458034 6.607704842424398 13.022289314820123 0.6381832858547848 0.258259085021052 -1.5400218880455283
Ni 2.3891789684086326 8.761759603035271 11.633092033992016 -1.684572135986499 3.931537864390978 1.7950876629402632
Ni 5.0487521843326 5.45598216634328 3.9807751938780154 0.7676563277476586 0.7727913349813789 -0.5653925271453037
Ni 1.0653880793922488 5.668785584894851 11.142346429180437 0.15000458618732232 0.6452931574266887 0.1411641050775569
Ni 0.43903687192851043 2.1519513290622223 8.455374139271395 0.830908550839085 -0.12328182548049738 -0.10381986010114379
Ni 3.9979472709897115 2.6856970845326726 2.4975432544418665 1.2106846561307278 0.2995965103172582 2.5044485973811383
Ni 6.464680887435474 3.928505858925954 10.564286817365149 1.9313800417478155 -0.24127489175822964 1.7800922179726955
Ni 4.708925915072921 2.432421389308377 7.769000949147706 1.2744546993988373 -0.7621791066831712 -0.7905882539534835
Ni 0.9393136509449181 5.911534732056474 13.735793015793657 -1.1905218080296078 -1.3485549209483614 0.5578496818010393
Ni 3.4008262497967054 2.1629380027761633 0.4693441278359854 0.2955264540129427 0.1299821203188084 -2.039317523561759
Ni 3.7075704237621823 8.386653903738605 0.34727654868244867 -1.2103995207901415 -0.13374235869218903 2.3702367552516983
Ni 2.8476894847371192 4.287666795858287 12.49696479779981 -1.2335543616400497 -1.3774993718968533 0.11678567623319243
Ni 7.996796012643131 9.268301603164451 2.978105057849368 -2.1456493514514787 -1.3330552826508655 0.06712301890074246
Ni 5.43989654918774 0.5276974507361345 2.735693962186637 -0.02448898628029976 0.13062361055754923 -0.7514126121952865
Ni 5.863484467616955 8.911535197682593 4.883116340195667 0.9292941272985351 -0.2841470085314074 -0.3495589582783141
Ni 6.1013600390029055 3.0611032740505766 1.3500790882148275 -0.8436501667754696 -1.8645200467004728 -0.8877235029456002
P 5.577455338277934 3.9280832945523407 8.76317754126673 -0.5568166125508346 2.0500279680007276 -0.7209846347227326
P 0.042661160128040165 0.6591309344728208 4.207916691142251 1.093216094897898 0.6698680185525754 1.447251858000643
P 8.286750295497047 5.624266080554856 10.292615486409561 6.137574972901894 -2.374783751192433 -1.4649816711802381
P 6.154856688702328 7.561939710917566 8.888286644878338 -0.1390303465640057 0.27603389250596977 0.8922123919548893
P 4.663110546653845 1.436756431562294 11.139446698545509 -0.24362925092301912 -0.554929937051083 -0.7175092745796224
P 6.990426090765516 1.0166241506772937 1.0992167050798332 -0.11977792609229694 0.7661193222778419 -0.19589723495437875
P 3.2072354247654102 7.187134501842134 7.189938451219043 -0.5071223306495007 -0.5362992093237732 1.202380764250723
P 4.512733971564052 4.497587386349876 0.3889254323777001 1.1740114690794101 -1.4917525115161792 -0.8962048009437339
Ni 8.799180025898568 3.587205309518336 0.9373642206346497 0.8287557661621404 2.1676991321626664 -1.8466645065762903
Ni 4.100010652696402 5.33089372143438 6.10602890581536 1.1534025345798071 -0.6534921482977132 1.248425108104295
Ni 7.7121284796190865 3.254609586207149 8.489733318005849 -0.6984725696631455 -0.29746866534097804 -0.4205885113223144
Ni 1.7534261731479732 8.082360603140083 5.003153732291978 -0.507294594561307 2.095280926301256 0.030505881898341008
Ni 6.785238221258394 4.3449477442813995 12.989208158557863 1.9773338827701108 2.1529582264080664 1.0514649791030408
Ni 6.716745231455413 6.290096068897356 11.0666736011538 -2.9575852178428033 3.1080376902008213 2.0349394490987214
Ni 7.510330515420283 6.16651946541405 4.234372977058198 -1.1637941622267765 0.08554265905851074 0.3112986292455348
Ni 6.404441988397069 1.5064326016113923 9.757436768196593 -2.45685130721815 0.7168032496515333 -1.1394854102780827
Ni 0.24903127084933752 0.47454354769530965 6.599427275861287 0.8336748007303127 -0.9151723431851723 0.27794730747859875
Ni 1.3496706093203348 8.967050766055944 2.4956464099203144 0.40168910331465013 -0.8581342193242576 1.5632322647237207
Ni 9.153213848431061 0.4172729286235515 1.1511958791620136 -0.6941538876831336 2.4443153795346677 -3.155148270535379
Ni 3.520036354752676 8.062932032273293 3.2665568895971044 0.653789624933474 0.2841315819124397 -1.8692866148511809
Ni 6.242271172123764 7.088536147999071 6.783798685292285 -0.29139931921844653 -0.44612033704483167 -2.2768257491887045
Ni 2.774679751296184 1.5858747038506606 7.205716065897816 -2.322386211427323 -0.8447868514830742 -2.751145688596204
Ni 4.840155628878333 5.246531091822372 12.037871142635739 -0.08244936484516767 0.46244221413330683 1.0977435504546063
Ni 3.21065350103197 8.787921032921632 8.842340751019412 2.4691149550768507 -5.985705308481375 -2.4794271356361364
Ni 8.23808966029564 8.463588790694434 5.2747978313212665 0.4237656234987154 -1.4365349858037713 0.5955626229707808
Ni 9.233876692194102 3.7842142108161907 12.063516104954351 -0.2158659647668218 0.5334697102947781 0.2695922506456841
Ni 1.9363026437283217 2.016176700660617 4.16550343544673 0.5555714272898238 -1.8151926612202542 0.9636798038672566
Ni 4.500535946645754 8.473166916496332 10.779554255730858 1.71515900763442 0.16612540300858486 -1.027480186152669
Ni 4.733782090560788 5.798522237913496 9.83133670391794 -0.8953062003888644 1.1193536725252142 -1.8574672536187495
Ni 8.36478384982427 2.0465731646025214 10.540290795135572 2.369242252548913 0.20525656468209166 1.0098511602169962
Ni 8.732320951673557 4.993405641708694 6.389890749433715 -1.6995812078008214 0.35534574016342024 -0.688776168310988
Ni 2.7674398150282786 5.061363383305099 8.07477040795805 0.7140796800727831 -1.263970769148378 0.7900588638125747
P 6.53888319144194 4.714869987261746 5.9711078574484535 0.04631071014108153 1.1926352548281847 -0.5922651831664316
P 8.454001274573123 4.427000355317656 3.2415298102959103 -0.09812178127510197 0.14241263277267732 -0.13078918960113603
P 8.099685742458222 5.854037806286847 13.67863320249098 0.5867761350274023 0.5554580416404111 0.7934223809681691
P 1.8536021006525254 6.25845069247344 2.298726716656889 0.27947737096987996 1.0305680810493736 -1.349668208617198
P 5.706487717340557 7.815262357738931 12.411465000506814 -0.00781589649999299 -0.9645907457173001 1.6883532002954855
P 3.5240272405034663 3.956958526749238 4.4235963645302165 1.9710637334906826 -1.7398120302964104 1.8754922294412604
P 3.2098177626041573 0.6891630540214767 2.156809880326832 0.2692400095125879 -0.6052780504863318 -0.7021826715248811
P 9.13699676680373 7.7892793439214305 7.59816662418339 0.5670717146199395 0.5020318035004708 -0.41714374730682346
Ni 6.891123462966431 9.213969215037215 11.288895510077236 -0.25927569921102445 0.9019031368800918 -0.20384374349496506
Ni 1.375371913555427 6.280527333414873 6.416457841118743 -0.5592231651097982 -0.18603525455863443 0.10624800992666217
Ni 8.044301638556659 9.313440868585745 9.240262109395365 0.3872374466656944 -0.906684103208503 -1.7815302359708027
Ni 9.092768362365556 7.670679609727345 1.1472472498485842 0.0034748459224778865 -3.0137787343152356 0.3727953030984354
Ni 4.7762732859074415 1.8150736200984217 4.94129312509084 -0.12263570725606622 1.5328886194348568 -0.16611460437530745
Ni 2.7023555111724433 5.9931272174414625 4.337410134888082 0.05966039197511015 0.20294977092578595 -0.30486264381220396
Ni 8.153539224295361 2.368144652922113 2.562728973747369 -0.09678043675585912 -2.0296098093556916 2.2099289873661556
Ni 0.47117805721746636 6.25725812190791 3.908070645818023 -1.5109311413271589 0.022295321063090633 0.05137269804502121
Ni 1.312672750830652 6.677634551097664 8.83846536619741 0.6927022428382715 2.333793167712684 0.3700917881243433
Ni 8.340913657874836 8.162816859876022 12.631253877670181 0.24865935714775889 -1.1487802053164473 0.23775428019948086
Ni 1.2168069799369534 9.302660781898904 8.951877887947408 -3.1471197438039478 0.7927934891349184 -0.10675554569070003
Ni 0.1861302162571698 4.803749360511708 8.481225688617105 -0.2709824461249914 -0.7725730483229856 0.5611913445797626
Ni 1.2741536605959618 1.9385938816652462 1.834548203530339 0.680926333249266 1.196252539865798 0.4524781609420594
Ni 3.9284025654124037 6.169815467528232 1.493044823223387 0.21298658633649772 0.8445202280852487 1.3937577427372447
Ni 7.161423807287628 1.3739070237269013 5.028331995735731 -0.08256120783268361 -0.2041579323012742 -0.9645169550565711
Ni 3.243247299716663 1.3134333667031557 9.331052412646 -0.009497912188106222 4.433047219729074 3.92375744911461
Ni 1.1881946766836378 1.7788175968424151 13.094402272757057 0.033507387728826166 -0.444825272382492 0.1680683856675686
Ni 0.2648652274445922 7.89025344857614 10.5666512997935 -1.0334196915655558 -0.006701066169259426 0.802243835914541
Ni 6.645763807007821 8.356492197782039 0.6094157664012656 -0.661991444017976 -0.739744688939055 1.0558140001003558
Ni 5.709614693705294 2.6219743769918127 12.54938343883055 -1.5211407348703094 -1.605973255235673 -0.010791434188549156
Ni 4.904385413667528 0.41462861467667467 13.083284134571324 1.5092280425931233 1.2985464502407185 -1.3243968356449192
Ni 3.986115468528544 3.5297459450263644 10.279861554581977 -0.17158771167473674 -0.4774919093775777 0.188115791236747
Ni 4.185678536706904 7.672726699359515 5.395618376056674 -0.5220085037327139 -1.0523324693096585 1.2768612519578009
Ni 2.1533223156966113 4.078741579224542 3.0147592306485125 -2.0609790676955924 0.937249891810502 -3.639417864956422
P 1.599133834862699 1.7998237413706948 11.029648510737815 -0.3937497938629154 -0.4160248032110319 -1.134009731875492
P 0.9641510457939566 8.526485150126895 13.259491600304116 0.21874560030746198 0.2005401330430288 0.6586351259512334
P 3.431786132903427 0.3371537843545609 5.265561513146025 -1.1515377134569265 -0.9121723800165839 0.5587773358216311
P 2.805395486098152 7.0742253012127065 10.75260309998181 0.1296460771356283 -3.762669865640249 -2.0677909484111034
P 5.873672964180738 7.252772834543374 3.010168303487191 -0.191150978518645 1.1145215412438936 -0.30624821130582097
P 7.070910518459696 1.408472789488455 7.387627211642443 1.3675911116442059 1.388795513635963 -0.24169603845604826
P 1.5033244058854824 3.5347697659126536 6.990545347822069 -0.6878078908604477 -0.054540554250041555 -0.08904244468165311
P 1.6310233595913701 3.723515186126518 0.5088210306508654 -0.7684299726888896 -0.346553595793087 0.22210011860199166
