# total energy = -381176.37772505416 ev
CRYSTAL
PRIMVEC
9.15446392357663 0.00000000000000 0.00000000000000
0.00000000000000 9.15446392357663 0.00000000000000
0.00000000000000 0.00000000000000 13.39848329955034
PRIMCOORD
 96 1
Ni 0.7104623941559924 5.147079116401446 7.672882721690865 0.8895021921125779 -2.012642585373734 1.1619766494020634
Ni 1.7554874941280192 7.734075736790226 5.647970195415446 -0.4354651713238307 1.0276010280012495 -1.2353194239602725
Ni 2.1767942397189817 2.0238139905865977 9.383869450511156 2.11420758800243 1.1843987258510056 -0.06849315977539172
Ni 3.3213585739014775 4.378506930646051 2.7798637849358427 1.2419695822869385 -1.090522607226135 -0.4859927477597372
Ni 4.137451582662451 5.475962392706277 8.47322822135259 0.16637531423586188 0.44307640801218534 -0.5827428454982931
Ni 6.561700140752413 6.10703452807759 7.997206159440681 0.1362612684593008 0.5087069015278013 -0.5576375657902332
Ni 1.822003830086125 6.627978460644608 12.020891555276025 0.7913806679477919 -0.2555720251071921 -0.3968847399474713
Ni 5.500249185893293 3.9262672509507066 7.487957054727569 -0.20128138208442753 0.23454091546850575 0.5579088171737487
Ni 8.172565411447161 1.8003535225522795 5.1739447221179695 0.45058171525029495 -0.8373429936105192 0.5121357247036922
Ni 5.784367132878671 5.930747013414057 12.285351206109954 1.115805807272956 0.3158451109656367 -0.999559548483001
Ni 7.928589789424113 1.1930189125235713 7.76586827507111 1.0479412822204985 -1.1139762102633848 -1.4946586294193807
Ni 7.671523283775949 4.466545411640972 2.71052695859669 1.2084727360810736 0.689577838276677 -1.3061851977328987
Ni 6.217913396935913 0.9398613630347947 3.8285634867869756 -0.01355999807262181 -0.8153993994598924 -0.3042445506122309
Ni 5.913106361144408 2.0513872363760024 6.170940010881932 0.43653037936355144 -0.7276545905437404 -0.4139409240988097
Ni 3.768810468886377 8.448078162203444 4.170023165835991 -0.26389082938553265 1.1104854235013069 1.4912138654038898
Ni 8.329372226562272 7.860160170474645 8.52000204008977 0.11264131504751568 0.18525955273487452 0.23105372825085368
Ni 9.237769696576422 2.9800343809207503 9.05141227143203 -0.9217710794486125 0.19875758722130932 -0.45259591746684635
Ni 6.622485782200504 7.25215728456857 10.359479911199404 0.23853178179545373 -1.2383366135200415 0.5225312090054034
Ni 0.9619510848441685 5.047625018706861 2.667182402101446 -1.4242793083648697 -1.1193282186039175 2.2135827820686584
Ni 5.965982545632987 7.364134689115715 4.4567107708868035 0.31473953660628373 0.045836598718140414 -1.1725922201343806
Ni 7.674644956025015 1.078002225904023 10.078393007268765 0.9444410102423024 -0.07893903769906405 3.063056754614757
Ni 8.184978864730839 2.02254152008038 2.728922854152403 -2.1293752968818036 0.8622497841545279 2.697982217199347
Ni 4.342831984151592 0.8397197650882889 13.034982805697263 -1.3116914722631088 0.8241133822941226 1.2581881010283298
Ni 2.9458149942139795 3.60373717271289 7.371885773846753 0.34363616503597594 0.29593577363621937 -0.7196409762106445
P 4.5710344645759875 7.585901581296433 9.341235280428018 0.9373311386703985 -0.5186696691674679 -0.29851407588635687
Ni 2.1417601057096682 4.318462800787915 9.50044971959446 -0.43408808847064595 1.0547937863659576 1.5566042178842419
P 0.8516873959715853 4.678608571903774 11.738491901197245 0.6304977442850689 -0.6723879567609518 0.7019854679124103
Ni 6.0500846070762995 -0.1204828171178396 9.07286392709548 -0.7258920993266789 1.2672584387607142 -1.714134680134964
P 7.02331399165903 8.553803067788381 2.1540737753349433 -0.031753381152196926 -0.3034847896280709 1.5280837418470457
P 3.9657687634278913 6.48299921311247 13.155609347901057 -1.3709571999029615 -0.5463295969765818 1.4710741572312214
P 2.497896221561331 6.047493893743498 6.651087989751771 1.3381200987682826 -1.5259360993764237 0.6149988773185215
Ni 7.837475408500493 3.4300952981666 6.946832106110504 -0.4828593443370781 1.250386345595724 1.1386924820631423
Ni 8.765582439664906 4.2613480994333015 5.0167671512078815 1.1782103376521063 0.40395398808942684 -1.0372820027344394
Ni 4.6246246972623 0.2902459452361848 1.9464642618439034 2.9903837524300627 -0.969435732514427 0.4665189553058417
Ni 4.21971359682699 3.8423208153966426 0.41517874734015636 0.6208152268899825 0.9236135319739899 -1.258372192014678
Ni 4.222789496755689 6.985139876472504 2.5190082466076538 0.4324544095219649 -1.2718992799668354 -0.8428055593869872
Ni 2.026258232494224 3.7908727273035305 4.789596378884571 0.16833655172729073 -0.5567513065305378 -0.02107276150989919
Ni 7.791959413127014 7.17769487379466 12.62433277173427 -0.689346181881845 -1.411967323766736 -0.375743844203798
Ni 6.145135407551528 5.474113190963428 1.1076324797707446 -0.9282091217644725 1.597973267749332 3.2081932140765006
Ni 8.054051719551534 3.8306671826310676 11.09604809055382 -1.5000306923645714 1.5521749784682946 -1.1264501743606794
Ni 3.974200024839592 5.016014654261039 11.313397953819072 -1.809219731466271 -0.4079237713704523 -0.27501187899935864
Ni 4.223613398522303 2.259486513694975 4.008960440373107 -1.08898945841106 -0.7682065438241737 0.18857319048913976
Ni 6.497124551177892 2.4806675201749897 8.975844916844446 -1.7131484049622945 1.3715711793378764 -0.19943944377968234
Ni 8.902249433818298 5.104419313818902 0.32214375985391436 -0.22463214099522602 -0.02026749199978445 0.10789685838399482
Ni 6.803240675331909 4.104056097722296 -0.30431269473153644 0.786034316034214 -2.9151815560656114 -0.7465023193778627
Ni 2.7365714088858186 6.701992302678916 9.681341929686969 -1.5080643613023252 -0.4828734854044651 2.8000136179415005
Ni 5.840319217295949 2.9758690997673045 2.2018930338693172 -0.7313058141430824 -0.33711559030863875 -1.39609513262117
Ni 0.6075625561841386 0.5673497418484422 9.452818127573595 -0.9351040491120928 -1.8449176990885128 -0.09764972673468988
Ni 0.918796941201654 2.6249693373656884 6.681046888878732 -1.0241218112033974 0.19243550165802345 0.10606597582284313
Ni 2.3165462882651475 5.947417292491913 1.3405449319609593 2.04520226447731 1.1331460983236161 -2.348407060971117
Ni 8.822532360666195 6.423110709143583 6.296683898502816 -1.7870380531629095 1.8625816920271796 -1.5522947918756105
Ni 0.9757193988107237 0.6680982807630217 4.231414832805746 0.007736192301993129 0.378673102035451 0.584878146673741
Ni 6.832104700555679 0.9380213157560199 0.7281588886564897 -1.3129523412534034 0.7976040231496844 0.51393498269596
Ni 2.84334907783921 2.6056534181705877 11.830498842368032 0.18436789415854055 0.9708961191100376 0.5040112958243449
Ni 1.8007197011152198 3.7713554098988125 0.3768151347473085 -0.23111697738862133 0.5590511583083081 -0.6850416409692203
Ni 0.5662246582138081 7.296666288893964 0.4569469051219417 -0.1205076051694699 0.8755125627017052 0.4905500281131165
P 4.0660009905687255 3.2752750017554413 9.728210039404106 0.4530474031819681 -0.09157858083994551 -0.6534862347604422
Ni 1.1408384673045786 2.5281517253242733 2.214796250980926 0.9663020719814518 1.7598856611178335 3.496162424567476
P 7.986656555042372 4.880491968116835 8.987541575591168 -0.26085461366237006 -0.9374247268254695 -0.5247606125565544
Ni 8.648002503104774 0.07463085291286257 12.875875473760482 1.0521247241742269 1.2906007130310804 -1.0439388459293246
P 2.4711560320026154 1.6987115079441257 5.457363268048132 1.345829037376766 1.5905880310288543 -1.9252901267999942
P 0.3257149162889896 6.652475806505315 4.184038650332531 0.05363501171663666 -1.379124309094786 0.3130942876933769
P 7.369398505957981 1.9725032194545882 12.164201944007564 0.23748868524292002 0.1644729550068264 0.19551234081113425
Ni 6.604561341544577 3.3802126234300576 4.307880240318941 -0.15385018518565763 -2.5791352875617517 0.14206707650780048
Ni 2.9354521408827687 5.942071085472985 4.432459680109674 -0.1303040224346014 0.9944422818610937 0.3799560825129327
Ni 5.9726469954785 4.800967138710275 9.962576220489193 0.38935603567059396 -0.018573392126813172 -0.14828271840020912
Ni 2.1050140869186094 9.366847640012878 11.575646801579248 -0.48986817155474344 0.15897465089641652 0.2520311018334692
Ni 4.360866278376402 7.8620826079300805 11.522695550485265 -1.2972907234567463 0.020964518066809056 -0.3142345719454072
Ni 2.627614977482932 0.6552884391849626 2.541611533851551 -2.0743061238218017 0.8939201186746153 0.19612914845952673
Ni 6.157439007266323 9.236396526965395 11.929486977841275 1.9953825127417055 0.07639570245192004 -0.8674174443983963
Ni 5.722482955741761 7.822571940988823 0.6055952618547419 -0.32718059058311394 -0.21156553761925498 -1.016206670121379
Ni 4.42543271348685 1.60030101915392 7.8965839521303165 -0.7825059911659814 0.1446466643095186 1.026260454812955
Ni 9.154464073507504e-05 6.1402194603440545 10.261095054908605 0.6125272758495773 0.6179849565300389 0.23303013525093416
Ni 8.530706354930922 2.540162382188715 0.6156981284062647 -0.4593818300404282 1.7760411878317734 -1.5889288981588765
Ni 1.3076511116520322 1.4489228012344 0.4393337162445133 2.7016185284003535 -2.491804940475199 -2.9587494133542336
Ni 8.379547844149167 6.739836857158796 2.273253912215123 -1.1230267505014273 0.5348339376321564 -0.1011878217949354
Ni 8.070456519171259 8.451739947832847 4.17985780659016 0.8197635899658592 -0.0782165577107427 0.39911182950577717
Ni 4.678590262975626 4.143182277172467 5.394524280308354 -3.3041573255786516 -0.42473415805957176 -1.270069425846948
Ni 2.650034259998952 8.206134831204714 0.363247303543963 1.2370045249721793 0.7596257441336982 0.44050864728500905
Ni 6.573985431539062 5.137604246085366 5.529419885663524 2.849955497077266 2.695782895555183 1.6188226003945154
Ni 6.855137332164624 8.211883834642876 6.601138487427492 1.7530886928006584 -1.1724325546280647 1.0326288202331442
Ni 5.498930943066707 2.9120258673186634 11.404440929922918 0.5047255482825501 0.8299114770331385 0.9499701675906479
Ni 2.781355047133417 9.01779707935411 9.265801581015909 1.7266515816550523 -0.4957688533098945 0.5574961551163625
Ni 2.053227283654777 0.5676765562158664 7.092004512834594 -0.4921405125286879 -0.4458218319678064 1.2272754706098734
Ni 1.5171784853664718 7.472624242850851 8.084176314478224 -1.2368006364914894 0.1383304922835037 -1.285351034596367
Ni 4.012841017693867 8.27197373682138 7.236333793417512 -0.016318020433733187 0.7080722975364386 0.41331768869251395
Ni 9.08262899392269 0.22578661735539643 1.8847915528270909 0.6506441373259569 -1.6426513273829968 -0.2330288496993535
Ni 4.834188688833033 6.416629348579541 6.228687285704025 -1.3937837108791737 -0.3923248884909308 0.3554601542540975
P 5.748966820306418 5.38232137969837 3.4947798258635965 -0.7979382665606516 -0.26451020813708637 -1.0362142235915575
Ni 4.239569629402427 1.171579157663417 10.804952611051613 -0.11883870210747921 -1.7503137011586822 -2.557048225854725
P 8.582667093012152 8.337126057632533 10.843151443291138 0.2827287880276421 -0.6873304370033969 -0.29128567645871767
Ni 0.5284570012321456 2.411020357503745 11.613738526589113 0.7192463118753871 -1.268119758319745 0.15291636051747856
P 9.097596542682874 8.935901243752511 6.438360215397233 -0.512351183148608 0.057843907591661664 -0.06939741675721597
P 5.379007463703759 9.145941267455067 5.683462968074842 -2.484854477299295 1.2659646596499552 -1.1670237249076674
P 3.779841598094954 2.162028089168414 1.528565723227508 -0.48896468590386755 0.8964943071596948 0.1916266326034829
Ni 1.559691816523841 7.829492715828395 2.8504199858895873 0.07174072017841193 -1.3192944814213472 -0.047875740635356254
