# total energy = -381159.3574503047 ev
CRYSTAL
PRIMVEC
9.31268567017941 0.00000000000000 0.00000000000000

0.00000000000000 9.31268567017941 0.00000000000000

0.00000000000000 0.00000000000000 13.63005681900541

PRIMCOORD
 96 1
Ni 7.3497389562132405 8.156189574915802 1.1485558424203122 0.0005021364473991352 0.627510379521971 1.2923688606750967
Ni 7.31933303834006 7.580730805195288 8.915774104277848 0.4593890291292798 3.324872703749132 -2.358769378042047
Ni 1.8880724659860582 1.3875342504124786 0.21683656715440994 1.8697383576766187 -1.2409323992716756 0.22878704370386407
Ni 6.080345432949055 8.737496711075629 5.412031739513406 -0.971238847161437 -0.8060881493612956 0.6804830750642603
Ni 3.840607340400343 5.518296930223144 6.515412676264188 -0.36651049853098816 0.27164579074060313 0.13280442025895192
Ni 1.7627702837552308 8.021705084867836 0.7105066772359616 1.312591358369559 0.838406401878027 0.6984453159696359
Ni 1.1645792489417808 0.2957196689445417 7.417067809211564 0.13844130682975514 0.6579740953284668 -0.7374420089478074
Ni 8.63910818968814 2.4933132036570878 1.23509862796257 -2.2043545786021714 -1.1394111053967215 -1.6400177464148917
Ni 5.681995314411437 0.3201747808388675 7.674757264735368 1.6011408668440361 -0.48052144023252086 1.4303314280962205
Ni 3.534322429854844 0.773306771317982 8.647221401219873 0.3541524911862675 -0.2652221466024465 -0.7603777918083744
Ni 8.645962326152047 2.235687074394092 3.697029944315203 0.5133014628770192 -2.2289590074144128 0.45333536673603214
Ni 6.456242666956124 6.49141667976072 10.3322233116289 -1.2516117333623928 -2.779890879049696 3.2704599333262063
Ni 3.055734213799515 5.076987393875731 8.631560258160967 2.0414224857199037 0.8534157308026656 2.1334870050573325
Ni 0.026780489441931656 7.736504094097186 7.951502337151087 0.4638894881027947 -1.114682749412106 -0.41696634118869486
Ni 7.295725380818309 1.3482067799137212 12.71021846308635 0.8071237897146616 -0.2669077618349855 -0.32690573965517244
Ni 7.202775467711964 3.9365186874679976 7.267981959704683 1.6909137619338106 -1.0057427944755775 -0.06268220952056947
Ni 6.127318618171819 3.3420247887634766 13.568434574925163 0.1386058574320774 -0.7447061467093885 -1.8425836516386975
Ni 1.7343293425041757 8.666431608689644 12.124671261258019 -0.21649099994533036 1.9612356916566673 1.231765388060427
Ni 7.556666826088304 6.217837920385393 6.866359363512966 -0.47683962050555945 0.7320069539751651 0.04461506760621349
Ni 2.9994855939054834 3.7831946348296963 5.096987317068516 -0.9033280422520764 -2.34000366739877 1.1697591215609595
Ni 1.6016235753700774 8.26866818933304 5.0375193018272375 -1.1750319399241247 -1.2052357172010149 0.08287102576361857
Ni 8.05868575864254 6.30559135503133 2.6580248080183067 -1.5779739418092693 0.2926437331485089 -1.2043533145960612
Ni 3.130347449327824 3.7394622641306277 2.815411054033723 -0.8659035788570313 -1.2341297745275457 -0.8704526316802944
Ni 3.028895054439482 7.493126373515957 2.7932207872318195 -0.628682288342885 -0.6457775532622749 0.22057391176545238
P 8.124759261647199 8.075206462565056 11.468874748285875 0.32052888959455117 1.2901564264048102 -1.1913263062087742
Ni 4.605569945588349 2.0303144229829853 1.5813591719115654 -1.432360028490475 -0.9590214791596388 1.193273916853448
P 3.817763323082452 3.1413550434858943 -0.12983746002691907 -0.18440003294805662 -0.6681407514488235 -0.8388769137565424
Ni 0.14479177026298468 2.098557781688857 12.688900794907637 0.2502477846808013 1.931394697035835 -2.4392726749044376
P 0.5631595060956719 4.24824220629464 5.027214815417842 -1.187839118991122 -1.4709360889914602 -0.2621486498834453
P 1.0622328362537992 2.0193627049373926 10.557636862048607 0.13510401492640603 0.4007599066321614 -0.27932516166273186
P 6.5266838194194445 0.7807308441291612 1.606206347861775 -0.7766145653822109 0.3557447753740518 -1.1324845534802173
Ni 6.426460699005609 6.171935693985115 4.749815992486137 -0.2778940856431601 0.3880095489450285 0.3120324220877658
Ni 4.346518975457177 8.690272083346716 1.3011264988087081 1.15163644381832 1.06974706524168 -0.5652197490128653
Ni 4.5392170620213 4.7027757559284 1.221310265940202 -0.4386075736075543 1.2922307924353358 -0.2712868647392876
Ni 6.9348960718093435 2.0054868036721434 5.307435382029664 1.632266127493931 0.6858276272056253 7.174183089497761
Ni 6.393801111262501 3.357623536830116 2.1220639309396065 1.804836514796911 -0.06551427965272588 1.9146010225172643
Ni 1.9705176699466316 8.533278832655725 9.668644187457177 0.916953089234679 0.8724197827089942 -2.051866049650731
Ni 0.7577396863817464 4.935853646442941 10.713769620607446 0.7403794943095765 -1.2687131689293698 -0.03617079349360222
Ni 5.479230214915948 4.918438924720781 8.411721281229433 -0.1202929180555025 0.9085342690433643 0.7148229859967109
Ni 3.2506580321773266 5.171045516546214 11.305027361130977 2.163203301174842 1.682022887202084 -1.351627646336414
Ni 3.5790698832639207 3.188104724258748 9.941967779252192 0.45049584040470797 -0.5719511541994278 -0.5507727203495999
Ni 6.218424619566408 1.3524254264057733 3.6472396717550306 -3.1798249473464524 -1.8465842881576586 -4.332343022438777
Ni 1.2520812410815696 5.65233441137129 3.4351153234195575 4.085817938025202 -0.8146244689670809 -1.5853591785297472
Ni 1.1692542170190663 2.221745984330952 2.439753156041766 1.9474952021421235 -0.055573366389930094 0.8793743596499565
Ni 8.553729489822496 5.420355417735474 9.051188931598563 -0.77468932333504 0.25371774550727266 -0.4758021803799805
Ni 7.004340766933482 5.599037912753153 0.6387701302317039 0.2655437916079233 -0.41025781882026763 0.5208633343846771
Ni 3.1187997194158035 1.0034046025003887 11.102730689711757 -3.0246362458550298 1.96286397128871 1.3317920996677257
Ni 9.20329861005902 6.7585044974032416 0.5478447949341263 -0.6949892391002354 -0.9466148779651697 -0.09619885322077626
Ni 0.712661632640511 7.7077651469129185 2.8052704708875953 -1.4872299410554772 2.5792892966411127 -0.1494811095836845
Ni 3.7861933195326563 7.748647835875634 5.07245304734818 1.2334484321898047 0.05356379215906904 0.5521390045695072
Ni 2.266223369863054 3.4494745530577378 11.881647422722482 -1.0960738760616673 -2.9576803486597707 1.3908948193671529
Ni 5.4209514296018995 2.306668362611362 11.342428968286342 -0.2958241877590196 0.821788847926004 0.013096942393274217
Ni 9.142309833289813 4.245308710389572 2.5357222417589806 -0.5162330347015174 -0.1087142120789676 -0.4142638546558672
Ni 1.5911840550221952 1.1487663091106441 5.13126638080493 2.0483220410532144 0.06279148140492412 -1.854702546389419
Ni 2.601675611121815 0.5177238452345806 2.384537312960027 0.43356872563206617 -0.3991797066292351 1.2417520669594937
Ni 2.7574861507653656 7.7598603091127885 7.3021390272621876 0.07325432860946093 -0.08422471157803559 0.5123157019249822
P 8.929980605875256 4.224755613683259 13.341767537048877 -0.47695352037560435 0.48609250656239517 0.14294382268579897
Ni 7.497596462514158 3.929543486093721 4.342958735823818 -0.4750516753672012 2.9961959882364653 0.3053593809429644
P 1.4963902302040908 6.497963497606002 8.907787545267729 -0.25687248908617055 0.0017941157859452973 0.40970863118501694
Ni 9.836523967395872 2.4494690807330644 6.421882582856617 -1.7725516866212763 1.6436563716087433 -0.45200302107785384
P 4.464696953347121 8.612483222092603 12.452787900217025 -0.5665112141307791 -1.2830380701924742 -0.34637259013053245
P 6.098616921729202 4.248605401025745 10.754577808086857 0.4015952580492632 0.6368224009515162 -0.8922193339334247
P 3.942665059840524 1.761727262988984 4.087585345162207 -1.0953506247423974 0.5933753855114748 -1.116040034770949
Ni 5.491969968560821 5.390862143032758 12.513768295569362 -0.8755814682664276 -0.08530611756767244 -1.0355493363140489
Ni 1.185756295570759 4.6805463758477615 7.735820542987878 -2.3983206579721084 -1.1205680045482898 -1.1771554140250309
Ni 5.343190506404025 7.346703020768629 3.066149521165324 0.5233331360814084 0.8388311481202716 -0.4997242384132168
Ni 7.578495760696187 8.51753108162248 3.711900440382552 0.9383588086039645 0.12230403494826031 -1.9455277940031075
Ni 3.7601271130618956 5.575085685871126 4.0439693830308 1.3878891997716098 1.3303183433356767 -0.35332073931359154
Ni 3.9086644453979558 3.2740701233054055 7.310085541725031 0.9278417111227247 -0.9397382054499944 0.24065577011699202
Ni 8.086614502195884 3.072804366161396 10.681166840245355 -0.24513026094857782 0.5052577666369362 0.9268001572320878
Ni 9.118227228812003 9.261065197675359 13.351771223719435 -0.3446252684221226 -1.1432757305584504 0.948274782166096
Ni 0.6379636516749452 7.2086610848929285 10.934535209737566 -1.504184566631945 -1.1854528781471325 -1.0752101452387806
Ni 8.898168472504725 6.262166302950888 4.611647404088821 -1.0827913000201481 1.1561641564853442 3.8254515768531596
Ni 1.599155713735654 3.693681102640717 0.6222382510866898 0.015963979528424117 1.6197415126643588 0.07551252851601833
Ni 6.626925565204107 7.581066061870152 12.727460900128369 -2.0700260083892092 0.05611638337759368 0.2839150950262594
Ni -0.07623084898453245 9.679418964479925 9.656717431248852 -0.40947620345923674 0.23025925737401637 0.006567625915188689
Ni 7.886270700907753 5.666694572278011 11.92824810052873 1.5202069102021303 -0.9316947663202276 0.4075103379821175
Ni 6.014085676236135 2.671315872639625 9.074305810599054 -0.29696190090788854 0.5024388091309023 -0.8846572053154506
Ni 5.178328036539116 1.004419685210397 13.169810663436408 -1.1480682668510873 0.6850436978517492 1.4032222305842543
Ni 8.386455034435642 8.666990369814418 5.838502442923874 0.9970164703461732 0.15205504095844782 1.04057867120784
Ni 4.292803405995459 0.9265851917977599 6.06358911808559 -1.5411919970942296 0.4832159563455484 -0.7981881777879285
Ni 3.9089065752186922 6.882745033496996 -0.09484411331933398 -0.4103115548763385 -1.146425846151658 0.11858673399767318
Ni 3.2693113410594035 7.432528729534092 11.118322918898608 0.9590754723260255 -0.5578501960216715 0.7462002147564116
Ni 8.925603643731185 2.9915511859336767 8.489249387291984 -0.1484153873233315 -1.136618373142933 0.9816692984661416
Ni 1.7263297457344782 5.798059312712649 5.7577586665882405 0.3587277692617757 1.7057600829180235 0.24366087549190293
Ni 2.036609798322119 2.334997551637462 8.210282308136744 -1.2689150005275307 0.9872138824334546 0.9257094952710703
Ni 5.5774138572243555 4.245718468547739 5.86392328029552 -0.3630996730772263 -0.7856108553435502 -1.406300869509578
Ni 4.839504603160879 9.420246929438385 10.455970275395769 3.1320816185239027 -2.2915800246797438 -1.2513114285131546
P 9.101957967395634 0.46413679083156106 2.223525638513361 0.47532601207451036 -0.8973126892959321 0.16375021790818897
Ni 4.6145194362701645 7.126774642057129 9.345339413051029 -0.6722789419869132 0.646875414312144 -2.5126370467292016
P 6.051308479831573 5.344317341338988 2.7035489393908207 0.334868703255991 0.29792863569653205 0.7661437477578741
Ni 6.993696367506516 0.9526504669999794 10.134164843341098 0.6822867039319024 -1.5390464115061364 0.09374704924617404
P 7.866397430236583 0.9100551751898284 7.346532598625573 0.30499942650038436 0.3713094625815283 0.11620897779411599
P 2.455373323284855 5.727124587922444 1.4230872895133801 0.10263766686758453 0.39897607525886125 -0.16976145709927537
P 5.195556504553017 7.020256146304161 6.839535104449593 1.4612725977597674 1.7291622638920476 0.3769232092238799
Ni 1.6902896531864808 6.167577357211869 12.744048655385862 -0.019650684351391966 -1.1780223900110165 0.6447277718415219
