# total energy = -381170.79499699536 ev
CRYSTAL
PRIMVEC
9.18911568439372 0.00000000000000 0.00000000000000

0.00000000000000 9.18911568439372 0.00000000000000

0.00000000000000 0.00000000000000 13.44919965416242

PRIMCOORD
 96 1
Ni 6.4175313479262055 0.12053179222960213 7.261317298431443 -0.17197054893545224 -0.07635173658786205 1.1095230595880377
Ni 5.940432463094468 2.1500049572560913 0.28039575619929075 1.060679041502141 -1.8073613381012938 0.028684769529202216
Ni 7.752810932937467 3.5963533831949577 11.388997294675734 -2.291997828943453 -1.186115451431796 0.04331871739229314
Ni 7.369735079492447 2.4279481384869386 8.150295319730258 -1.0225961185874906 1.0862509764339743 0.1754219978191624
Ni 5.362409521018758 7.432698899963691 3.0071472873665472 -0.06953394233508024 -0.9163121132165704 -0.46475980652288995
Ni 1.9126133434128108 1.8124611718838988 11.975207738800462 0.4596685080429116 0.245224620434597 -0.394714728879346
Ni 9.065420969626697 5.661386587984965 2.357953725627697 0.53827253100006 -0.364072835623773 0.9556196525669414
Ni 8.418617496869834 4.4284094275659935 7.113093187262532 1.1687646188581744 -0.4643625710844712 -0.026197741441290362
Ni 2.1453276973874598 3.811176528988416 3.167958649160314 -0.5844742263671031 -0.8169268918480124 0.6693620254504343
Ni 4.337676099583933 3.5528153532193647 6.901268449907452 -0.0800284141085009 0.1962664453683394 0.10450120243888454
Ni 0.5534218416428986 2.917580977072731 5.561715007204834 2.155691051958197 -0.36186040135348646 0.45380356462170235
Ni 3.68831805267485 5.494916568770562 9.495376934411203 0.18637798261003383 -0.7657915066247779 0.10362497048151831
Ni 0.8403574914541837 6.292357214467462 6.363824642566276 -1.2990727550578336 -2.1692201967928835 2.1035853324018934
Ni 5.326792508738176 4.974904513827803 5.064699633101441 1.0019838416537776 -1.4863683643861305 2.0932289288682338
Ni 0.8372359488660223 0.12986977155868556 0.9836479664276757 0.022983091158734613 -1.6319082299338799 1.9134949339372787
Ni 9.113783285321409 2.901840021954919 2.399095234240344 0.7209818065092551 0.4545342721401398 0.9763756541673699
Ni 6.949195201520094 6.328874760082281 1.411896593523397 0.19662511425933876 -0.3934212068789031 -0.5066312499456952
Ni 8.013745061090049 1.2536710488750777 6.081782196841526 -0.5684315710819438 0.7100250503874354 0.4987325639239088
Ni 9.141424145213048 1.2615369318761556 12.535111582626726 -2.3984363576143664 0.3030425598843297 0.9329998582848965
Ni 3.877705726333982 2.2773109655469024 1.9537649600526794 -0.12521966593315853 0.2874567896309308 -0.8451650607580993
Ni 4.7945589299736495 6.319749968236404 0.4482524129661027 -1.2487300409392237 1.1928568839206877 -0.0908851543173467
Ni 6.725798610820087 8.111581575473783 9.697868286995028 0.2762048708661953 -0.003821687738935354 0.4604408674325618
Ni 3.1868036875465418 4.439188260229854 12.069984277670926 -0.35738899584569417 0.21819281312778552 -0.5402731063698566
Ni 9.11094384858387 7.369229678131395 0.28493609824465593 -0.020409931114919688 -1.6298945419379605 0.13784635355823355
P 6.225193968141669 6.041907867277766 9.801789833765813 0.18319855644078772 0.8769652359878317 -2.223600314205661
Ni 4.485951669800515 4.76947264423423 2.974183172775698 -0.32383172871553906 -0.1876871883397606 -1.6307563757176238
P 5.8275809337297035 2.3268035424672364 10.974923797390135 0.021651516831504646 1.6268526697878432 0.08086916484224137
Ni 8.352786672314082 6.041053279521809 11.618400810279718 -0.36629169765196273 -0.42755208712434106 -0.3544921339138734
P 3.515489165426866 8.836731448309141 6.739703580629937 1.3080441053185086 0.26040029973377093 -0.5313254102582655
P 3.7321868908140394 7.801265139788733 12.51996792002652 -0.23056547576052547 0.3031883414335746 2.314911243206516
P 1.5035231035471686 8.08174451694049 3.0236628849341147 -0.6208285966264212 1.2480484414911668 -0.6580247460607441
Ni 3.6767121996019982 6.391314800961164 7.183863161483095 -0.33185768434380913 -0.7947534410747666 1.0954269865062876
Ni 2.5591043862373892 6.2019914511116205 3.5740578318801024 -2.3901648616341933 0.406385480349055 -2.808820417599853
Ni 6.172705739517655 7.244110679366585 12.017438157618283 2.476579638885012 -0.9259835748680634 2.2941948365947717
Ni 7.3964478387028825 6.027563657739586 5.66827291125717 0.775689225354464 -0.3033737179715033 -1.2660461636201679
Ni 5.727125521384161 0.35891858729836945 11.6323875632189 0.06122542246938487 -0.5868800075951183 1.431583812446083
Ni 8.781670267301596 8.510104332335642 10.99419612965434 0.8836537037516008 -2.1307724343396464 -0.247567923855793
Ni 6.702127448891609 3.577460561407322 2.2079009804433483 -0.3832648351711916 -0.15586233051967996 0.36933434113302843
Ni 1.538276338956137 7.899202734444679 7.967991535329924 0.5655043701328196 1.4143875031724544 -0.6422978222437906
Ni 7.876128865033806 4.712702287714768 9.43734399340068 0.2180701715069922 0.1819358876782802 -0.551214692983025
Ni 0.6673953620291954 2.6341151373329494 9.978983550950142 0.4185719951129178 2.0515863136267827 2.014952464453833
Ni 4.09173860818107 8.31864910765403 8.727871670785111 0.17191989820317488 0.2867926736843706 -1.1801975432854641
Ni 4.878611770874187 4.046178972761275 0.36704452227249706 0.16801027873612356 0.6545830673690468 0.37139379476521844
Ni 6.132714708185071 8.785364291795092 0.8760268816940019 -0.43826715954900003 -0.4086930454363091 -0.5242332792981746
Ni 7.877020209252386 1.2762027604622777 1.326958840785238 0.003909105246419074 -0.6617063086773894 -0.2557224346421273
Ni 2.786700402791944 4.526760532426435 1.1067619001564635 -0.5526128588821322 0.5020950526382385 -0.08924453339013018
Ni 3.705078999630418 1.582668956687688 8.310610469278629 -0.16849775989550336 -0.4366064840171255 -0.9437671241037295
Ni 1.7431752398416935 0.9341195519562854 7.071253305860069 -1.2994849028945878 0.29855135688219553 -0.39179421279844134
Ni 5.643375921300254 7.459567874140271 6.252142887624451 -0.31283434916377095 -0.3402281677956915 0.49432029378882614
Ni 4.81165987420847 2.35830383093417 4.004808655168807 0.8185621134585902 1.0323354573624415 0.14907564661514972
Ni 5.36125169244617 0.4939388581819431 5.253028720637063 -1.199804004662482 -0.031506812359029614 0.08456512563658984
Ni 4.014935979532695 2.3452093411251327 12.497749557283171 1.0739798723761054 -0.9062534434289875 0.1568437205963428
Ni 6.170197110943712 4.970530494775802 7.608844139051733 -0.7270832914213027 0.7233757606627285 0.015921042105630646
Ni 5.104085101712329 3.4869110157383703 9.190416834241725 0.501164313293853 -0.39358318637806416 0.4521940540427374
Ni 7.898293011994788 3.6153289070234926 4.557382341436706 -1.6962269466166076 1.8098805049787219 -0.24901699759749374
Ni 0.1800781805885803 0.42752544369363604 4.542184463054133 1.1578163473767866 -0.705457999842043 0.1325323975444879
P 6.588889976669315 5.446352092531431 3.4211674877813465 0.6232654882026879 0.23692535654028227 -0.3491434680074503
Ni 3.935440939997268 6.711399266587974 5.051183362883817 1.5812209879916572 2.063193301738092 -1.118267381439571
P 1.884136273996525 5.749188588072932 8.26446548719158 -0.565233118749304 1.1458725447513491 1.3966602610960204
Ni 5.579309406950352 4.8527535994197075 11.282601119058933 -1.448615571117389 -1.2821605526835274 1.242450635688415
P 5.5560793225733365 0.48235781572136066 2.7740451527112375 1.0620496965974227 1.0988182715760237 0.7230515445540903
P 6.746575201317093 4.8553265518032385 13.081969638956926 0.3576170526961002 1.1787284149391055 0.6636189523190701
P 0.6384018643130726 5.138158342562793 4.631447532531319 -0.03384343091200623 -2.0547024906582614 -1.3602686098408638
Ni 8.16157955375517 8.196636029980766 2.5280323105600004 0.9492772552886812 0.47507738639881403 -1.8962847407065793
Ni 3.299057924393701 0.12633196203133157 10.735810143273019 2.8025849782131025 1.4414540203719433 0.3520012491712196
Ni 1.33554606936527 4.778891487781081 10.292362718883158 0.78179945201726 1.7742532426934152 -1.8299806181627065
Ni 7.498198916355846 7.078054170356679 7.790515712294971 -0.9710673545805792 -0.9458227210811774 -0.06276474193204674
Ni 1.5412352341971967 6.197341758589955 12.185795621188316 0.2651498986036143 0.3271615644197204 0.7700091442505512
Ni 7.588252249779402 1.4861740531896508 3.6884834567566487 -2.1780743047494036 -0.5267429330939057 -0.888159047821122
Ni 1.7509032861079392 8.61423539094337 12.216486348566004 -1.4001081104353048 -0.1926537883164166 1.3200496144198168
Ni 3.213139693015104 2.501451874615002 10.324937214970216 0.1884906580776625 1.516317345339737 -0.9604121888595781
Ni 0.5403365409495166 3.86561285013139 12.144532816249018 2.9853803856782006 -0.08377142609070087 1.408478079666555
Ni 1.8118914467132599 1.3323390680015128 3.3517823132900624 0.31551652398162433 0.7235850484600571 -0.6600397196082439
Ni 1.3795803115862577 0.5651388830151819 9.857509874365855 -0.661617348508009 -0.8204680722320515 -1.0152885291824838
Ni 3.5359533259915863 8.99165993826028 2.913850196116612 -0.4415913388262266 -0.08997626934983213 0.05332287979285655
Ni 4.501802894306192 7.350300099881138 10.694777066225106 -0.6704943392826647 -1.3510098102467574 -1.5814171631628635
Ni 3.2366638290930942 0.4473840415366613 0.43144000696286405 1.1648267172563487 -1.078431994610188 -0.17381505834335872
Ni 5.78177319218721 0.9439059601293556 9.31558821096577 -0.44832660066753105 0.9905660867351392 -0.027635245218765314
Ni 0.0046120171474778385 6.798934782321933 9.194450856014472 -0.14102963638222163 -0.9234944898976224 1.1823714110083314
Ni 8.15448555646915 1.3214591550654422 10.445670248832673 -2.9408671337571737 1.2415962581079196 0.2962368498164059
Ni 7.0345896533063295 8.217881265376203 4.407840511082801 -0.1371560123594283 0.6688568036792416 1.6924132292974725
Ni 8.197021972838296 3.4386497803158687 0.30151785744494236 0.09718050040775521 -0.0823604046757872 0.8718772799419628
Ni 2.3088755778234242 7.163724295612578 1.1181407820726257 0.24206010666368638 -0.13843050819647773 -0.24673102977679445
Ni 1.9233829869610157 3.7262323438692984 7.861850817128345 1.3282030967648866 -0.7420985338832122 -0.6578342273164928
Ni 1.999349406084744 7.442035041469644 10.231788068482334 0.5163304795113302 -1.079061914884703 -0.4797845620664963
Ni 2.017157912225035 7.881311526263488 5.519941287435089 1.2506869075552784 2.771054768815305 -1.013795489576725
Ni 8.567655763685819 0.4319702189361844 8.44212968709747 0.6547537886189563 -2.4490449237998533 -1.218639135091114
Ni 2.872471608320054 4.707648274104261 5.2944789835357335 -0.6606763247509783 -1.4973947974036212 1.3051451865041588
P 0.37366895574852177 2.356107632292514 8.043321148738729 -1.5421178513426086 -0.4825472124132979 -2.8796381117433634
Ni 3.023706073777695 2.1579627314137237 5.581821711170557 -0.16262587449575863 -0.11567264567467175 -0.6111625342915668
P 0.824619293071069 5.163520301771876 0.4869928056579772 -0.27520265485392603 -0.2841104988665172 0.07440926814951056
Ni 1.6369031172862416 2.087178973519678 0.8082488835308582 0.36219181655097626 3.1084482953756787 0.658086195426299
P 6.230845274269781 2.82654440827404 6.225728774672818 0.5362922673452377 -0.15141792159508113 -0.7782189337548533
P 8.554772623536856 8.197279268076649 6.435038451072997 0.8049663770520267 1.1675896247134665 -0.996568327065161
P 7.769774040437455 8.653610751527037 12.80963641283374 -1.331950736732777 0.9993898556743562 0.6616700561228153
Ni 9.2116289888208 7.305990184190486 4.422460394090646 -0.17512349274213712 -1.4580402068653986 -0.6679368629681336
