# total energy = -381170.3191952 ev
CRYSTAL
PRIMVEC
9.25912505272565 0.00000000000000 0.00000000000000
0.00000000000000 9.25912505272565 0.00000000000000
0.00000000000000 0.00000000000000 13.55166544136323
PRIMCOORD
 96 1
Ni 7.53585391202421 3.478838546802414 0.8297833626197277 -0.22902589918754748 0.5010594122848726 -0.5267650445810927
Ni 3.612679202594038 8.460590530210087 9.172973739869294 0.5752483368934609 0.7501095771131469 0.3487308059500639
Ni 5.623890839198795 4.977965001171852 1.5588885525182763 1.5065533239744378 0.30342565425536133 0.19216322183324325
Ni 3.500717859817676 1.8507139591580608 7.929757471126142 -0.8178334628226819 0.20275256731331534 -0.039738970460834785
Ni 0.19617216120315148 4.788625148506138 13.480830845544057 0.8137842324539727 1.534413026499183 0.11492342621347304
Ni 5.571224934657616 4.6736638491419855 7.172883238627478 1.2095004060146397 -0.0036257696780453686 1.0444137286832142
Ni 3.7465568948867456 0.8237223392173619 3.3173260692260205 -0.348109113205665 0.019663282756882262 0.9197813027120935
Ni 4.365316459368714 6.149355457450643 8.953355621655035 -0.08399434073478437 -0.8870326475261627 0.4616875953554694
Ni 8.096586538433115 8.77681743558894 1.17634408829875 -1.2430656435645946 -0.04212726818735325 -0.29353667727642346
Ni 4.278326977448111 1.1206041541676135 12.66659262834173 2.3459192615522566 -1.4142113826059064 0.4650822228593151
Ni 3.711751842993234 5.654140401458998 2.5210977765882263 -0.8021026823509864 0.7057742455308812 0.2648102558760085
Ni 5.542290168185888 5.2366371838664625 11.828896417265446 0.10110117561840008 -0.8004420068191117 0.9998477691473814
Ni 6.458999124761849 5.056519419970617 9.713834431621681 -0.2544255702075747 -1.6357849392804666 -1.633535738234974
Ni 1.141335335649277 2.7055164041724304 7.811450849801595 -0.273858996341838 -1.1677292356151243 0.6235506235432745
Ni 1.8784542984698356 7.053934959921654 9.559683884548223 -0.3367697769334458 -0.9020584315110337 0.08772835385591989
Ni 0.2018683750698417 3.0828905728406566 4.729368598597093 -0.4981756629791743 -0.2593358630249985 0.4333316699205957
Ni 8.872880860275076 1.1222337602153014 10.688158295196146 0.543289267488361 1.137872300154692 -0.6784038239377284
Ni 5.946580614016775 6.993278430271642 3.040004156410657 0.38753158086734546 -1.745486454973368 -0.6910780769712872
Ni 6.698699359776276 6.625876339520233 7.500806271048599 0.5086153702552595 0.6969412206202835 0.25394708790925946
Ni 1.839677081835085 6.676421904374364 1.0523884746463954 -0.7020811129500102 -0.9181070003334639 -1.3854877894189688
Ni 5.426356660668287 9.41338229796695 1.58150674373016 2.131697003036445 -1.880432347055355 -0.7491346147943873
Ni 6.836789954067268 3.1661393681517938 5.0804653697463555 -0.2832656343677186 1.6966694334706651 -2.501037771927377
Ni 1.5215983514020408 5.156027239257547 2.9337325461132955 -0.025435409353969096 -0.33132649443068746 -1.1771584993488242
Ni 3.650650875330216 1.4327570444272477 10.575259003029835 -0.009120217133713325 -1.8903228666961895 -2.316420994982823
P 5.34980221292805 6.529701805330845 5.259469260872105 -1.2177965845851606 0.9010994100318739 0.20403863311459053
Ni 1.7421136788550546 6.6136820715383875 11.940507765106567 0.47265823543436025 -0.10394301594256938 1.6857589572057485
P 0.15929676889905453 3.6003553068584 2.6318554330793646 1.348962183689109 -1.064172142257064 -1.0957496599530288
Ni 1.6521797950982893 0.8996388332264316 9.321960472779143 -0.34714186419638926 -0.7001694977495941 0.993398671087928
P 7.842608732250879 1.325666001543407 5.345901343451397 0.9128164413584859 -1.4720077247890844 -0.24765122759821864
P 2.0813032149058714 8.061466676280391 5.691631525593614 0.14636004745619954 -0.22713048193704755 -0.5827461879324028
P 4.886910763257302 2.2912353621741857 4.181556155591275 0.44359088575475863 0.8154479933096408 0.8297865214194999
Ni 7.1337301015067265 8.702559250915899 9.366857045305466 0.5384319393960597 -1.2401674960811933 0.3402163407211496
Ni 1.9952674228881768 1.4516641782305337 12.326107740665508 -1.7601921366146587 0.12193713852714481 1.3202802423733844
Ni 8.203927577699272 3.446098279844325 7.0611765217960665 -0.10882168419110937 -1.6127224010340484 0.5670357191756815
Ni 3.759834480525292 8.025744970985055 4.234841495613081 0.36069620584205625 -1.1158178914578138 2.249098201366449
Ni 9.01721210499869 7.730980717984271 6.153973909135794 0.22891457042066385 -0.6146543494949092 0.31107494327050295
Ni 7.64604676187382 4.3217707932194225 3.046875353274231 -2.428189934727715 1.1326493611928559 0.6298572824875927
Ni 4.731348199580023 3.1723985368349576 9.534951835036981 -1.457532671101361 2.0106592363951177 0.059985893635328955
Ni 3.555735582177678 1.1323262067606399 1.1649192536269213 -2.629922288306632 -0.22612029550497828 -0.7575776033554179
Ni 3.7913618020728865 5.72265792846405 13.648153424227973 -0.041361336555606185 -0.1333708342853832 -0.635696514877189
Ni 0.4069941104100046 5.126990622407838 10.902260752486498 0.27723305502039347 -0.31080214922509053 0.8633646144852614
Ni 6.495794888588615 1.9902026813649658 11.129088951549248 -0.745901195458754 0.061617258591164854 -1.364225794716399
Ni 2.391011696093974 8.683096569596355 11.26980913741719 0.2690723735864721 0.524373918641097 -0.915037874489837
Ni 4.141958580457517 0.6257085379978179 5.865621600385144 0.6455600379348301 0.1848692592749913 -0.10626575053847505
Ni 0.6416120115632066 0.332245192097602 4.63221722669162 -0.14026524741237134 -0.2899569303449651 0.28743853479848563
Ni 5.0268254052266705 3.3436090222201478 0.13666561491179152 0.7385894922886893 -0.609843301259511 -0.7759185677564508
Ni 4.370325646140299 7.669740863442188 7.034344502673372 2.2768481177862077 1.1274763016323484 -1.5342932130918672
Ni 6.8581507560673565 1.4133962134856854 -0.25759534642559867 0.12525129050204237 0.16194787459212756 1.837513436204642
Ni 0.20960807788383118 5.936552981348332 4.559539574702329 0.08560565108596224 -0.0596292816268586 0.8679213806180085
Ni 8.273269166853439 1.0348368767827771 8.29409386550034 0.8246355733461798 1.7847621126445392 -1.0567282843845092
Ni 1.3298511261658776 7.590686451878793 3.0121425225578324 -0.3677235450024828 0.5771280704146771 1.751410276656971
Ni 1.8003998724357029 4.35537215882771 6.30317823148951 -0.3678022207592182 0.3512209193617693 0.3686619976563522
Ni 2.389252462292493 3.791676612332099 13.237809362294936 -0.3519009761479294 -0.27820133247093376 -0.7397814557142615
Ni 0.4051154338925283 2.36531762346708 0.9145941723640747 0.4998296536428295 0.4510851372492748 -0.8863255941568091
Ni 2.1150156900174104 1.926333235245933 5.736108659745164 0.14324309909377264 -0.2767309185729943 0.07893415260305761
Ni 7.253719105893005 5.62976112462058 5.078486694675953 -1.4672411566383765 0.03147724467267482 -0.7208820477065971
P 8.335610857302765 7.942190624539977 3.15359417932218 -0.0024698016967312306 0.009558076002080314 0.43035870333520077
Ni 2.5708053906053365 6.587562079149029 7.38514312998891 -2.078902742053548 -1.0720008942728636 -0.38520293273416883
P 7.723138238879774 4.799356474695172 11.728546943491388 -0.45287745326300716 -0.053823987798991176 0.543275126420974
Ni 6.249196605247328 1.9436940951289694 6.751914330446024 -1.3264030674416705 -0.8416652751349568 1.5498995521705565
P 6.5159982999298345 2.6956646948841363 8.75853621865397 2.0712249137933165 -0.30081109945064965 -0.5171064384454063
P 8.995869821249142 8.20196464314183 8.306764978433637 0.37944726119731426 -0.2218581777945147 0.2600876535893585
P 3.4522555981495087 4.358159155534267 7.856266867938062 -0.800826129631408 0.30867636113133934 0.748052437473802
Ni 6.778031545097801 8.860964366051359 6.62425784442287 0.5764127895152074 0.15210646302167352 -1.09749492477891
Ni 1.2974164103417298 0.1821584751055643 7.222617704107875 0.22527311701333463 -0.4851887638012031 -0.5883936160261674
Ni 7.349245501313426 6.794577601956993 10.737906649364449 -0.7439199033626671 0.3506650468582993 1.3495874759779336
Ni 7.414661221352708 6.832280760060314 13.08510879423891 -0.4979815446904972 -0.9169217217761112 1.0556772174121756
Ni 3.159389465829269 4.954224603977129 11.161463483059133 0.46006702903291097 -0.28635687169853263 -0.48578268863146024
Ni 2.8556253430651184 5.926849418064374 4.893764367782861 0.17366490591873962 0.5805908321522968 0.014071390491401572
Ni 5.950062045118653 2.298781549270012 2.20518105190595 -0.15505731811988135 0.6680415068667979 0.7343075770838837
Ni 1.7507339244823115 2.036637194598794 2.927295602224929 -1.0431060656153843 -0.38841449769293107 0.22286373624089362
Ni 7.4972618778948785 8.837473965238953 11.851026652575552 -1.0043867946683154 0.23936919009508453 0.37014552418041413
Ni 8.418535583229419 3.3403961057511267 9.536429591430224 0.9340280424390947 0.017229733614725164 0.7006207263543998
Ni 4.420537882484676 7.308468313620149 11.820453946843392 0.32267884605801844 0.5799208026684658 -0.6291826250180713
Ni 3.415580202951264 3.2258977626505234 1.696722669039262 -0.21993679240208572 2.02947842598415 1.7275962049565083
Ni 4.935743389936307 4.570739412630074 4.129070803992878 1.3444108168730007 0.5743592494202883 -0.15640534750734356
Ni 1.3298233487900648 4.774125358331824 8.883753851080757 1.5294014322172047 -0.36845965183755897 -1.1261208160457188
Ni 8.681957697188027 6.12484655285843 1.5658412296842348 -0.45251338505536903 1.0513832180225118 1.4306229911947104
Ni 2.7399788684309168 3.5845036843945284 4.233594291439084 0.6355034250297765 0.45505620608188074 -0.5263351561325257
Ni 3.598734959935983 7.974004978970971 2.0533212124245246 0.2748915513714104 -0.04734146539844105 -1.1079492873430143
Ni 0.1400331587728371 8.140169241083491 10.56029810841703 -0.15389286549813497 -0.7424294348600698 -0.25326548846120256
Ni 4.232290606600934 3.360201374705695 6.068015893770376 -0.9169037240539821 -2.0077438625205355 -0.7210507120739775
Ni 5.409412461422444 0.3808380074320898 8.285921761536196 -1.2208528549129811 0.8885285153453988 0.5915013084172136
Ni 6.046866199826465 -0.2904596856623188 3.925334863355885 0.6462786612684096 2.1675921742711575 1.3915841321246938
Ni 8.580412870341489 6.01513517752291 9.061091099657736 0.61398020624602 0.5702804513652243 -2.511249936573688
Ni 1.1181412268455402 9.557269104677557 1.5321509764733459 0.9371102809088442 -1.4342189360760846 -0.04511643272266424
Ni 0.47966435509907823 8.317120384136672 13.153179105493374 1.0766095966894684 -2.3086662907380693 -0.545598375237512
Ni 1.79250183857958 2.917513336376167 10.491943542016747 -0.7128193253031208 1.026074564054394 -0.21559342783172547
P 5.523364516132061 -0.26817019339755394 10.74469544001311 -1.4569289760790909 0.2364504737863928 0.13759258567621466
Ni -0.2483714058306754 3.053640996109716 12.219835204455618 -0.6508071452663825 -1.200845558553119 -1.3466669598970291
P 4.404695519146077 3.036391245729931 11.718830417432049 -0.3864571168562441 2.1544546084479346 -0.3228446822119214
Ni 3.014076753826935 8.3896934080104 13.430188985787105 -0.3625949655266658 0.04384476509909223 0.11344015679972722
P 5.40238478534179 7.0849622887046175 0.6777975990346174 0.21361239284595468 0.3692487233977576 0.027449868680836598
P 8.965833218870172 0.8762521346170589 12.823250546538564 -0.2537591402681694 2.079790543975141 0.6873774881912486
P 8.477303251324157 5.401653314445385 6.726722102408815 1.529899454899546 2.2803481605196665 0.7011259481255925
Ni 8.136678550856342 1.0323646903354327 3.1526599335823406 -0.1735803166247333 0.2707289353532886 -0.2504724990970977
