# total energy = -340896.19897843176 ev
CRYSTAL
PRIMVEC
9.03696744716098 0.00000000000000 0.00000000000000

0.00000000000000 9.03696744716098 0.00000000000000

0.00000000000000 0.00000000000000 13.22651532959505

PRIMCOORD
 96 1
Ni 6.420250055573466 2.0796139923100556 11.356497261092839 1.4018927131395535 -0.23940389998776188 0.5490583087616544
Ni 4.556827428481287 0.32922213558944874 6.182813684273964 -0.22766167185016922 -0.46800505293306494 -0.3621691908431569
Ni 2.8539555598416775 1.6420621166623877 4.769666078885143 0.01115704505808401 -0.4377845634856267 0.7621377119222745
Ni 3.2796870824523103 4.305970257261832 4.654463725306537 -0.35041102186596423 0.5789733511535319 0.3093317353271511
Ni 5.230117629300278 4.449576702301219 2.7157740061846534 -0.18232361003500214 -0.11591355804088424 -0.27264312165686594
Ni 7.1596998929246665 6.179134734945695 2.479164517379715 -0.12283471064074972 -0.2520555273135014 0.2923634829039288
Ni 5.185276198283636 4.407057771843078 11.39619033192202 -0.5710854637650229 0.5569652223135569 0.6598862247495151
Ni 5.574914074082407 7.681277489167402 12.462340087330073 0.8210319151553214 0.9064966697880453 -0.325555139164549
Ni 1.7651727201971925 6.705149482060896 0.42162783582613955 0.1203188861974315 -0.44537111758363296 -0.5903749081222542
Ni 2.877758931324513 1.5201263188575633 0.29569589114595074 0.15815806853239214 -0.47483441715007263 0.7442243219769635
Ni 0.4879112788083559 0.15440833187820122 5.0004557608431 0.2666676207997214 -0.671904846476946 0.1682149385477619
Ni 8.686631048048962 2.3681914644290396 1.2555365723513507 0.4821803159921825 0.08512819722891145 1.2056627774361042
Ni 6.8831415871200985 0.5800268923994131 4.793685433882953 0.26764129756690036 0.20198637857125212 0.18828265583191445
Ni 0.8253091585817537 7.582675140553421 2.5607855010151845 -0.5386134592792465 -0.9716260552975267 0.3537025481330424
Ni 7.5735478037281885 4.001072022463272 3.8098317235567505 0.3799619960502037 -0.4457508695205549 0.34771239198787857
Ni 7.934764417828584 3.787465229851352 12.50990254915669 -0.7568762064130191 0.6906080793134042 -0.21844632389948834
Ni 7.755443878597789 8.785215322728636 6.987964983922683 0.036569828704233795 -0.2703211583919086 -0.18904370236765505
Ni 6.820813624661055 0.7550458352650494 0.560531443158744 -0.20297162530265686 0.28109588040990946 -1.7545025424290492
Ni 1.8330493804886052 6.742011271080823 9.144005511148265 0.12589175229951868 -1.1920441582114052 0.20397898352124869
Ni -0.006518364407961147 4.939082102115488 1.3656113507669485 1.227632596838976 -0.1284271171268627 0.04951327623877925
Ni 6.325633009474266 1.9276935374892668 6.846322271845793 0.7421286157901993 0.24733138236495472 0.4893140988234863
Ni 3.5385600435370947 4.34951036500834 0.4842016037917635 -1.1867582272221173 0.16222581084386256 -0.0274804648084559
Ni 5.915146850451918 5.576260582188307 4.9751269493047205 -0.14259980908281894 0.3356186940481381 -0.9045729704027711
Ni 5.235612105329724 3.0279352514846387 9.442078124655637 0.05922793242338186 -0.7614915936978434 -1.1906189957291045
P 0.22790146725563645 5.622177412296238 12.482761825703994 0.15648479459502726 0.24510069326222303 -0.8719803811787306
P 4.037635591567127 6.051686387177116 12.45597806245387 -0.1441347576701066 -0.22895519385061214 0.44904573822174276
P 2.374155862750479 8.613711760085788 1.3309844037241303 1.1149331748600153 -0.17291337246469576 -0.7551427686616802
P 6.17227567687604 7.591404850823893 5.899514704669454 0.2615786363125882 0.4923549425323391 -0.3005696728638049
P 4.89857841533262 1.1192464559195952 12.536844459332006 -0.8403941217320172 -0.34374466558938216 1.4992246515235081
P 4.044160281852096 6.08888254398173 8.285393321211709 -0.24822586915476605 1.026339901900639 -0.858696776695947
P 4.8725248390285145 1.006944065100611 4.04341202097177 -0.40032204776379443 0.3077713328185667 -0.997893730744804
P 0.07900930012805145 5.733675513038542 3.4885729634231386 0.5248326034450702 -0.42554379844506063 0.06013450339805127
Ni 1.5418692618293566 0.9070042453478836 2.841611062709728 -0.3126769976503002 1.5194713175876864 -1.1958792156867792
Ni 1.7551687975580506 6.356656917712905 4.7818352588543105 0.8822593945072355 0.7218456971714471 -0.1607307143555748
Ni 5.98930420291515 5.527750142507265 9.255888586691317 -0.058945368185956554 0.8082190796613693 -0.632371307158698
Ni 8.730279599401316 2.309586732437319 10.05441307832623 -0.15529900181704223 0.3285867269020212 0.3578808478804482
Ni 2.491491844274072 5.168675289622296 7.001058645631674 -1.1781851408411257 0.06769688912634148 -0.35756665907413904
Ni 0.4794960549948339 9.00753375167672 9.212148761970711 0.2831432498572414 0.6027604262708006 -0.3167984760178415
Ni 1.3673202412557124 1.077079967180448 11.508456574872389 0.2682565625533961 -0.7405381313746279 -0.7468895275139524
Ni 4.146205714951635 6.849081257917817 1.2580506566135088 -0.09588929240015744 0.8271637390846722 0.9521049545454634
Ni 5.5105889418823955 7.805608083267956 8.048982645684152 0.07332400550513178 0.14844829744379595 0.45260337366601405
Ni 5.187670994579365 3.057449986208611 4.906150490110703 0.7701667528743381 -0.8662956720891275 -0.191508876078696
Ni 0.6246396881470656 7.379587377708405 6.96366729033654 0.1355508726558375 -0.36837454832292044 -0.18382950515656726
Ni 5.003199384070963 4.461559720747021 7.066993261681757 0.02240973515376786 0.2783363153869013 0.3116403288556698
Ni 8.198517341176364 7.046466694488852 9.143238272636914 -1.0660014821563188 1.2023761362650325 0.7704827414528601
Ni 4.764975892932374 0.5550857667519267 10.424306084590889 -0.820459073370987 -1.146925925716528 -0.40775202167927843
Ni 7.98629320453896 7.259730082348931 4.611914069160075 0.2572134173653571 0.08712337328206932 0.6445028003149094
Ni 7.3026737502632955 6.065404503316427 7.069294073519088 -0.2042610335380418 -0.5559185262165974 -0.1867392226041945
Ni 2.327172670518412 5.251779239567687 2.4606875343372674 -1.0460854599586822 -0.10085100728080695 0.060186439681909246
Ni 2.3291336923907644 5.127457682434287 11.45139716426395 -0.5892145692655659 0.3889634282178656 0.10414587598199485
Ni 1.0905179373379945 3.20125524452538 3.7476935374079345 -0.5417468627019056 0.7412618969145298 0.38427270761041565
Ni 3.678117927291627 2.559964944397629 2.6569026836618983 0.13191096191040508 0.435015999601554 -0.1663470321010877
Ni 1.28866247914994 3.432972119313307 8.186762957999552 -1.295672728237349 -0.003759981263064493 0.25199304950668217
Ni 3.5337433400441745 2.6170243550060674 7.059573007951857 0.16641465211422954 0.27379883252786397 -0.17675871435271495
Ni 4.045967675282835 6.823235531858246 6.1091551723976165 0.18788079240780547 0.025864012250955457 -0.607122045673606
Ni 0.8990607512197847 7.456564263923591 11.295046788144418 -0.15949967016195113 -0.40513849531583135 0.5197119943890534
P 0.20635643386450908 5.539525310708531 8.08117593747248 0.8442656888722815 -0.7801413475885468 -1.3024676396719954
P 8.497731323635248 1.5706971870496478 7.900911938870837 0.6791183335062497 0.041486292169244675 0.3942539871928436
P 1.7499273566089069 3.158139874235095 10.412058283007484 -0.21870729087035878 0.5547993250104897 0.12797537430142475
P 4.017483154814384 6.109541050895079 3.439541994434044 0.28124011929725756 0.5391392498757296 1.6161070012355652
P 7.02519367380905 3.9403707140918938 10.332315181146551 0.83221389991407 0.38815995847996376 0.4357978720729011
P 6.243658680423087 7.825182154122863 10.188556011362266 0.6955726224075311 -0.8690796625921678 0.4609394043355352
P 2.326124382328583 8.223106928801572 5.915942103561444 -0.09984647727569256 0.9464708961881378 -1.3554125673001431
P 7.135878447507523 4.059297201834537 1.6632339233100675 -1.9406645523735353 -1.1415816306854791 -1.1223765185119379
Ni 5.34346830830909 3.0264712628057397 0.48600718982907204 1.0995461508809836 -1.3850841262226468 0.09245686967984076
Ni 1.606375133372441 1.0633347401396762 7.111513880364442 -1.2582855458381428 0.44041171669582857 -0.8842885091221223
Ni 6.870182576221698 0.6819937038847146 9.121467315066946 -0.22914416993296666 0.28737991364640825 0.23107609684835687
Ni 2.754060924924718 1.6329890016400765 9.229938031812763 0.45383441785963774 -0.5399794863888379 -0.0868454370303343
Ni 6.482008689101827 1.9819605252472132 2.6958809303892215 0.5006218105268218 0.5875076138767882 0.17155634421616905
Ni 4.115010104337075 6.8041765681311 10.450057826192062 0.337787933785315 0.478790316474027 -1.3346609365750883
Ni 7.939535936485735 7.157485835972011 0.3330646540232004 0.5559738049345652 0.23905628684035607 -0.4475660683524228
Ni 7.674192506918904 3.714121204431953 8.221019389389069 0.3466317573291901 0.10664395981350022 -0.31517996657781205
Ni 3.246114749476329 8.228736959338326 12.185442895257241 -0.7680466212075419 0.9779242296014125 0.8142832835775782
Ni 0.10507643188288844 5.029858437174368 10.177908656661781 0.3086928161915716 -1.3977979742448894 0.7979956021611483
Ni 8.571472975609412 2.4058033217227237 5.837324104111147 0.5100613586731667 0.2335479554276171 -0.35512128285744
Ni 3.58989001697009 2.6705774223588716 11.450696799309538 0.195959712761198 0.027692580819261986 0.15307731157537507
Ni 1.2966782690152685 3.1801448892543456 12.628081679715724 -0.27419092575996007 0.8403283014910883 0.7819691448259048
Ni 3.014777427308857 8.358381290125251 7.934044171546434 1.209317343469556 0.07108097510722595 0.7908322516434896
Ni 5.645230715505317 7.826655179768915 3.613338235643786 -1.342949658946442 -0.09295283547965282 0.2327120897898831
Ni 2.9328030982576774 8.206731944319074 3.4960456315625303 1.8397693221183542 -0.6521454044618317 0.8889954276794882
Ni 3.3518743760760366 4.397315921251394 9.29476110090294 -0.40276253888448704 -0.5774761977827152 0.3786185946484318
Ni 7.197076789072354 6.021963802208609 11.364380207541009 0.6188570747223471 0.3254224702414267 0.06841654090118539
Ni 0.399803560149963 9.04970927738302 0.4846760445673326 0.10196763738375342 0.4537014918261993 -0.42356867699656087
Ni 4.699575361641075 0.549610268353502 1.78432295729259 -0.7031139250898988 -0.9114496429179464 -0.09314541110643314
Ni 6.0204636656610955 5.431163037568559 0.22019745275711036 0.11509800411812435 0.11605753981791625 1.1093857626792247
Ni 7.9646135203372435 8.792273194075673 11.230144193743287 -0.36050054489148237 0.2636470888058427 0.683667386329513
Ni 0.001042866009536554 4.9874118024534555 5.5625162588442505 -0.12468487647561108 -0.8683942064893689 1.1310233955536584
Ni 7.8387376048534065 8.761646912391797 2.497933394461227 0.25422168172688475 0.5346495895354921 0.5962599061481215
P 8.66305360074497 1.5589762406513037 3.5631966233915016 -2.078319358746253 0.16985658791624297 0.3971837592451289
P 1.833022269587144 3.1786357157396785 1.715360053549303 0.2771752051992646 0.039641268540705925 -1.6167670034170671
P 4.867816579141438 1.2554516248601058 8.230211792377808 -0.9652219515433957 -0.955059152077781 0.23861714242040838
P 8.459306139297732 1.6590516149113366 12.382822005951267 -0.045349888889709 -1.0725094584781658 0.0012816949259010185
P 6.158277414754964 7.8745330317491975 1.4342299460616799 0.017089351382118957 -0.3654961983338609 -0.5444390648220881
P 1.6667691848605932 3.2345474315195974 5.971269127566519 0.663757020558831 0.013200043630041782 -0.30767877310476044
P 6.888048660284555 3.9262730453321275 6.146599845798958 0.32792338228640944 0.879559221967253 -1.347678431880679
P 2.4837110155547397 8.66958732799709 10.121061614781455 -0.1525785175620856 -0.28804222982075556 0.7513845871708286
