# total energy = -340892.453031165 ev
CRYSTAL
PRIMVEC
9.04125456098807 0.00000000000000 0.00000000000000

0.00000000000000 9.04125456098807 0.00000000000000

0.00000000000000 0.00000000000000 13.23278995402053

PRIMCOORD
 96 1
Ni 6.370250964015951 1.9533540037195167 11.31497455654093 0.47332517959439774 -0.24089565404194 0.6817747972924904
Ni 4.540310084868969 0.1379216257448084 5.847013672595687 1.3538223399948877 0.4348509347785995 0.3147004558382322
Ni 2.834469465640125 1.425453233203684 4.571664251514029 -0.2881463594987876 -0.4838031963075861 0.8898161238085709
Ni 3.4111839694575776 4.313076234328199 4.7561826949454264 -0.1877460666021541 0.1273685939553613 0.28855953577680626
Ni 5.279667716740291 4.231867685983108 2.790054302675834 0.022286836422658392 0.9365045290040452 -0.44171295200575544
Ni 7.254015513518959 6.1371041330011575 2.7275692883730325 0.2717293515933449 -0.6369596978603288 -1.4613345613459543
Ni 5.234009381275726 4.794098100015564 11.290917586441106 -1.0601537651262902 -1.0558510239858785 0.33894647286979046
Ni 5.387773997364011 7.877193024455697 12.542594290741203 0.5425364484827366 0.2530173770061384 -0.1827383289749175
Ni 1.8760331948298234 6.300271653818778 0.2858690986572713 -0.5782344161049784 0.24106354707837194 0.6910099427375131
Ni 2.7593637641145543 1.6866008295518944 0.505988385994661 0.281386929287767 -0.7206545050768233 -0.32952697932810343
Ni 0.49277278422267035 0.03430794450570972 5.030789102812953 0.36938627741688645 0.6405448441084259 -0.6572356745005455
Ni 8.517693579105329 2.240233010509737 1.2157838278722235 0.2057183348098586 1.0622438148860995 1.6259247586569352
Ni 6.853867669758431 0.9511490196450662 4.8416795103223675 0.3096446385818796 -0.35033594565365467 -0.6622356988182982
Ni 0.5201162503504883 7.241999686225413 2.216320700482672 0.1537537688171094 0.4676199016795043 0.08725089999886909
Ni 7.685400891740887 3.886573133561888 3.92643331248518 -0.077099413387164 -0.6338298939820955 -0.8263805810617444
Ni 7.7588972499570135 3.9288590810802573 12.296768908474538 -0.5906037363036086 -1.5022582961435096 -0.014492537189220202
Ni 7.794546916637563 8.823966076899804 6.927220272027253 0.298120439992364 -0.737429153432001 0.0046791506432242
Ni 6.580921236225813 0.9262855696396105 0.2565862834290278 0.23252902724479954 -0.9762321866109703 -0.10047588332957534
Ni 2.0727618525275355 6.635250134801371 9.255251097196256 -1.4242104028001472 -0.3936618621347994 -0.7487224669576331
Ni 0.25411892506303185 4.710936640688225 1.3625803490807975 -1.3394691565970094 0.7050851898836565 0.3727420812629968
Ni 6.231413459185488 1.8743243977203576 7.076697525209142 0.0493816357569214 0.1685358122222904 -0.3151622259659992
Ni 3.2620575169521286 4.3077780591634 0.7045641719964146 1.4004145859321302 0.22399553585249166 -0.928766279819523
Ni 6.027704952977152 5.6209389108879 4.676295978015171 -0.6964964197733811 -0.10005525085238896 1.2434255980071744
Ni 5.057487927491539 2.7278369095076367 9.529024805519963 -0.3907236054420819 0.2128174077484851 -0.11016585692382963
P -0.0719729068248833 5.612729451758826 12.495524615441786 1.5742049616851406 0.8474006349568373 0.3198876564661265
P 4.047317598160795 6.098678801174544 12.586011299203458 -0.5779248552843594 -0.5182865747964365 -0.11330748787660484
P 2.4243400768592247 8.314473300642554 1.5054014306648626 -0.3660937227085437 -0.41626468713597986 0.10505964604551583
P 6.216658131764068 7.539095310654239 5.826212458258396 -0.05919347964102063 1.0879684733457131 -0.15482797571789464
P 4.533556267722032 1.0650597856882424 12.658169551746564 0.9451627188996754 1.1188721049031054 0.5246395135976577
P 4.123092352522876 6.166226013898457 8.16864057716874 -0.13154586526150247 -1.0542993632280424 0.5859927198941586
P 4.93183257179124 0.8691168130107029 3.7007744484865746 -0.9392792635357049 1.8492168406844989 0.008222387909792291
P 0.09533370032455461 5.611454634867637 3.6670306782646254 1.4976251682468722 0.36962950377594406 0.2037442418026233
Ni 1.4749179368327194 0.9854153743798576 2.523387020426412 -0.29200044313755524 0.4777441345976998 1.0616804861834617
Ni 2.0588925680517653 6.289404065852757 4.855269420032622 -1.6636155883394896 0.7076010143269749 0.22890942821434127
Ni 6.191713310467685 5.725880752420017 9.357818705284213 -0.6200184420203 -0.6571839953270037 -2.1338844976060667
Ni 8.716221446457979 2.2580442819681905 10.200906650578297 -0.8049123838856395 0.7073027663602658 0.3412391255587091
Ni 2.299823919231903 5.195122945467193 7.248737229114164 -0.2718566211998285 -0.3824371970635736 -1.0349209587014305
Ni 0.5058871239437297 0.18235215884183015 9.185329651028185 0.18910618017447434 -0.40707762132007314 -0.2302386885487261
Ni 1.4095135014365503 1.0355672133544984 11.551550735405566 0.5835607134138981 0.4187815400205626 -0.8438622827862757
Ni 4.1831895714997 6.756520482046162 1.5666966158692213 0.03777876141067042 0.08466591288051226 -1.1136797620688885
Ni 5.721260671346276 7.740661039534831 8.050127812560916 -0.5653385339789168 1.1078071053381955 -0.07941906265927612
Ni 4.982581133566012 2.722303661724604 5.020454044739777 1.3845652776046993 -0.4856081107268088 0.09179789593960319
Ni 0.983073689452071 7.395529229695465 7.031401744051931 -0.536892619933398 0.31754846680998855 -0.1375807586016727
Ni 5.421931857044234 4.224092207072311 7.592286819407728 -0.6689066830805707 0.921989880327638 -0.1337071345788794
Ni 8.175653878321185 7.256095002064869 9.096696424448737 0.04531492188671551 -0.4964720500245063 -0.2496435754378991
Ni 4.289514724977575 0.494175082802978 10.645237297061247 0.6485265767623217 -0.9820086840834313 -0.21616549828511158
Ni 8.22604078991406 7.130466770128213 5.049659105178912 -0.06926989004041618 -0.259118861918186 -0.482239194254576
Ni 7.041925764345149 5.9370211698663455 7.006722735639243 1.0151962265789936 0.11462877779118968 0.06942904132609978
Ni 2.2800235717730133 5.408577924077667 2.649349778781324 -0.6024567789874528 -0.31796344286022016 -0.2122129413952668
Ni 2.3101219081614355 5.479660267329627 11.319024134452727 0.7319048811796621 -1.7887815182165772 0.37958764342992046
Ni 1.2389321518900298 3.287192204594007 3.78784625040568 -0.9005245113650104 0.45047964245479194 0.033624887143296936
Ni 3.623219471104103 2.604288166116891 2.6288523505968264 0.5655388229151809 -0.41982643634530925 0.36828738792575283
Ni 1.0060023109843748 3.220286920942964 8.343154872443394 0.8392155280428838 0.2914810802989754 -1.1150162214921249
Ni 3.525347890628082 3.029010139737357 7.455989002979639 -0.9071456162259538 -1.5016188627872977 -1.9590685088020192
Ni 3.956299288631733 6.771447593303982 6.1299181438868535 1.5000823715381133 -0.6372363485604832 -0.5788882476388933
Ni 0.8330413032409689 7.27875238596075 11.385359819067283 -1.1743449411594291 0.8766525898434192 -0.12830241862354033
P 0.126459123229566 5.48469624611255 7.877162284190236 0.6740661157943231 1.322617118036677 1.1115030661325438
P 8.443193641634435 1.6297222971939596 7.848499699023947 0.5113998749789321 -0.20048742542822248 0.3595116986156518
P 1.61277898617206 3.3524610211719654 10.404585320646625 1.7200677577899475 -0.40823538907360013 1.3204170250615648
P 4.19335194161102 6.004378516244762 3.53029707336735 -0.2957786792330648 -0.05424924826186786 1.7849428611967777
P 6.88853183969331 3.7232428701624136 10.095150192011454 0.6046460733292878 0.7711782248579879 0.1484830073364733
P 6.259088739355197 7.8681698524173544 10.39496542580815 0.3034940455994515 0.054366490566022496 -0.7766256211258044
P 2.5413610344667195 8.390853819059314 5.730009893371832 -1.8881171172941225 0.6196448607309651 0.1647076967254518
P 7.095811641447882 4.060897562491048 1.4887817965557615 -0.5673843607643518 -0.20065711823686733 0.146071055460871
Ni 5.483132109075844 3.3641242395381608 0.05341844424263024 -0.401053012392548 -1.0487056711903486 0.5878919937994005
Ni 1.5227823384068582 1.0944348217128697 7.086251418889421 0.007991502845908818 -0.003269157669575015 -0.8498035879713752
Ni 6.884264367546918 0.7281491886088625 9.123095983601804 -0.8305519388306147 -0.4888405016211775 0.5716505922398736
Ni 2.783295964901624 1.5514883215949753 9.228150840815763 -1.6024094491438146 0.49707548793646 0.5804069982762649
Ni 6.238528926514322 2.1077424663715747 2.2561908247859654 0.12417271272588293 -0.20261347063228974 1.100914234873104
Ni 4.241487580821582 7.021402116522464 10.209164028356472 -0.08311888010836653 0.09910805644777125 0.9638253283061853
Ni 8.014936537485921 7.57113751677036 13.152308469531352 -0.07951702168972112 -0.43955039713679783 1.2173556403930001
Ni 7.793118398419068 3.773412791646149 7.855658564374608 0.3712402999064897 -0.48097318305795866 1.7600841502818847
Ni 2.9505682152837815 8.203482859818202 12.564415358591447 0.42186737803473795 0.8430752681086061 -0.5004657445649316
Ni 0.1284925013772849 4.926633850426463 10.06194889706235 -0.740852320180937 0.14390207283401021 0.21157865024537753
Ni 8.688600413815555 2.4397463746080597 5.725629405543598 -0.1731915658267469 -0.625790825727703 0.3832044142469013
Ni 3.543349028432032 2.935722475316888 11.722505488764895 -0.5006886592090151 -0.16845970756871634 -0.867888470497544
Ni 1.0131177783132088 3.1297297153958206 12.805529343113443 0.6473718943325883 0.7682373970621091 -1.1888297650391655
Ni 3.1991665503201476 8.424550574757617 7.963480045480085 0.14764637036779088 -0.0509302111909639 0.20761323783972632
Ni 5.851843510774929 7.989657189771283 3.599292695069762 -0.3662518455529628 -0.6630635940362323 0.27987306374640186
Ni 3.1849808219352163 8.104860855214744 3.609150374902834 0.4846184931200299 0.13256607899590073 -0.4754414546064522
Ni 3.3349752348772195 4.370596695759002 9.33217409088586 0.12428815525782466 0.5346663017060405 0.9379931977344298
Ni 7.224676642512521 6.0648283441489355 11.25131237089605 1.435553081506476 1.4506819667281146 1.3225638962012383
Ni 0.7476782984313294 0.19947539082922372 0.4191778763319766 -0.8103106720830755 -1.3245439027457448 -0.047380289056176465
Ni 4.584684562187796 0.16695490234754257 1.5377293404246835 -0.4780878910903637 0.2747599108895526 0.32702503884185613
Ni 6.249251854407583 5.66308019833351 0.2470070742360168 -0.3116017623082505 0.8932968832683196 0.614182294954497
Ni 7.986320966843278 8.899487676134555 11.169479975987187 0.14490428884627948 0.2934394895769269 -0.015685529056056854
Ni 0.18464140449324154 4.840018631862003 5.794955937162446 0.1640690347001884 -0.3174435658010081 -0.1837837395202964
Ni 7.846362346448932 9.153908579099472 2.2909933259154203 0.3822003984624192 -0.9885097184267426 0.22122748618905125
P 8.5800872767372 1.7148999562853768 3.5286687434233563 -0.1906005053318137 -0.4606398708172454 0.9538998416623572
P 1.7646268562962877 3.2289936490721467 1.7290223958884754 -0.11533120317485297 -0.6320668885444017 -0.8023669917559666
P 4.672637886425276 1.0002430318376565 8.340085366524539 0.5486286774234036 -0.40846987368190946 -1.2579734139143626
P 8.462071781129486 1.527990101026183 12.486949889628995 -0.6376063303053922 0.2692384668506912 -1.5907842062000606
P 6.335903237990233 7.745950173445082 1.4375043213899645 0.6372970265950896 -0.12071380764300502 -1.0380309650853219
P 1.8257547782915189 2.9793646110173726 5.8547556988646585 1.1527137360428987 0.6537744554248224 1.5226453444402939
P 6.8614171173055425 3.876238979614166 6.001903924875128 -1.3718791974965987 0.035099414806294395 -2.021231355484009
P 2.2596988315503714 8.502377693901966 10.278199431578892 1.0984801715103145 0.5642170187799638 -0.348297060846755
