# total energy = -340891.92385655316 ev
CRYSTAL
PRIMVEC
9.05038221610362 0.00000000000000 0.00000000000000

0.00000000000000 9.05038221610362 0.00000000000000

0.00000000000000 0.00000000000000 13.24614919992166

PRIMCOORD
 96 1
Ni 6.2798430862147505 2.1715125335564602 11.352241180022602 -0.09635646184456308 -0.7165649083884821 0.5287573924207731
Ni 4.486075410143535 0.5099582727197771 5.866599914135746 -0.04959246621614685 -0.08561439283671061 -0.056042849827180906
Ni 2.515092197764432 1.3942294979471184 4.655570970328106 0.7081805409795288 1.181327028904217 0.3707996128246453
Ni 3.4857638028966234 4.399662359703429 4.9998918608485035 0.7839625211068498 -0.2776914827140508 0.09169608025441627
Ni 5.407340978162976 4.7160546754067845 2.7065593711196616 -1.3403471883265885 -0.9759689056472546 0.08677653146561184
Ni 7.401837083822702 6.139562160175618 2.6754441566859497 -0.3245544658141765 0.09135772307839105 -0.29572365762541325
Ni 5.2582449797391915 4.436325458502431 11.86629837089742 0.7854025959874861 0.1986398306965224 -2.0943586715973024
Ni 5.603001193649427 7.63635059063083 12.195928680827707 -0.37613876564937154 1.0736944799252026 1.3698631955078344
Ni 2.1230748873524967 6.0882645931569215 0.6859529124520068 0.20729107861361717 0.6117744568439528 -1.9586429912288268
Ni 2.6226921932276084 1.8043204218622888 0.4408848497763411 0.6340039576661145 -1.1912633141813227 0.05788016014623581
Ni 0.4494383661117981 0.13921479100123443 4.943277194213808 -1.151009094646966 -1.0118666479851282 -1.2408593799418952
Ni 8.78393906945418 2.5040597817101284 1.392024824812723 0.5267210787170349 -0.36723195007804493 0.24029067346808938
Ni 6.876905858584271 0.7547946456079202 4.772905557020166 -0.6124547707404291 -0.5020197193156128 0.1749669125596148
Ni 0.7673683417721889 6.934964061199821 2.4461002282619217 0.4275034932745928 1.4406590352744737 0.7996110262773841
Ni 7.500721561106802 3.8944519175514025 3.8636236002373963 0.8886820102041275 -0.15832493312755958 -0.33660214100733
Ni 7.655166335484724 3.8980901712460945 12.668643725241443 0.6204532155648734 0.22292544271676445 -0.46676938075375096
Ni 7.96007371601752 8.759738347116848 6.830522649168106 -1.0555761730579372 1.562833229513089 0.4871751981036126
Ni 6.983275002051233 0.6521470193530411 0.27439311148547185 -1.2479558817773604 -0.8244314277551738 1.5622313342630318
Ni 1.7880478344417494 6.6094489601127595 9.18113138847961 0.9315243021806344 -0.2738695378647993 -0.6429909916560732
Ni 0.08812900292894517 4.930394880012253 1.4240541278612704 -0.37205996759430765 -0.8621402551598571 -0.2613690914049434
Ni 6.188162713261433 1.8416079970417225 7.044686371318234 0.9950418631183058 0.2653057074551882 -0.8069263289918748
Ni 3.6913251366467392 4.074536425056347 0.264857628667741 -1.0897947279211746 0.8842525136778641 1.4608722769975548
Ni 6.131878385581604 5.627355772486285 4.864197668571736 -1.7357774552157204 1.1478648925910295 -0.3520058771569099
Ni 5.32300046527532 2.5545971166135164 9.120013251599941 -0.30020843286964427 0.856067823713532 0.6787516941954505
P 0.370853896382909 5.510913553491481 12.487052329079368 -0.34827263536672276 1.4494419236734262 -0.04048716148076899
P 4.0506615164827195 6.095052379900751 12.729417042554525 -0.3461800145037522 0.3201604505115389 -0.4140016021334161
P 2.057016146761553 8.329618927116218 1.3547236740598014 1.6375546295863797 -0.14601320563974207 0.5212523422929798
P 6.2023989646588245 8.028078288808361 5.863964442802676 0.35033286032986116 -1.4546250105362626 -0.6243245255948215
P 4.544061209700484 1.1763596442348592 12.38054018957167 -0.43308741512027343 -0.2766339879838139 0.3884867456917632
P 4.138079159360911 6.216427057262737 8.192995260574662 -0.722801119106181 0.17184687887339437 0.5440937656675275
P 4.561166432294932 0.9326509489844241 3.5641681700172425 0.6859618387906444 0.4116927514945813 0.8093873889378577
P 0.22529207225707823 5.529367283052371 3.912356288905158 -0.515660450027499 -1.1870101953319234 0.02411720476317782
Ni 1.2523014023248173 0.9238811285113971 2.716877712008514 0.22479720581818058 0.06938738945488694 -0.9604031899985138
Ni 1.908372667454024 6.324950191723075 4.99619568470693 -0.13657545726560996 0.7916066679156689 -0.22850036570138066
Ni 6.368364875736605 5.732340207457506 9.164587289589317 -0.9966128071498513 0.11228496014936146 0.6719698953869266
Ni 8.648789710193382 2.430968894052578 10.380239168688622 -0.05256568991185786 0.42195788086601527 -0.7289159737546672
Ni 2.4263441486844495 5.2713499333459435 7.205997670766213 -0.3067359495755169 -0.4105810064876413 -0.3025987874786918
Ni 0.39502656253503265 0.35776613850257427 9.269933739853542 0.44052098858018324 -0.5566883145030865 0.2499425947355566
Ni 1.5276773853307957 1.3409679979638738 11.536601088137926 -0.05462077266867368 -1.7348803973227478 -1.6196895763805006
Ni 4.261535424657672 6.7849358733965515 1.6896394072679497 -0.08625485463418693 0.6073842981960572 -0.24567173527434463
Ni 5.567378888817812 7.857541934656402 8.013761489008278 0.02837135205384146 0.2661935093767802 0.21585310925101533
Ni 5.250850817379581 2.7196941909880867 4.700594812319039 0.008928669948197526 0.3321410199121828 0.050716295407944915
Ni 0.7021096549787849 7.469751152790292 7.043149616399432 1.6634831765266835 -0.611996857267404 -0.9393939347366983
Ni 5.055787927126587 4.545092953285545 7.166762453310417 0.23670501299936011 -0.11878959403709863 -0.09263864667334368
Ni 8.251360271151034 7.380505332682429 8.83071778057795 -0.9605978225078231 -0.0960031922702024 1.2441714750342638
Ni 4.723883256118001 0.10158239625521416 10.378768481560792 -0.7834675837483023 1.0432801292994032 -0.3535086869546815
Ni 8.070931849117734 7.14982013759782 4.768839220241496 0.1626382157909328 0.7082643589425868 0.4407747564622022
Ni 7.225589938423602 6.033545981619335 6.95248017115183 0.38035306084103526 0.5981818057611826 -0.1414456408737177
Ni 2.621017872497464 5.01486209825246 2.745966545839635 0.1365543742196874 0.7975765123458587 0.9095583394325046
Ni 2.3640775182877247 5.347137834936375 11.242828392979707 -0.7370162342642984 -0.6696199070975113 1.2342984388949259
Ni 1.0685152884489044 3.289298103383238 3.6951326324909113 -0.30825290044067555 0.542151297229176 0.1541594888959603
Ni 3.576837800234158 2.5898212046228264 2.738614920276952 -0.16746057688024063 1.0528078662841804 -0.7349927760763665
Ni 0.8408058590727906 3.3374370869704726 7.991931966840124 1.2733555527973877 -0.0671962953408391 0.9506121720500209
Ni 3.4536711471718 2.800468853239652 7.1999311994936965 0.6577478382502736 -0.6152277054998759 0.022835766947592928
Ni 4.048136459814015 7.169640474889801 5.9961742378842775 0.5792818835328861 -1.1945237301001492 -0.11578243177965865
Ni 0.500504243342972 7.3966874162797165 10.945717011781756 -0.722611114582562 -0.16855920926105808 1.983536926257029
P 0.15233151010500948 5.60242196918062 8.05866586595252 0.18730049442430322 -0.857174940734782 -0.15249084294428578
P 8.359141274260713 1.6546089974403975 7.949464857856032 -0.12231149114742806 -0.07089945522403919 -0.19484513954078056
P 1.8980371308387538 3.3892143242524 10.018261887290176 -0.9710727538972178 0.538796264714014 0.15425539104387626
P 4.084736205936741 6.217232541289672 3.912700203433512 -0.0739798939215758 -0.46788318264322 -0.2629114961913988
P 6.979410488798413 4.029329765342446 10.389643420962637 -0.4017338405096565 0.3702301134744204 -0.15451687223537908
P 6.4454922339111524 7.820598274005324 10.139158704465396 0.4790044893673621 -1.4838684807824123 0.6590501020014651
P 2.2729311178915896 8.561118656610088 5.836796100100941 0.7532800044213286 -1.5359754858902968 -1.2811431671626063
P 7.0118651598162405 3.837162997433486 1.5345267146744355 -0.2882582024863035 0.37604312061177175 0.46693727379018285
Ni 5.4004536372135705 2.6062747996898676 0.5695830965158032 0.23962552908026477 0.051974336184762104 0.013008496444525983
Ni 1.4544235907913936 1.100960909084407 6.8867526745539855 -0.2811164492351997 0.9485416626742373 1.8655901398362003
Ni 6.9068988256096695 0.6688857014633233 9.285537504020256 0.06386517408507711 0.4302219206470203 -0.6218876340185548
Ni 2.5958668600159966 1.538266332651169 9.119563447598383 0.43903386251169546 -0.30755073216732837 0.8406751433075457
Ni 6.595900537772076 1.6609985673619216 2.4803016230684944 -0.45416146218175335 0.6384457954875521 0.451129617333965
Ni 3.9206165728532816 6.8543794569770835 10.53858375281043 0.911332914834424 0.18173945539675798 -1.1117090114957628
Ni 8.316197210128088 7.246043802478339 0.44690154394607107 0.006391248238324476 -0.13417790356771084 -0.5766367326005553
Ni 7.585234031258635 3.7618366653416344 8.049525884842396 -0.8946742232318206 0.1700627903897781 0.6720794243815974
Ni 2.963113274004119 8.432657529887543 12.275232655951442 0.5932851397905138 0.17267143165721874 1.662520555503098
Ni 0.10921729878467297 4.890781356575267 10.377920460736929 -0.3377365117220893 -0.5271987896844017 -1.2065616351012898
Ni 8.775558415421132 2.288316767844269 5.796501987913108 -1.0374781779056457 -0.06566597473924174 0.2924275033726447
Ni 3.3809332244249286 3.0342130775501457 11.444712556391133 1.2845177400617942 -1.5812132746821734 -0.03624458415433113
Ni 1.158729499465554 3.382589444390423 12.416795116127808 -0.9616946551164277 1.489038712129442 0.9891396387012577
Ni 3.003930498290343 8.474678455023007 7.869643200863301 -0.30174029613313835 -1.3673278306804904 1.1585303427246756
Ni 5.467335962596098 7.951548255867271 3.572340665256813 1.8827689656083315 -0.09898747170950695 0.3043131990666372
Ni 3.14207553410075 8.260989877944946 3.6584279019332144 -1.522339897384733 -0.15546663774315808 -0.4806949896959076
Ni 3.892831899115208 4.412830665986458 9.429191507551955 -0.5971515647244555 0.503935448281087 0.03413936488587024
Ni 7.333054178151902 6.216906727525968 11.53093192864948 0.6053536409192737 -0.6986006106005775 -0.5441135631618693
Ni 0.5802770282711476 0.3355555952385334 0.2995939010697275 -0.7930351728320794 -0.5364362491222696 -0.12709734257184566
Ni 4.630347554788038 0.360717468178791 1.471581305603328 -0.2525851745647263 -0.6186963807747666 -0.8393230001550256
Ni 6.0995775710633025 5.638062374776885 0.45071628009610293 0.4929313838610995 0.606364341571975 0.6405543571901227
Ni 7.780043510806526 9.031883343632764 11.495365736188283 0.7532856608482833 -0.9792432055231522 -0.9776401227020906
Ni 9.107037718460438 4.545364464755299 6.037303700360719 -0.04778858023818867 2.147003551486528 -0.8145558205126746
Ni 8.182631667774185 8.660446602628117 2.559712392703666 -0.7945557232416639 0.5568837183433442 0.21824732051480478
P 8.3751423502115 1.8513371580412106 3.7237309356000114 1.2905945423834935 -1.5450831046185198 -1.563374960949172
P 1.903811274762171 3.5725207678650825 1.4336574885464397 -0.7800063646725793 -1.1949201942076195 -0.06018952500570279
P 4.523163876911815 0.8198831852136124 8.147388573961992 0.8087638964212458 1.7365462150609448 0.15337478821113584
P 8.402646462097493 1.8192264015517372 12.486085748247046 0.8982789098639433 0.602937061057981 -0.5435126963530769
P 6.362518328754588 7.729687183549641 1.4124895493262508 0.1515001968962423 0.33176820995379636 -0.1471732873861143
P 1.8729675717982122 3.278564349945663 5.903742683197978 -0.5390073522835556 -0.48687000815836795 -0.3370932217111356
P 6.7573141065403295 3.925467577779538 5.976027181790361 0.39402541612180525 -0.7480184989120731 0.20599447128938073
P 2.203496584693382 8.486697362750746 10.287237439915838 0.6725347667514611 0.9303292534312688 -1.0190431111289096
