# total energy = -381173.30036393803 ev
CRYSTAL
PRIMVEC
9.19676163688685 0.00000000000000 0.00000000000000
0.00000000000000 9.19676163688685 0.00000000000000
0.00000000000000 0.00000000000000 13.46039027849453
PRIMCOORD
 96 1
Ni 2.644234541083933 4.404356786109805 4.568618308141092 -0.8558274255679518 -1.8623307523586377 -0.5796495512849501
Ni 6.772210243474964 4.052415107960263 11.16480161229469 0.03267897829025985 0.4123388697190124 0.6450216489328569
Ni 1.2963203538698262 9.147292355565364 10.685745972121742 -0.7158378004144704 0.6161607588371066 1.311086234578942
Ni 5.012409885109886 5.718813154124892 12.404719146107986 -0.4811742433251714 0.10479867907464531 -0.38936580586260683
Ni 3.733315065973364 8.79225136871047 11.435584627144184 0.3146441486790001 -0.5154881861156928 0.4758127219029419
Ni 8.084707701240083 6.184905038953438 1.7299430713860753 0.8414521306828863 -0.09236790951046028 -1.1603553117485563
Ni 7.314718021575814 6.237639270753101 6.051198838116988 0.34967028704519776 -0.10061215179712352 0.9227308722587205
Ni 8.715955033340748 5.280927737543568 8.001717962678207 1.0259650350597234 1.6856851665450194 -0.7659432017112938
Ni 8.709333364890144 5.4678887068939925 12.494445512642175 -1.0486334231915166 0.044816899204374434 1.2655712808662785
Ni 1.9829137981034466 5.365942603039919 8.3991081979794 0.009623382022376975 0.4119395773980647 -0.514056852985805
Ni 2.5808320656694104 6.925455884297736 12.303833428882184 -0.7210612535969388 -0.31660847149422244 -0.040337523276782146
Ni 0.4864700694852757 1.30972003572056 13.021500891672606 0.9999570410317358 -0.0017694331955969524 0.23659779799753444
Ni 1.6941722666102144 0.8054312403699467 7.668680228278963 -0.33985381517540825 0.8727236871026584 0.33185639879222845
Ni 7.975486958852083 6.03023390006144 10.255498466162953 1.6591655229879363 0.6806039169128407 -0.08147954473273064
Ni 0.11715111003376993 7.544186423674413 8.68648768905939 0.17454216631737035 -0.1514271775664618 1.650555926942054
Ni 4.098518474547585 1.0567906944310048 7.0516290175954515 1.1374840635773378 -1.4303319423168528 0.3337914110314122
Ni 6.28583030225471 2.4156306345886063 9.448359387138455 0.28520347482037983 -0.8752739643283377 -0.5595298977169396
Ni 3.9034183710599613 7.915487285280231 6.667953913072569 -1.2941791744109583 0.34787488570767183 -0.4699760606165067
Ni 0.7244059301150839 5.245639762758897 3.2568896996571834 1.098996706135417 1.3350154917010297 -2.210831701686083
Ni 7.944898529314992 1.9856360395775834 11.417426540770753 1.0066869035564017 0.1370246289878866 -1.5753737851822611
Ni 5.196519858321857 3.0768226229047753 12.768459349889858 -0.31517353881990884 0.2095546778368133 0.39471421465871376
Ni 8.465490424196695 1.4359547873219138 1.7651951787999725 -0.10348433113859597 0.5664201970788697 0.21039954233561184
Ni 3.2346114640255994 5.321623408229565 6.439356444310459 0.17711661191276593 0.10196455205995988 1.3447687144330518
Ni 2.834451164089237 2.717541928889149 0.0376671770460196 -0.5968150073206431 -0.771324263517549 0.3110417760397224
P 0.587008149117422 4.539503199834261 0.7627959726336276 0.07539451488091532 1.169235902067638 -0.22606398834574618
Ni 3.6107222320198415 6.406841293189477 9.974068360250595 -0.19225063934072698 -1.4335851591468278 1.3914622618348487
P 4.2129261905552235 7.490045087328998 3.577475938340773 1.9888030597519752 -0.4401939442580676 -1.2420168905851061
Ni -0.10476399165027411 7.530078591169935 3.9847738450611807 -0.11453647518769952 -1.0298476579435811 0.2438963885414767
P 0.3397256195343532 7.197726015520093 11.385282938823943 2.092127468273939 -1.993532089796528 -3.9864067485147157
P 7.465655275202611 8.329286382872489 2.506728238297775 0.07958052793780487 0.11207335835918764 0.9440088078008904
P 5.374670329928283 3.8793504455943677 6.582063515858861 -0.7780024468686729 1.0087461000782758 -0.6421764661745779
Ni 7.370542365319091 0.776908403518975 13.224497334787573 -1.8249499977173347 -0.33866005197762317 0.21623131852604052
Ni 2.05658905637814 3.251000093440841 9.743061339913403 -0.6769380380254792 -0.15760785245587697 -0.06561018180064185
Ni 2.154764487920065 1.4953566713808637 4.104006182276022 0.9086579391054221 1.0806763105596742 -0.807020688477894
Ni 6.374257166355469 7.855901465986543 4.342968401515674 0.5370805675744879 1.1345704894749684 0.18706858091915524
Ni 5.518323748259418 1.2581170056145425 11.225170995688368 0.02486462445216363 -0.44104369385287273 -1.2364342542910063
Ni 4.911355867144297 8.254001691293828 9.464336921304056 1.1530112126786596 0.16415105289103343 -0.8420370566520788
Ni 8.190516445023674 3.9629766000684397 5.954715610734662 -1.6953859387725512 0.09891008150435222 -0.2695516272157357
Ni 0.14987502764617974 8.385791286984299 1.5967390137404618 0.26425489759317067 1.448885536949324 0.2598218015224816
Ni 2.557987309514831 6.869907443406567 4.650470407276107 -0.9694802125991174 -0.27176277593444165 2.437909476008324
Ni 6.7102792499383535 7.799286200733889 0.5726428072843086 -0.6139552665453555 -0.517935876325237 -0.4489575493833106
Ni 1.3985055735290601 3.1769845549818805 2.152975717762228 0.8877273596003421 -0.24001762231236082 -0.11825994678587375
Ni 6.957754911517898 7.5090364003157966 8.143159559811606 0.181347619274978 -0.2723605574194406 1.3485870597378775
Ni 3.6495877471201856 3.172937979817623 7.886684866872457 -0.2221533404374303 0.8977960566902538 -0.5338052392573258
Ni 8.329084054114276 0.6124013279493103 8.099143858138572 0.3593885427742262 -0.13901517705535413 0.6344338461146817
Ni 6.770159365607624 4.241279806990235 8.21910273953063 -0.8792242072253373 1.4259045026731185 -0.03827524143111473
Ni 7.9868265660737405 8.672978565743987 10.601713320778897 -0.0035632918712261213 0.4764164169252118 -0.871309323253635
Ni 3.8941020514204325 1.3905503746265997 1.6232422417139998 -0.5943632033460409 1.1841328737841283 0.7971936750851432
Ni 4.870605015887878 6.318892660699039 7.856628010163762 0.417742557233087 -1.3850118782238148 0.3492504258989598
Ni 7.911735006491557 3.8190564756469336 2.1652386798622754 0.22996229495888784 0.7065370918388348 2.171524419446028
Ni 5.987459761222892 5.866871821328026 9.812907066600832 -3.065534012510656 0.36085484290710756 0.3667526964487813
Ni 8.853832885301077 8.197680722416756 12.805946270405833 -1.105099219488729 1.768108049027626 3.2550027182308714
Ni 5.124159736975546 4.532348119202916 1.658454803052428 -1.9508993427276664 -0.9300693149016628 0.23538860818078172
Ni 2.89537971059652 4.923164509214538 0.3795834652261139 -0.13830323858999408 0.9258143962800506 -0.15359410331079357
Ni 2.6152187578038606 0.1307604780521062 13.571169268461842 -0.2557599727482821 -0.9095696522864142 -0.3787201532233026
Ni 1.6649357610484554 6.840284673851856 1.351584614823323 0.12984713740284087 -1.4578553445481024 -1.5127250000027883
P 3.1086066314676692 4.654591476210434 11.624407021070168 -1.423370166287039 0.49843405884688347 0.4421533819772836
Ni 6.131986871919037 2.257924564323415 1.4815045088526722 -0.01642883497998461 -0.1208009680401726 0.2249334742857287
P 0.355539451341036 1.7031207157802652 9.635135501577967 0.4736205993476294 -0.8304354678574086 -0.020588879894945185
Ni -0.0006732029591446237 0.611682141181481 3.8077426193581396 -0.3253563928901816 -0.12234440126789253 -0.9907674041126678
P 1.651278569869087 1.0337252159947383 1.921686356839713 -0.9404858822492964 -0.459491359035099 -0.8099031522320117
P 3.987513560382618 3.4574306073883854 3.1882285158814736 -0.1448883480066795 -1.1021931015855277 -0.562883901790837
P 1.8090030336577525 2.5938638770506666 6.07103993188828 0.2567992126460738 -0.35078845981004103 0.32184015220680706
Ni 4.277064406908702 7.3797575205795125 0.9212037558193481 -0.7638667787982394 -0.3796925444389009 0.002618925680085812
Ni 3.497648046464061 0.993314644922587 9.468846093583682 0.3636234067911802 0.7264019490835619 -1.0768412530843003
Ni 6.862145376500583 2.2816062257960574 6.980962020084913 -0.27497691199636515 -0.4579147585765985 0.827491040517104
Ni 5.409296137867894 9.103506572935753 2.301700230515116 0.7522369078687948 -0.7681875176607802 0.7048152240517216
Ni 2.761024218381441 1.7375993755320849 11.432852269232136 -0.28262388701866165 0.6044519550406107 1.0093536517552875
Ni 2.245637690642852 8.411965270887654 3.0413755441420554 -0.18534851290425497 1.193231236540971 -0.8181700202264943
Ni 0.7774611288993656 5.47835462175064 5.541077456472801 -0.891294251015994 0.9375846494421013 1.845533735405957
Ni 7.8153989272970215 5.410445733085013 3.971811009392952 -0.10118036559576768 -0.007399120677548549 1.276009702590783
Ni 5.201044665096434 6.080972434564185 5.433771479878435 -0.843768951741521 -0.5599700705781517 -0.646707521275712
Ni 6.102915908068543 7.829589530657134 11.699044260622545 -0.5524719624288937 0.24180351056819002 -0.03909902288399073
Ni 0.4919853674989237 3.2903346433897696 4.360102888307782 -0.6951985268975641 -1.1413995965816601 0.1744118113870932
Ni 9.471836880500538 3.0997501499149878 7.651572412095892 1.3313182453551007 -1.2586879234828838 -0.5169889390309355
Ni 4.355292062243184 3.775629366725063 10.250302295781578 1.1063140657324366 -0.33614371331367265 -0.39146202627000326
Ni 8.721399516289022 3.653615928760969 9.691938380770056 -1.0273881406594951 0.15475058551273993 1.7076814683104526
Ni 6.158593103624029 1.2961364186350872 5.111112291099337 -0.6056508604447182 1.795333203292166 -3.4679839052507306
Ni 0.9496944040042405 5.315847841858761 10.481148372788372 1.8114871873442093 0.8733551500390702 0.4396059329650816
Ni 5.969774388402742 6.176729117769291 2.923623885566862 -1.0980027176532638 0.2257587984005015 -0.9069417277452638
Ni 3.0669820878462404 5.707648285376238 2.7591508380156244 1.7098067421835714 -0.49560764514168193 -1.450185229597354
Ni 8.876227000130546 1.3852346463426435 5.84941452819895 -0.13528656325085733 0.5815079446499276 1.0488679077998257
Ni 6.008023720466709 3.7814785071897625 4.071148911618427 -0.5756121479907829 0.46118803001123154 0.7427734484630498
Ni 7.991452537227426 3.1614972082168595 13.582072029500994 0.06858366260666898 0.25617417746756527 -3.004735650276361
Ni 1.546315928165295 8.97923073158437 5.508812457271066 0.6152390183537856 -0.714171468455641 0.350732409761125
Ni 0.9349887819868602 3.5303241409154382 12.14035731030323 0.35278363586319883 -0.22651701672276472 -0.21581788513770575
Ni 4.042804491945152 2.51019173876791 5.258233808281475 0.2610021949838279 1.1817833997153453 0.0883508179312672
Ni 4.091427771248398 0.1434704027725689 4.600815251305975 0.14002767748026854 -0.11255441176066422 0.33143113832935184
P 6.106741760951114 0.5168791621684956 8.285327701122222 -0.9596025484740892 -0.19547197449150205 0.354051446832029
Ni 6.707087973615633 8.893029483823952 6.312316976057121 0.20596387516176143 -1.1683753538395556 1.9559926980901732
P 1.5091150269393385 7.1596514219291265 6.970153985691652 2.6618690164165577 -0.7644697024895608 0.4663112101704098
Ni 2.3598522746540143 8.10529925076911 9.0593271689038 1.4527648173990724 -0.7283122787323972 -1.6911659871539328
P 5.097737440505293 0.6335299683637755 -0.3562991038605079 -0.9394805809132336 -0.865399128416787 2.377555657510615
P 6.494403661686963 4.901450954753604 13.705908265641353 2.5113031584091265 0.10354423784225393 -1.5893503019670112
P 7.646399233618858 2.4247354287081855 3.8399533576656277 0.8738344036683339 -1.1500588149185547 0.3004704282817793
Ni 8.862229528766912 7.838933440581872 6.4734782697068844 -1.0568313856212768 1.0669507334434656 -1.3460105572599528
