# total energy = -340888.617674774 ev
CRYSTAL
PRIMVEC
9.11829008922557 0.00000000000000 0.00000000000000
0.00000000000000 9.11829008922557 0.00000000000000
0.00000000000000 0.00000000000000 13.34553923647116
PRIMCOORD
 96 1
Ni 6.70695824533722 2.132075052352294 12.027413925248954 0.10985166811752049 0.2685445261074601 -1.7232068176395612
Ni 4.8920811489098055 0.8275331488587492 6.2691471959638685 0.26955599809110997 -1.2334916267229146 -0.006496663467937199
Ni 2.9518731557627125 1.8667692850946886 4.957934351470679 -0.24404114164945717 -0.2630395371288309 0.7894099173746663
Ni 3.7360916914030193 4.877874853013897 5.001920982665712 -0.24438618369370171 -0.15973698298373779 -0.4271890473579675
Ni 3.7484652109991345 2.6271982019978806 2.81533496874415 -0.6406754561490192 0.9846641194284074 -0.5806052303300001
Ni 5.25083115258671 4.381985767004219 3.124337405573239 -0.33736241621212226 1.3645672372162176 -0.1918904277878308
Ni 5.413373790995223 3.136071733036939 0.49478486108477876 -0.5299010191069131 -0.7217559656711183 0.5850966904424505
Ni 5.646729069922108 8.40066238530717 12.895474226058251 -1.2901381715723652 0.043000671931242074 -2.011086039519891
Ni 2.060323227958903 5.755391732432724 11.639645875320996 1.4156041491883748 -0.8338542637309704 -0.09801096672885057
Ni 0.8476408020741902 7.769175207982952 11.139762066440973 -0.46484568136847687 0.7841486689757269 0.16253228634068784
Ni 0.5992120778677635 0.36495226456804564 5.06395179803816 0.46280551100999645 0.0013991943403717836 0.13041149454674314
Ni 8.875324092083426 2.7143599365736106 1.6099262028313017 -0.1274336428653418 -0.3904333278951727 0.3024211242502469
Ni 1.6066518248748058 1.3033136698239822 2.7273206740488636 -0.0880271160432613 0.07788205718945942 0.2348589609295568
Ni 2.1452692180527944 6.937568918959439 0.548771520976245 -1.2031577516260632 -0.32770792384149366 -0.9497115146126226
Ni 7.878704108048197 3.889971954265246 3.986846491400875 -0.18097635197848833 0.11618712341724506 0.07832557248478124
Ni 7.431342561677814 4.187784425546544 13.089531498533157 1.2950510354929503 0.10808969112109126 -0.8375851915283123
Ni 8.283173218029392 0.2597518167889291 7.3990875224594665 0.09019995532486401 0.38399194314520313 -1.1093163428938702
Ni 7.038553981249032 0.8743026821766523 0.6311543597374405 0.9106083779635736 0.08087199305571878 0.6912721952599643
Ni 1.7497633871894924 6.653123860889567 9.237515338424718 0.8940882688213634 0.1852976050616615 -0.18107559656051395
Ni 0.055967152490048695 5.100087581501244 1.3046795896732808 0.5542632500013616 0.9124960819045898 -0.08298518274397966
Ni 6.705544910379667 2.3479232143856335 7.185024721617667 0.0699481470543634 -0.538470248833163 1.140159810637288
Ni 3.7531976035344212 4.732675202278053 0.9972865310377906 -1.0881368806027776 -0.3201339681489777 -0.11120638237320203
Ni 6.144624179742506 5.876801764431454 5.032282153040939 -0.6086294834570679 -1.4524511428133953 -3.2447748698552763
Ni 5.454068719482668 2.934475458349752 10.04912430554238 -0.013874701099563201 0.02587635354612963 -0.8566566063374665
P 0.17913336715216144 6.400027484007199 12.649983414905522 1.2682110324819706 -1.6729350659682027 0.27754672960607035
P 4.159198586243802 6.4547919340398225 12.99524564394236 -1.0075034859204262 -0.6209440391583628 -2.4592002670663002
P 2.6125633464696825 8.937219044934148 1.4801537870288901 0.43936656326076584 -0.1847990681586882 -0.026296214692367613
P 6.853552994450518 8.40365318444315 6.053336418919729 -1.2427308859329953 -0.011638098459560603 0.8324807804222115
P 4.648859880150204 1.4493795581144546 12.482722973225801 0.6889949691900135 -0.2065886532299539 0.02781445110910694
P 4.4623179023334565 6.410449689532888 8.173435509122031 -0.21369775347090936 -0.4347313784815997 -0.2598750233579202
P 4.919983116458893 1.1678888260203681 3.9773443213411017 0.25375168406900167 0.21784854241448934 0.4152239045762913
P 0.03744516991408038 5.7209701874988 3.4365430976964446 2.1709281806229255 0.9288148736692714 1.5612298895817112
Ni 1.001863000813244 7.677381382062471 2.5263371484529507 -0.15591092436942827 0.5790137174731641 0.7232232942452642
Ni 1.5995395586368029 7.170276799292864 4.83766410572804 1.1771520715909212 -0.296606831561315 -0.2361062030730966
Ni 6.331457942840813 6.168213196098549 9.58977038409992 -0.24063828661549527 -1.0588831259439828 0.16341751715911856
Ni 8.754151135625962 2.8225758028718397 10.299246296210855 1.1258835032239318 1.098980765295817 1.903042885366019
Ni 2.572944376207986 5.989877679325651 6.7633056305223 0.04114947765511623 -0.394418794905482 1.4105483319320224
Ni 0.8111448461541817 0.374243802127693 9.320510926277187 0.0317387258641776 -0.13043052071013664 -0.030180894458754475
Ni 1.4655098132106432 1.5012535102016322 11.499450342163891 -0.12419970930907641 0.13401206741380792 0.05712271315492097
Ni 4.204616788976485 7.205801657322684 1.556890580591917 0.3901826453369474 1.892365351047515 1.7302115310921686
Ni 5.796159607240559 8.14773013764568 8.43530185737326 -1.1432286793705988 1.7851984288510094 -1.1029330650753457
Ni 7.254566272503248 1.2627372791071707 5.140608350648758 -0.5346724723536276 -0.8435105558738117 -0.6214191790225685
Ni 1.1844111675886517 7.828006415377304 7.159868271202249 -0.9944731350990292 0.9636425228714179 0.1310020769428905
Ni 5.364372100273393 4.445512893773662 7.629084535161407 0.4887425425907325 0.7570811233349736 0.11902227887319501
Ni 8.082452299186881 7.850355344286721 9.110278719084857 1.880901830492606 -1.2570591296302094 0.31241911600322325
Ni 4.832620779502092 0.44701869866455035 10.404889892886338 -0.7297510680614528 -0.5525290409190742 1.4327006996593454
Ni 8.375742098604015 7.490948823726308 4.921514989187079 -0.7373962433115365 0.8586636094651664 -1.3743880799613812
Ni 6.740458842976222 6.360992084308622 6.987217096445723 1.8395402368266836 0.9178822859171676 3.428840916502682
Ni 2.2434549652974294 5.527398008054487 2.8994521062726117 0.31510669013771536 0.2861365281576104 -0.3393326525646156
Ni 3.792196530072804 4.819663689342859 9.521695054254172 -0.7076948595923619 0.03846318907220473 0.3535734787543459
Ni 1.4522062280295582 3.4938825528388255 4.019088765013155 -0.3402448799662398 0.29362692299738463 -0.03534161272408752
Ni 0.7622197490687608 0.3536638214877282 0.5165994581973404 -0.31268034008440987 0.10581040816861133 -0.5760646621471692
Ni 1.211501607323404 4.402283080652673 8.497918978795841 0.5452191375212222 -1.1849106324904175 -1.1277485814571289
Ni 5.315498065612245 2.977057872877282 5.0953405997018795 0.5016592506524007 0.6725057132857386 0.49560250293535935
Ni 4.541099928354411 7.269556741343346 6.0912110602951035 -0.6507364399294471 1.1604632980813305 -0.0025078540235182615
Ni 8.467344440433472 7.583007080058201 0.7762500619667287 -1.3489333873337026 0.011832473858553814 0.5348984723215047
P -0.09269106566127519 6.083021012173342 8.022083748090315 -0.06912230871895837 1.3703074821341046 -0.1665347226318616
P 8.78920184257325 2.2726608483234845 8.22836591203354 0.04819404320672345 -0.882020796133868 -0.3690862296779644
P 1.8803008275269917 3.7724827869874678 10.42724338094078 0.2211719503607675 -0.5096898342663608 1.4083929761519165
P 4.356071586685752 6.52006977249862 3.5604032142312647 0.03825724370898572 -1.3940140817224251 2.0216141927447246
P 6.99926326942909 4.369320462126544 10.674523200601067 0.7500249878191405 -0.5963933464021922 0.49617791582285514
P 6.534795810927306 8.16427983408411 10.559230629396026 -0.17064951613118354 0.4279436661358049 0.7132684970253974
P 2.7054331306159125 9.003928454930596 5.862374805916366 -0.4905441145758455 -0.8259393797592679 0.5293477177066044
P 6.942875763767795 4.009740694055205 1.97247032699748 0.6580951942873634 -0.010726128168252495 -1.9219721181703542
Ni 3.0151996801510847 2.0024038495694234 0.41793955987017206 -1.1704484343185002 -0.207428632632746 0.6319802423678664
Ni 1.421422880825074 1.5430152786247773 7.232695141992384 1.1894229185384741 0.09215656483060258 -0.30986626767438247
Ni 7.438208634084502 1.1099512110507905 9.627819184815225 -1.9696730237907434 -0.7794047265328383 -0.44699785455377855
Ni 2.7890204954925437 1.9413021879529395 9.224716906512333 0.045316464548612274 1.4101207574763004 1.9236543909687838
Ni 6.5543636613718625 1.963395804740992 2.824396725394569 0.7497030857033475 0.745648970238632 -0.19987241755204288
Ni 4.162143793929539 7.063966655614819 10.878603297497525 0.4510206025599265 0.21641720928460145 -0.375515787353392
Ni 7.26910082684091 6.707678590251068 11.989165433981581 -0.5183989320045848 -0.4731873684649528 0.07907299217376704
Ni 7.83324031386527 4.223993155330018 8.521446902608558 -0.7091506182022819 0.6801156644225126 -0.42288296378344586
Ni 3.0899605402605532 8.910876304983391 12.390518824253128 0.27554024069900285 -0.13709456299387357 0.40323330787331846
Ni -0.19980361886360856 5.495073669831769 10.638209610482033 0.12306533859431709 -0.6849920186782075 -0.7448413867356721
Ni 9.068522421635741 2.8358429148927295 5.9345743383511484 -0.09569877365590615 0.8801909420139808 0.36222498378175677
Ni 3.6649325558627956 3.2868517772826005 11.695777157031921 -1.0118267958861284 -0.14162227566089805 0.04004750284018909
Ni 1.102045653578549 3.6841265564153542 12.727921087267967 -0.16678026298376436 0.06188671020246761 0.2037172452194298
Ni 3.2586580244519534 9.155219123418988 8.076720542062256 0.4234977145493094 -1.4313614120226317 -0.40882031504279276
Ni 5.888737606105229 8.20194749027538 4.030673552520056 0.45835955942350093 0.3135378029886987 -0.5020883677700192
Ni 3.4810895919004694 8.63233989886509 3.705442383062251 -0.9586306714791232 -0.483527059828064 0.00035146980214778177
Ni 3.831961392975279 2.8655594221615135 7.295592194919461 -0.6111656196153603 -0.6311883425941903 -0.619296990473243
Ni 5.293030598932195 5.000297015208035 11.77243370964252 -0.18035363079282488 -0.22088270125512283 0.12028366208412188
Ni 8.022399240926001 -0.1488834399155273 2.7330998462817435 0.039179498412938975 0.45512434031565485 0.6284210642616983
Ni 4.726173861473314 0.7123746165174237 1.7806415646104832 0.11017511289521026 -1.1669175383471064 -0.8071207043908681
Ni 5.98274717650755 5.762011611008096 0.7651266599362933 0.3771983172621375 0.43300025472310594 -0.40650452242542245
Ni 8.200142068845732 0.007258158878782444 11.754084062748474 -0.2507761463804455 0.578953296548874 0.4032340792042668
Ni -0.23842504819397406 5.471338760834947 5.693100133964882 0.9200641240598347 -1.3060597278986281 1.3077201463201866
Ni 7.228834457985755 6.121035163386463 2.784173212502643 -0.5224340213059067 0.9190894188513915 -0.13512149842790278
P 8.85775314715954 1.8979173639011218 3.7931493913828955 -0.10404303185554338 -0.4351293852509667 -0.40663076359064165
P 1.8861091782880273 3.6423009599618688 1.6343349534627247 0.2696081914852841 -0.15119115029625574 0.02091643843769301
P 5.11281671440926 1.2974779641928005 8.538822716125402 0.12466019388526274 1.2572313935420154 -1.6166561888708157
P 8.771904446350824 1.9783771552910419 12.828533211494568 -0.24990068575402768 -0.1712454978439696 -0.7597445290997495
P 6.31899324034421 7.9597201151310895 1.4578668624918045 1.620717503424383 0.16495452262893526 1.968428609860681
P 2.159758180940213 3.9259800816676482 6.287510520292989 -0.8189585775660605 -1.1356521525749217 -0.6444691188634964
P 7.126509007059 4.227740772540042 6.2465128645759265 -0.6700328262652139 0.04880082355278693 -0.9826008091414755
P 2.623295573857028 8.549044319270019 10.233906453379724 0.16089012275157452 0.7718896491027158 -0.43668104600880275
