# total energy = -381167.7274435422 ev
CRYSTAL
PRIMVEC
9.20292880995692 0.00000000000000 0.00000000000000
0.00000000000000 9.20292880995692 0.00000000000000
0.00000000000000 0.00000000000000 13.46941655967002
PRIMCOORD
 96 1
Ni 7.831885643186643 -0.026274361633024174 0.6600699426728065 -0.11538545345155612 0.5888235044747343 -0.7009032905918251
Ni 7.522418757500582 3.352949052738306 10.785972400770982 1.0840089744773331 -1.4077535427957046 2.409046271919728
Ni 4.626744829393347 4.145634119252808 5.856326975367639 -0.6158260012055071 0.9104818796880383 -0.7550100997385578
Ni 4.081535720382751 7.9018002930381614 2.7934496359365504 0.12919664830303557 -0.663228915969503 -0.688000466487228
Ni 6.659929476279779 8.32598168581902 2.8845162972687493 -0.4322204391342879 -0.33010213510528313 -2.174365488439249
Ni 5.3459537126230625 8.608474787285678 10.073789953655737 2.0800461116293727 -0.6213145351239041 1.303548531441
Ni 5.41922743147495 4.924027037390398 7.888849011382765 -0.6544079752437633 0.4029283750383899 -0.8852799265011141
Ni 8.725232344567 1.8079061535712668 7.682982255718226 -1.9350124962940807 1.933654182493973 1.769477418571327
Ni 5.119396012209126 6.167315105179073 9.924481637321524 1.2049055875551056 -0.3505192653090544 -0.019713676378843466
Ni 7.10042766176654 3.870310099296526 3.3759747805161786 -0.32815555290187354 1.660873506817978 0.42703812360240007
Ni 9.055994807422525 2.90418663721776 4.516848055508668 -0.7816557273505441 -1.7126236428070762 -0.10536612154234112
Ni 2.502534014061295 2.547020971726458 3.4748538080796467 -0.049525103313321155 0.4342778358839489 -0.4449029196979628
Ni 5.366577475992453 4.285021678374974 11.378289461559906 0.36833803865803016 -0.5922266166190124 1.0252435835126665
Ni 3.8241850203106362 2.2882806294103544 0.9830816989198079 -0.5058074684928192 1.4626370822074617 0.6707429649583609
Ni 6.076132486944395 5.788154439931929 2.4222182141160316 -0.016607783760010108 0.6246680249771693 -0.3437405518243241
Ni 7.2796086848821195 5.553258886054063 11.915934683415971 -0.1315659198661605 0.008903216026900796 0.11780254753348099
Ni 5.3971035907163545 1.790577038700869 10.696979159290244 -0.649292765504385 0.8981503547058789 -0.27494271632432005
Ni 0.9847962045493114 3.348945778724167 6.403696932052992 0.31329920461533145 1.0954190160864878 1.671945962582056
Ni 7.274252580339066 5.8304879122653475 6.895640409646503 -0.10295545521831946 1.591371446162098 -0.3951191634066163
Ni 3.33215963665109 3.5931362906578497 12.322105024304713 -0.45163278222262865 -1.3645587525757852 2.3666752631526853
Ni 2.577317013231157 4.759451062229847 2.452416704575788 1.4987351134815994 -1.3154139154200184 -0.6965725244269552
Ni 8.706946125104718 4.398880313094335 8.033119644509304 -0.07985872129985601 -0.18493816483971376 -0.565259344001549
Ni 4.43832406579456 6.647441101941421 5.9932435481155615 -0.29237993796416095 0.05058619758798385 -0.03593399489244779
Ni 8.821200485761109 8.772609021865359 2.5659909687962132 1.7674832709594335 0.19489604738337402 0.5977868843156092
P 3.2923937814439803 0.5674590298933148 6.759734318477322 1.7008459334458577 -2.038432292743328 -1.9979932108916754
Ni 8.315803246601462 6.752501736758445 3.646736908682096 0.2096850327670905 -2.7973065034229823 -1.8399107327922246
P 8.959373258285881 6.873566264703255 8.993138803936166 -0.5622971760494316 -0.07943706038140513 0.516378044919814
Ni 0.6074807265201784 9.183142471283073 12.238083204944521 0.8380927272923502 0.4333630373791633 0.37026662313931075
P 3.2647021687806634 0.34390976689368136 10.971769409377975 -0.5754573675804734 0.16554793323856004 -0.8531511642873693
P 7.00536140759171 0.7643207197582348 6.376193059136545 -0.2478070364497926 -0.2681678594943317 1.138658029280781
P 6.250224290451197 2.0212944629180027 3.1488262520753274 -0.542904887565749 -1.5465512045236138 -0.9491137331276234
Ni 0.17192359348902903 4.354540602289463 2.7227343312822043 -1.0476072959198475 0.8864870594353378 -0.6724761455993838
Ni 8.979049119992153 2.2654573660653807 13.053629266811948 0.8491484708858794 -0.17815199515581576 0.13521457236234133
Ni 5.187552902665931 8.620263739037659 6.897970591210594 0.5264261731844353 -0.22087293106310993 1.2551775963367804
Ni 1.7567654784067428 7.9983482187446615 7.087445090153333 2.564567674160222 2.379182908701393 -0.8441726149378429
Ni 4.997015465450473 4.582202654155576 0.7464477117976407 -0.04568130408719875 -0.5603117701882866 -0.730449122569742
Ni 1.9721876350112366 1.4322241953984773 7.9346584299119085 -1.2964939385870637 3.440227561073068 2.0245748180349454
Ni 2.3971604796661543 5.78183202786822 6.350223314445747 0.23998471219189638 -1.0591698039464663 -0.04599806399666917
Ni 3.3535656489657706 7.440429865105272 10.199823142842463 -0.6348915024773905 0.9737950379243875 -1.0018714844456293
Ni 0.8072118895750028 8.150214949276418 4.779258525817504 1.4253938815852871 -1.0204549038747717 -0.28814944482258115
Ni 8.117526146292004 2.178489689206509 1.9834253313300056 -0.23895318560358847 -1.5976757911135708 0.6295695760438448
Ni 6.960635173778575 7.663039509077679 8.518234548956858 -0.6734145982532531 -0.6357805899505631 0.17712509655319816
Ni 4.826227513371431 0.06851672497163863 12.395688881856088 1.4290353349926164 -0.664750751930668 -0.14979658394157427
Ni 2.887722597651567 4.827000559387955 10.579903180673544 -0.6395086895344277 1.4424269258081739 -2.5823280834674365
Ni 8.054338837369992 7.777993292320447 5.46372083119025 -3.5400717243559163 -0.6948156896368486 3.3059671250938805
Ni 7.254834400638302 0.721611767931076 9.46397536439996 -0.4464363256233538 1.5628165173425408 -1.4245544164031272
Ni 2.3630912373665205 2.369827781224795 10.338316177288368 2.3186239161714135 -0.20287778003726997 0.12752671679978037
Ni 1.0869119021605325 7.947363993369196 0.9649022334312349 -0.39134349841426797 -0.4997520063273587 -1.4002420649100078
Ni 1.9033681336831265 6.38543371991263 8.81536951009362 -0.9383624081483903 -1.1771808679463274 -0.22601796559915913
Ni 1.4505932412196743 6.613785991436353 2.934824107379757 -0.13746505895941488 1.3497805658253463 0.2315149841579884
Ni 1.1622286711989458 2.6552842257547926 1.4909701708969876 0.8078159306856798 -0.8227740946574088 1.0625058102982345
Ni 6.593603968647834 2.9967865064827297 8.857838265479929 -0.35064936312901546 0.18010706199965756 -1.3182300447125748
Ni 1.4586273980342555 9.014259525459035 9.262715594876747 -0.45726324103552857 -1.8188693387408932 2.349484867416328
Ni 5.523395382201465 2.1531080116639942 5.156066002178635 0.2033583192181143 -0.6840605080028734 -2.9213462901154266
Ni 0.8185360934241923 1.0339122353848456 6.133393109739728 0.5413023189653193 -1.4291579766134097 -1.9694567940148793
Ni 6.194380918686156 6.2085718348466195 4.717016357679979 1.051775311254608 -0.4709728773121373 -0.31284334802483543
P 0.9085112874044903 3.2826386769497575 9.00769967783311 0.8208753349727991 -0.3876321110009518 0.23423623974389338
Ni 2.949170553036402 6.429561763355835 0.9251372985170022 0.6328544174427037 0.36135543669260994 -0.5207250090346
P 6.281256566257347 3.053338503762917 12.970886654550526 0.16575927791841777 -0.5991171730912584 0.21041779716805697
Ni 3.0091552427471027 3.833065846571886 7.787208184895981 0.04049127524582704 0.1761971854222901 1.1803723783004316
P 8.38142933164703 4.807205059607698 4.9699321663787295 0.14165184334725284 2.318849401918658 0.7517411991792989
P 2.118173694060155 5.497691602152066 12.441605974651818 0.620484583023441 -0.076061716151269 0.6472621082276014
P 4.094419820658139 6.01981976581218 3.817165026246303 0.02546729103316904 -1.1360151923412953 0.12947792698888025
Ni 0.3324097871050204 6.41843542247516 6.907211251986678 -2.1581729378397867 -1.4399041593863202 -0.8409538508902291
Ni 1.5418678887420327 4.520138102543276 4.460491160318365 0.8635170809027257 1.1541314423260318 1.7707740258955629
Ni 5.443974106932464 7.469805613733157 0.7374435662908979 0.4553817077420996 0.5409328514410426 -0.6171971705214209
Ni 7.909944884997961 4.077293170220641 0.7262307178798026 -1.761794448104772 0.34361919575511146 -0.9607502889252875
Ni 0.9406773640348742 1.013288472015456 3.9496098959057884 0.8007273992700145 1.2525645841939654 -0.6817498575918259
Ni 8.270754910281443 7.109400517315471 13.22520222871491 1.4342760145662654 0.2738911351313541 -0.18519681781773914
Ni 8.176516919695747 8.357925051573215 10.677206666831907 1.1676557020647118 -2.0793022914848125 -0.07335768695654463
Ni 0.24129711112898095 1.649809040263483 10.352378252446076 -2.035462668592043 -0.3086388230251846 0.16578935982540483
Ni 4.392033334090843 6.181101092473739 12.415757708620758 0.6410840044413475 0.06278351098512414 -0.4089984924918698
Ni 5.2604953160821655 1.789187396456881 7.240525686989606 -0.09608906711578935 0.8568589521562597 2.126108196094758
Ni 5.760987394208395 1.1200332427970487 1.1058717760086434 0.9977932006111976 -0.20945723302700056 -0.43477637278692216
Ni 3.9748461671737667 0.5180733532448744 8.76880545140549 -0.6266236060416434 0.08026752670250048 1.174668385937119
Ni 4.557419166982989 3.7572153076649206 3.2562851701293276 1.0096272171316483 0.00875512048481073 0.007696854423625453
Ni 4.246903147417361 1.0477166285370474 3.033716939336377 0.3628348494516138 0.048684352579580675 0.6288432394007815
Ni 3.047421020565006 2.3529680157215727 5.771914031534801 0.06380603871236754 0.6347590906645842 -0.7701340998641898
Ni 0.7253297511534024 6.457069317443789 11.043911167991382 -0.8738853115109273 0.3521303185499161 -0.3606370704693467
Ni 3.0150359142299408 8.727744744120702 4.861718608165742 0.7949796981529599 0.3132722080321379 0.02682714749517315
Ni 6.977513345139335 3.71651995665223 6.18232784287853 0.10446520699462655 -1.403743650305363 0.40527013579768906
Ni 2.5404316747284734 7.549107250928172 12.17853473405743 -0.9735541255581749 2.4271792340750133 2.2152617124329783
Ni 8.787665013330026 8.762936743730048 7.4963367370788125 -0.5892451653931852 -0.5513455621339344 0.7465563125442497
Ni 3.3910767866246876 9.128697944690789 0.6161811753775728 -0.4531029390102519 -0.34600620793004927 0.3101781424878464
Ni 0.5635735533674084 3.9716435479624557 11.624779785392745 0.3559756604379353 0.1271618772611939 -0.7619770179746942
Ni 8.122146016533607 0.5832080018942235 4.597610197499186 -2.2711886055075854 1.5862958314114035 -0.972498430600151
Ni 5.60334122441025 8.841732219842818 4.634381419685146 -0.6204115636936606 0.2741485025577989 1.3544059804124997
Ni 7.315242425072337 5.283833943438154 9.598697038636681 0.05849542513273151 1.3235152043709142 -0.47489586651562726
P 2.1179252149834156 1.9281056062118722 13.265557071363181 -0.7068931896266729 -1.1372333810191124 -1.2808212650468136
Ni 7.5447542656208455 0.9277840608307177 11.993141734023359 -2.032377601908816 0.38473602040007937 -0.4187977379704787
P 6.6069574182903965 7.860304287222643 12.101233813576608 -1.3419327876461533 0.03319705557725896 0.23357803733460414
Ni 2.0614192323470695 0.16885533703773295 2.421316327096754 0.8871470616168399 -0.5298459974992616 -0.5041185108261705
P 8.48103262970455 6.015061851639055 1.5307995263125973 0.040531898675775356 0.5965895215733984 0.978495014503218
P 4.555771842733493 3.9240460003736644 9.514836270529932 -0.22192399803544363 -1.7830937238031805 -0.6979647767887914
P 3.8900595844329433 6.816379265338067 8.109141357891357 0.8910870201011943 0.006025894479105751 -0.5159954647694146
Ni 0.9361863347960245 4.7668134052443545 0.5141667099828012 0.14251804800229 0.7882940586026682 0.11352603164531418
