# total energy = -340894.24947448197 ev
CRYSTAL
PRIMVEC
9.04818419383746 0.00000000000000 0.00000000000000
0.00000000000000 9.04818419383746 0.00000000000000
0.00000000000000 0.00000000000000 13.24293217215903
PRIMCOORD
 96 1
Ni 6.507987864111751 1.9278603983472358 11.332903998321004 0.3037537270187414 0.06422564274828939 1.1952320690210836
Ni 4.5918267678355305 0.4711787592938023 6.0388829486189355 -0.5739864394619018 -0.9714031406534432 0.5541796891486197
Ni 2.7398806342801127 1.5703123545434878 4.745406121046962 -0.0011202296473722642 -0.1311738266340644 0.21017919879468966
Ni 3.117949959674783 4.304827415638671 4.57156607394735 0.8160748282603623 -0.7589806543505316 0.43868162137859934
Ni 5.211907873967595 4.393210078151958 3.089972974366523 0.7001461007108265 0.1670188613571317 -0.5362429021645411
Ni 7.320514798355514 6.1258740004141075 2.6275438091196444 -0.09536118781082932 -0.07794350655501414 -0.2745591077326562
Ni 5.213753703528683 4.334532604114421 11.598821986329726 0.033357749524839324 0.32622748264122525 0.13077402009248446
Ni 5.402345005203993 7.71640904647246 12.40841549928082 0.5339186249067386 0.1657795896333919 0.2343573387027899
Ni 2.0420213374268967 6.499898787505805 0.26132965383995976 -0.4641237156007878 0.33436836658080477 0.0041420471928315765
Ni 2.517964870479861 1.563661939213096 0.34428069142421974 0.44765142897737736 -0.3132125584387961 0.23572182315048434
Ni 0.4358727448459274 0.24881330074263905 4.742293545708656 0.3298362830384062 -0.09474489438306909 -0.14827937596609947
Ni 8.948183592054585 2.582053158622941 1.3647104667169727 -0.8768392519329287 -0.7116373891798776 0.28264574139553256
Ni 6.714946979556713 0.9992995509103536 4.789425536805268 0.928860382195226 -1.0008903514792828 -0.0954357498025066
Ni 0.9088267578646588 7.634667751105441 2.8553617034233163 -0.19606564221144296 0.30687581758749083 -0.9171801176438203
Ni 7.739400482328956 4.024786117032386 4.040339040721379 -1.772019725377206 -0.4357595626357979 -0.9430451583360404
Ni 7.7818545622339865 3.829987761048711 12.686688782709476 -0.7921221740995068 0.33432311516516616 -0.07641447150499743
Ni 7.992831071429553 8.636754142725673 6.76777389774033 -0.30043391861688906 1.2508108347276523 0.5939554263846609
Ni 6.786364296839409 0.5647044096625912 0.3445892345028135 0.2880787394856458 0.8098427313077213 -0.24869226726822333
Ni 1.7850257637818454 6.253317673786306 9.15461338872835 0.3435153231873955 1.1550503545958752 0.17326484226684352
Ni 0.11639131646597611 4.993140878242142 1.2971567240547905 0.07216906596508217 -0.3214028075590723 0.019038247578373666
Ni 6.373450414387134 1.8101706674596114 7.090291896711954 0.09258773883075021 0.3472027993413117 0.4674882611976465
Ni 3.754706869145503 4.328298405253687 0.7768861369833385 -0.5212016915607024 -0.051543676405246715 -0.37402609018174293
Ni 6.178959696663642 5.9515697814689865 4.7500939852410795 -0.44825486688933125 -1.507595649196023 1.4625293529850036
Ni 5.455602616951864 2.9437905116756298 9.477794619596189 -0.30356012295069656 -0.8189076697234671 -1.1982027216136333
P 0.21475231643008644 5.614434441046685 12.35433088350411 0.8225732915005125 -0.3147084262580322 0.4158324846945677
P 3.9493514059990864 5.9074236911329585 12.555424966000553 0.7907553756589673 0.6351974637535835 1.2072949137228886
P 2.2704608419798173 8.533306253647623 1.3868133708925927 1.1598038101204606 -0.4459100208062385 -0.8215335373820883
P 6.179176853082594 7.898630426525189 5.808098154741338 0.5899033678024744 0.04206736148369529 0.05460945981476402
P 4.480678874068823 1.1580770859004377 12.50103633123731 1.2222921584626691 0.12377419173588361 0.22327485563638325
P 3.7567608069414193 6.230326237929809 8.28816832529574 1.198996421159522 0.5144330053783011 -0.8324247303732955
P 4.849419521632699 1.015993450617255 3.722124358118645 -0.5804198537920714 0.13307438609088693 -0.2616436852225688
P 0.30859646288000425 5.670442700767943 3.445705047616789 -0.44683278973082396 -0.5328593304042888 0.5778011852223016
Ni 1.6070660784510395 1.2042137767435221 2.616247151242102 -0.9300302341336111 0.17807331939908042 0.27969642895922153
Ni 1.9626054253794856 6.47815600105828 4.66647790612378 0.5186151617804486 0.6707882163739995 0.8776085259987852
Ni 5.879826729557864 5.620098604307672 9.054139637771524 0.3198465188155459 0.19611655005403644 1.586860445665622
Ni 8.712632214781 2.3630056691896755 9.895251595296614 -0.61884293365496 -0.35901007638888494 1.1633005104198093
Ni 2.4348211065737813 5.125452474672504 6.794551093833882 -1.0033637527204398 -0.38292416400232115 0.6349521805119968
Ni 0.7327273791895382 8.983770100210272 8.84867528234368 -0.9574741892771768 -0.38353274412059757 0.9673395121070307
Ni 1.1856288065549174 0.8824458722356932 11.441946379642294 0.07559531803781175 0.5338407204809515 -0.40206139905240434
Ni 4.279374873700724 6.739241353926919 1.6133862350609425 0.02590540701185216 0.9815062905257163 -0.28316664689600907
Ni 5.5069148691132925 7.841952601178832 7.982243791187251 -0.09937699383844176 0.7618119531517397 0.6211240163796529
Ni 4.959915946142552 2.7435089561134283 5.176198310507835 -0.6068785622042323 0.4739643558402934 -0.36745203650865105
Ni 0.9140204155512502 7.371501315888517 6.851561892355965 0.44651088761503105 0.01600743117184985 -0.2614945612392142
Ni 4.858141971127254 4.730671153202687 7.062257003025307 0.5864562897941383 -0.17557240735409763 -0.5428382959938716
Ni 8.22213920165828 7.146102001200918 9.174293189195836 0.38497616143534347 0.03206422752439639 0.47850826645723404
Ni 4.670247379629414 0.2830371523694053 10.438291032895135 0.04934641164361179 -0.45675750504370366 0.054111180022106804
Ni 8.160475826860159 7.3047709579815265 4.776434154041491 0.18120080928446858 -0.061980555467854546 -0.43464678918759336
Ni 7.237063396189254 6.318247443052823 7.179377603131595 0.02270798312047702 -1.01113799734922 -1.335121678261591
Ni 2.4018585718137593 5.461348213869957 2.446035425975805 -0.8393312276851416 -0.777670517450551 0.5514705177475727
Ni 2.4416705819548787 4.922112632876734 11.312046124280705 -1.3143775037357042 2.03084985241038 0.27808409016677915
Ni 0.9889936691942773 3.4668479394569602 3.8228641256886875 0.26220727103552266 -0.5509359854003415 -0.8604029607537761
Ni 3.770206408548171 2.592042353894713 2.6621467796611635 -0.3123201285315137 0.01698856413819655 -0.338923590051655
Ni 0.9347317090087556 3.195538138529352 8.06017851549373 0.7399385501174159 0.6763410278714287 -0.8097936232373409
Ni 3.573670801212883 2.7943687990687085 7.491725443148988 -0.49069066745603884 -1.1453315846462144 -0.5159646115314791
Ni 4.118860087359027 6.915092812357071 6.100860295406124 -0.13959444659759188 0.3206142502195059 -0.7566368367087034
Ni 0.7959660428434702 7.540141371572651 11.440900409557678 -0.7309674569670573 -1.192189682650334 0.09346962721507128
P 0.21440034206770242 5.555069305015802 7.812998411985291 -0.44296893590004355 -0.5557709448951397 0.7780335572169246
P 8.45818822905863 1.520049691740324 7.817713420731776 0.0388110593299267 -0.2868412675341189 0.8202636695307294
P 1.7862382204543248 3.133078523528409 10.152680576961155 -0.5788561088493773 1.5840566576682396 0.6627450343545489
P 4.076758886634793 6.132307259325548 3.8318553062516942 -0.09427155429107636 0.3212639679883628 -0.31837173404223235
P 7.046128614826093 4.0393355971021405 10.514120244756196 0.5531926426450021 -0.10551113176063764 -1.27781101746558
P 6.437212967901788 7.7744983885420025 10.29105626639074 -1.2150416475478427 -0.913228074974608 -0.199828708798301
P 2.521529855024316 8.458513963687057 5.585193424416445 -0.47094768050115665 0.2653638143866333 0.262008010540523
P 6.958867927144056 3.9523554031279167 1.7389424572250867 0.4359721928672362 0.28037725707633 -0.40029685095281387
Ni 5.43456558886593 2.7854020486028337 0.5214007052684126 0.06990443830062155 -0.28188315219789517 -0.8803475221965031
Ni 1.4981802307150769 0.850552832839007 6.8496156279511125 0.04136262210718683 1.538375867801673 -0.01933032489749574
Ni 6.9765209343679935 0.5062522354097165 9.233607655395632 -0.026245563960090285 0.6277232668637254 -0.4309426008631288
Ni 2.5874639727284845 1.4151088522819812 9.440714256241797 1.370302082817466 -1.041093663171046 -1.0828874592783801
Ni 6.500866943206964 1.7873782916538206 2.402095634237781 0.15951381122933816 0.9714753886522752 0.9183491982512572
Ni 3.9825944344669217 6.70792558867728 10.589207505519173 0.3645634021069464 0.7439037054127511 -1.3862709474418962
Ni 8.252043450184734 7.183534338917693 0.3966126739363095 0.35984671335756735 -0.6764567275136866 -0.3684323981440494
Ni 7.523284604551536 3.8888100060322155 8.118950090646146 0.17152651941949812 0.18940674213402864 -0.23670758410252135
Ni 3.067976838763555 8.510034324083314 12.298698123423955 0.2207384623677747 -0.4379509138601619 1.2140335179983026
Ni 0.19706221165124474 4.901799459520641 10.205638693814556 -1.151818477922139 -0.967595851092211 0.02436377355634514
Ni 8.55608958126929 2.506175086567616 5.856276115922568 0.236700899234302 0.018625842631303405 -0.12024612397796709
Ni 3.3537365897355653 2.908231148072311 11.721849241031498 1.2893894663317989 -1.811492329550532 -0.2009509953282023
Ni 1.0799279196302443 3.211182448877987 12.332282268433227 -0.6199503077865258 0.7398745296486999 0.45982328845322096
Ni 3.045989751344709 8.280653808381603 8.080055566375098 0.12302162984057523 0.6052186580033061 0.09406355204532832
Ni 5.50611862891047 7.855343913680845 3.5567868896393993 1.0923200654461898 0.8086944766358911 -0.3850530374198659
Ni 3.2449231274725863 8.513083562132758 3.390773521806166 -0.6339859599439857 -0.4790808511312523 0.4131171426459337
Ni 3.6796431336612456 4.413441817850945 9.314230595205048 -0.9556862441388186 -0.6239653424831899 0.4549222516071778
Ni 7.273129458103459 6.0689880668329215 11.394496797282965 -0.02709942731995333 -0.059596628616710265 0.2763056581101177
Ni 0.385498789378051 9.20091747097771 13.8211184394045 -0.17916500980136243 0.32537567616389124 -0.46549848446112735
Ni 4.648576978654873 0.3677960171414371 1.4715550441147909 -0.7420476260406188 -0.4094823741068238 -0.3872675285726815
Ni 6.060898990226975 5.559756264391507 0.44591441958561256 0.1948348551281354 -0.27742048844085127 -0.20983929895676767
Ni 7.755985803826382 8.773318385693837 11.660362305823776 0.8014838178200648 -0.1713514272942146 -0.7308921236444316
Ni 0.04616474021386533 5.090363616643581 5.663684612046487 0.29586198297549043 -0.17468949052851207 0.6200708925247901
Ni 7.88437048834737 8.738102853087193 2.499920981701811 -0.03160708538231976 0.33874515549226175 0.7483694544935886
P 8.45094063357612 1.665417817860149 3.4511873423769037 0.5206460761675484 0.49331627800434397 0.4467996225000434
P 1.9453595864410824 3.295710584954883 1.58121903568533 -0.09005083134150943 0.774593421187124 0.14795927362251937
P 4.683086752899925 1.0327144948765252 8.383504517307538 0.14012049430439094 0.2333643786619013 -0.8240038532994518
P 8.50747368797651 1.7173272501736956 12.446819611972403 -1.014333621468382 -0.49923881413636595 0.25867766061570935
P 6.3982605352523505 7.7201459465152515 1.285147069268357 -1.5598502356253652 -0.6893646938246063 0.4808094037865849
P 1.7467248003892635 3.094107994510726 5.959305978894135 0.47757109935494524 0.23466921351625392 0.0795905552401339
P 6.508376936029039 3.908055493661798 6.011059782440768 1.9297594754252572 0.3618984536802735 -0.27955167585124113
P 2.3708233002719314 8.335721056954071 10.297677727531937 0.07449051500940719 0.3921695938599891 -1.3871209541470175
