# total energy = -340859.80026428425 ev
CRYSTAL
PRIMVEC
9.34421570557619 0.00000000000000 0.00000000000000

0.00000000000000 9.34421570557619 0.00000000000000

0.00000000000000 0.00000000000000 13.67620421290787

PRIMCOORD
 96 1
Ni 9.695838752308523 1.4375889289680925 2.044154688292687 -0.8789185030594605 -0.852410429466603 -0.5176854508773278
Ni 0.47691943571318746 6.249327501127733 10.22887113896905 -0.47156294548765243 0.6526441984751212 0.10431119791526552
Ni 0.9395609095194067 5.618069651267036 3.072222142046663 -0.8962081433778436 -0.4783288034565762 0.9211488724835815
Ni 7.477830254945092 1.5849939349120867 5.946441283430717 -2.8271127881511378 5.127227846885086 -2.2682534341386615
Ni 5.120172450841058 1.8810000064362615 9.63108427048974 1.6942785646409853 -1.7337689094261237 -1.1826100093816987
Ni 0.164466609769867 0.3904256355851374 9.474587342467553 1.7528696348113169 -1.0462677511728173 -0.7954252703308107
Ni 3.7671580200535746 5.691384369278864 3.094637981587648 -0.5970924293517459 0.4227808909879428 -0.9290478156156838
Ni 6.329958740195291 2.04400050873021 11.626059416038602 0.28716934029749897 1.279456523488803 -0.46879129627978616
Ni 7.952703307374493 7.429847706259043 2.712566075023996 -1.800090001250861 0.7799976229218308 0.7055549304312236
Ni 4.341565660331813 1.1012812542340003 2.263603598885062 -0.4491005027190782 1.6048591962358878 0.9216191272517805
Ni 3.019349765176114 6.417523387466364 6.687663734936429 -0.27486969699453956 0.7887671415843447 -0.5796922315974274
Ni 0.29365413238020616 0.9707612464352227 11.8391075387342 -0.5718650222435248 0.3503017499816096 1.5153130724449386
Ni 4.076582385621209 8.098687992500516 1.4461220669350054 1.0115480883034451 -0.48745287724503145 -0.1386853045197612
Ni 6.684001736722201 3.6140810750536048 9.578704333797528 0.6080980364336301 -0.43365177226417573 0.5135500885527156
Ni 2.1077000285730128 7.119105806248424 1.71513269870183 0.7527308167860778 -1.9725246343069254 -0.032529597196589134
Ni 4.296517195440784 7.706090761138428 5.169892089264349 1.2010823571542733 -0.6286329231621883 -0.809736287636844
Ni 4.780024303368902 1.9946443603057298 13.625766472523127 -0.3350401958368488 1.212520680898202 -0.1357773868443468
Ni 0.9635848886181079 5.795226640661153 12.519689766685294 -2.0609646695178894 1.7446711581609247 0.8181052284268298
Ni 4.86060882135692 7.167293927684441 8.572176232132396 -0.9706976299459863 -1.8992924171846517 0.07710738380696397
Ni 1.5110344660026276 0.6410879649955988 7.099167118344568 -2.4555097055885904 3.691778895056642 1.3000402611774255
Ni 4.00798649664277 4.545092027017464 7.820313521972584 0.7199862753652051 -1.1138036892412624 0.08589284330907788
Ni 4.627863091527886 3.7927331389929537 10.774373381758405 -0.4463345099381668 0.34734446712549855 0.6864493199500242
Ni 2.355704862979324 5.775529033527718 8.7877547684958 -1.6395989137099183 0.39190554156532503 0.4739700122672483
Ni 2.8061147581623613 4.859926693595658 12.167746415472843 2.904759332291023 -0.4252175254538935 0.3424614280015844
P 8.14212925225542 4.11081024849112 11.671177028127351 -0.470990360813634 1.4983738734874388 -2.3679158204280055
P 5.406460537821223 6.3005711811655685 6.407124209582682 0.27457941944763037 0.263675628050933 0.6992912089096989
P 6.51746912081514 3.1856394314695735 7.1476766808078125 0.27324038892123265 -0.7490063167466392 0.9831132300015197
P 3.6294055891422357 2.584843725467985 4.329612539342682 1.1046883572035557 0.005438911627384181 -1.1801582054070965
P 2.640040008834779 7.320062513559456 13.361446637141967 0.5726222121245235 -0.28316870377853814 -1.2699323860484515
P 1.703273019871775 4.672164019146299 6.61758678773662 0.5195114483424731 -0.2542219388372009 1.9157137959654684
P 8.194223255940859 6.55463106748007 8.345589275008129 -0.23103033121208597 -1.062418649901067 0.9635527913710891
P 8.416195104828311 8.922296526821253 1.136039868567469 -1.1243197582812379 0.05392708903575874 -0.03872904113908169
Ni 5.71632408153652 3.1509069809406465 3.9824973444897416 -0.5810731711053541 0.12547651913897098 0.1297988006634087
Ni 2.5646508748914414 9.377294432014972 12.081983333028775 -2.3456811773995216 -0.8594123147057329 0.9109341367341086
Ni 3.1255561231830518 2.5286289225672514 6.385297055643882 -0.11475116230166689 1.2724106723856152 1.6297063371865546
Ni 2.367515951886659 8.483323951909242 8.389352910211848 2.4825949918411565 -0.8134163075915927 2.428328517188108
Ni 2.0875538990760076 1.8194496562522302 10.676588965549078 -0.09226506538400883 -0.9279805506934341 0.40302453429662205
Ni 2.491616483356845 0.4807356134898928 1.0239036711455038 1.4442392964265645 1.6425986197681903 0.7948673409448117
Ni 9.280488355211181 4.417337907127367 8.731613784900738 -0.015350771424457435 0.5004778287497896 -0.4726952593198826
Ni 4.557314261424739 3.5811707466266793 2.0466028728605052 -0.08253343991854173 -0.30114714263382975 0.10069211310543949
Ni 4.733022897353162 0.6857561202991853 4.786397993039545 0.4270167834461614 0.6284694010011306 0.14417023889373234
Ni 7.768295206435999 6.040409521863339 12.869404522403755 -0.8541330685846644 -0.31914923563820524 -0.25695245039448655
Ni 6.06483530224607 6.182357505717235 3.418148752636143 0.18000601764541901 -0.893893379201738 1.7167327798794434
Ni 3.0620995529538497 9.041650196610327 3.4830966597242146 -1.6773205966304083 -1.129482790539416 -0.06350033454649065
Ni 4.875540878377428 6.548211591151479 12.179932207438078 -1.3096538730077896 -1.0746645571479556 -0.38176202537341997
Ni 2.498979725492114 3.0918795690516947 0.9099518925726724 1.9293265016528967 0.10708156157155106 0.20688355876255338
Ni 7.224891674539514 7.7324507942140555 5.07046682874163 -1.8514565286482951 1.057915619824391 0.5054344014241167
Ni 4.590458195249356 9.197371554712175 12.946291534157098 0.39071666346354644 -0.6038132930153471 0.25385298553355634
Ni 5.916346367256783 6.383977652357714 1.1936525661679946 0.8496482933404336 -0.08348089143347558 -1.6679815786176693
Ni 0.6604800162688521 8.453375739925058 2.5607188288374805 0.0023736424384991376 1.5929660443427276 2.4085605905325616
Ni 0.951614948040342 8.612236754571894 0.24179840620041554 -0.744179327671641 -0.48703070210594834 -1.589951682996436
Ni 3.137834422885772 2.3672543138412427 8.954549956869865 0.28840244137365173 0.9918259272841694 -3.3935098453015553
Ni 1.801536794357166 3.8862407075813246 4.645177923604858 0.34798929979834914 1.0814679532230345 -0.2644065926796866
Ni 7.608733375596085 1.3220290108375452 8.222367099833265 -0.1502616965034509 0.22797868886995576 0.47025785352298366
Ni 7.4121777939775795 1.0300970174491286 13.303774136559634 0.6133682836936339 -1.7642477947412711 1.2296550265856436
Ni 6.692691857516363 4.536691576916441 5.4455361799040505 0.7409086273401692 1.3970356421575683 0.5747731970292552
P 2.3609189354558215 6.578655046578771 4.530365542746927 0.1522584152185055 0.26194578984401984 -0.5079324852556221
P 7.781031372718196 0.5691552565165203 10.748662771688362 -0.6240810421254478 -0.009917773334344208 0.39558761840260254
P 4.290097719112193 9.444292460073193 8.445671433909158 0.2148231253246042 0.17140773445344673 -0.22289484658914516
P 1.7421075811841833 7.969672403462878 10.582646890921 -0.7806149447908556 0.7391818744570495 -0.9550110724486649
P 1.0502244585143181 2.3936236911327775 8.524679582673548 -0.7443148248082407 -0.3692458951842802 0.6651503013619319
P 1.0653433998529793 1.9320941790195745 13.636693598605593 -0.6328724151648326 -0.20907773820039477 -1.2117719756576357
P 4.116818579319772 5.231415341222247 0.8108275158021818 -0.6721832969493133 -0.18280569187774323 -0.7706166959275632
P 6.123685174032775 7.879239081908142 13.108779038997714 2.978490857647219 -0.4861619263477498 1.0438010347998798
Ni 0.5971477241112223 4.277426962341349 0.6855664327162589 -0.5543450110818905 0.05083559459462858 0.5971294532372684
Ni 6.25905482988765 9.04650918888233 9.434379181416713 0.6387365872550935 -0.22797328955331705 2.0499778314890826
Ni 6.098605298536505 9.206762491699415 1.5764009939633643 2.534745191482151 -1.1360812696925402 -1.4575365277561028
Ni 0.6073104933324387 7.516337768700731 7.6440003152749325 -1.659645033727516 -0.3480618049074973 -1.111605396038363
Ni 0.9272835442382774 3.44545535478322 11.46209552508457 -0.15381933194772218 2.2624432552147873 2.1035408523172032
Ni -0.2292706159329599 6.495454148136596 1.0904924225469677 0.08480475245122168 -0.45904398708503524 -1.070112419000899
Ni 6.429717589225914 5.082459195437575 7.957623037049897 0.7667482141110924 2.484592996107792 -0.2782851504339917
Ni 7.935678145990661 3.3942397073931065 -0.12149069196716529 -0.6516095865630197 -1.339318747062074 1.177113762153818
Ni 9.004254644547704 5.337995467865493 6.442108019519527 -0.7465498847863465 0.6909425798346874 -0.385455157954291
Ni 0.15180332837174962 2.905116725704461 6.607015676280238 0.36620273748258225 -0.0703114439310531 -0.271413620125139
Ni 4.00331438868892 8.391694570718318 10.48375425070502 0.01174222813759268 -0.2834098732550667 -0.17694074845653399
Ni 5.156484073858388 1.5809852662876829 6.912897649597262 -0.12301083120729782 -0.23098790800992478 1.313943501522079
Ni 5.762335000666043 4.386754288461459 13.138059139544497 -0.759817291319214 -0.10519925694717365 0.004636213220430725
Ni 4.222464284372248 4.770913692858891 5.241009047694684 -0.19497935112579967 -0.40862619675411554 0.020008324801126832
Ni 7.299636057585221 5.96721627865831 10.390031765150773 0.18686623510036204 -0.2940005042867195 -0.49863871865852183
Ni 8.990574712458828 0.6395265465174218 4.4556800282614395 0.7091549890776561 -0.5951728437315298 -0.8296697933359777
Ni 6.080963418902764 8.657266531031109 7.29578997831761 0.7378708689551099 -0.22942287751565005 -2.822647553290932
Ni 2.2097295220692077 8.623973089751967 5.728756560801717 1.8901529167772289 -0.581924720472372 -0.6599042224716442
Ni 8.735169259053619 2.60165396988594 10.071034250385697 -0.9409101142709086 -1.245343383855178 -0.009791789279441201
Ni 8.37876217590206 3.204981958398516 4.173867820701063 0.756722197333658 0.163044450090416 -0.5101734587709988
Ni 8.971933001722963 8.068842566891316 12.236961825965961 -1.4431923432192886 -0.8376265862892092 -1.7115121549104526
Ni 1.731529928776665 1.6082797209540793 4.8559825000610175 -0.45572083624907317 -1.9230530099393592 -1.5464288200131366
Ni 6.87135326567162 1.3160393684407083 3.4724564010701147 0.6858337978532124 -1.275089761879675 -0.27386902364416704
Ni 9.806007057860326 7.587419219110617 5.076757354890695 -2.262671054954877 -0.9387187630465446 -0.7675719955639684
P 8.244653989194724 6.067610534370658 4.381787837706516 0.9413621142066626 -2.3398499154297254 -0.024991894058647282
P 8.166545688422246 9.223133557969708 6.2765574807043665 2.3646461485377985 -4.414668717221888 2.350148983362888
P 1.1038696020404335 3.1914048126846257 2.750394264283145 -0.20667581362712145 2.1092366171504 0.1523129226055248
P 4.132395387237911 1.4567165389311578 11.468290740231376 0.09253837365005353 0.5748513585653583 0.3411792188550511
P 6.1713967404575 2.09819696099488 1.5757179317805114 1.3764771012799262 0.9201122036889509 -0.3813604190596271
P 7.594763772814071 4.552511334448179 1.738286731299524 0.20782638229179692 1.3350990525537716 -0.37722017163900845
P 5.548922453550044 8.34940264952006 3.444871341288988 -0.14634642060944475 0.12135349810953296 0.1043523355658461
P 3.834744733713981 5.703961683890631 10.244051752132702 1.0015662945003847 0.49255805968208083 0.38533611587792344
