# total energy = -340888.38701598207 ev
CRYSTAL
PRIMVEC
9.12875722709678 0.00000000000000 0.00000000000000

0.00000000000000 9.12875722709678 0.00000000000000

0.00000000000000 0.00000000000000 13.36085895078083

PRIMCOORD
 96 1
Ni 6.4655700710171615 2.4295274342625173 11.518463143621416 -0.8363960563162176 0.6151742265541211 0.9581390765546856
Ni 4.83532922863006 0.7083742120562345 5.981429172926374 -0.6791993232558303 -0.3546410007869118 -0.8833978789870528
Ni 2.5009417016339595 2.0120693686999376 5.022307171693092 1.0630562834850659 -3.3612689829899787 -0.5916188078316843
Ni 3.7965040485114323 4.8437459427444 4.886494086838352 0.27991960071362115 -0.2671515024146754 0.34425322979468453
Ni 3.871770651410262 3.01553887228404 2.728727927891489 -0.9843283333555434 0.8265281623832024 -0.3142605400873362
Ni 5.079203976530876 5.125541547945607 2.5679842071948196 1.5168536774591812 -1.5291224675242052 -0.3577569207080742
Ni 5.524285661301686 3.297763529072422 0.2729334077367836 1.5202048533196013 -0.7849212854756934 0.5826914234350675
Ni 5.573270572296849 8.039851631928238 12.78294846245177 0.503611746393081 1.7779198929117253 -0.31963645968726884
Ni 2.1839821237988772 5.724817070140811 11.303714608359655 0.8928641666062752 0.1058731430857467 1.8411217223811904
Ni 0.41005190486739207 0.4928369521746479 0.6433172111806981 -0.13029296669100787 -0.6801490887636092 -0.027009952929940583
Ni 8.467588678068632 0.5569920318414027 6.532311327591284 -1.7591636953501444 -1.1304268996202402 -0.5601173947892935
Ni 8.726498489034867 2.600709888787544 1.6013255040387637 0.2063523688494317 0.7369067052696278 0.5866187835139316
Ni 0.7512757192707085 9.08916575403968 4.337856693562505 0.21969562292555714 0.3731606568576541 0.7374085846067107
Ni 2.306563075130045 6.670355480699326 0.6198517408651807 -0.35732163294286845 -0.14008835551487486 -2.252024630984625
Ni 8.03098760871238 4.422307739053998 3.6966555282947176 0.6498157278873905 -0.9968393213383607 1.2657988234960522
Ni 8.01597080316131 4.361784078991022 12.66497205623912 -0.5496715168656211 -0.657596400274074 0.07335922961844141
Ni 8.021429799951303 7.733015845799014 9.151373669801242 0.8446305284108679 -0.060660036884218116 -0.2506874433213812
Ni 6.85923859538455 1.0259353749890772 0.5862013161707398 -0.2647261808026344 0.3734000265619698 -0.7676542708651296
Ni 2.0159582192560204 6.855459289914555 9.200527462804123 -0.06174427108733238 0.08293221801885718 0.0160753082953078
Ni 0.5101770264264764 5.255681110216767 1.369073489771761 -0.9142097221615868 -0.5767066666065422 0.534997202682898
Ni 6.557085861685538 2.1060042800193983 6.870728049163625 0.06100019383245622 0.35779754413802256 1.59900942232333
Ni 3.828445569862919 4.651393900333091 0.22304657553283908 -1.988447476184769 0.18826003012409515 0.7275257782753599
Ni 6.223073765449605 5.841957282196334 4.767568289879614 0.02439231280143541 -0.4251529907645452 0.6714937270814564
Ni 5.399541194520303 3.500695801048283 9.121551845865536 1.1890336535198553 -1.9504704827203634 0.6505400076479249
P 0.32595870665711596 6.043091189008936 12.559207188497998 0.6374332950626377 0.0037815785296192945 0.15780377051676694
P 4.096265047830882 6.491614415234307 12.554010187038896 -0.7865917311995808 -0.21343935760320015 0.5742381504613916
P 2.392318620021689 8.849006410308643 1.0905450667630923 0.7844019226371137 0.3526226848053024 0.8706084405318684
P 6.75103543660228 8.387118683580677 5.847232790967132 -0.5353083061654136 0.007827466464218778 0.7441471888821249
P 5.017091912719641 1.342758021466551 12.645317842043706 -0.6668045491359033 -0.8514118129987596 0.3501544257704679
P 4.024932939274005 6.5142719905399336 8.454016954778192 0.9509633847418525 -0.6040398072038564 -0.33539552229373853
P 4.698653476222386 1.410274309524737 3.791811867324047 0.334160878555689 -0.841389652876067 1.125707896878016
P 0.5792050366726607 5.989633186998561 3.7125815580603088 -0.45070332842982386 -0.5548106378643993 0.029790858109187402
Ni 1.033932166273416 7.585431228568526 2.340367775820725 -0.9017344725127115 0.9614611989493829 0.43580147161732685
Ni 2.05115870691859 7.0211188463493714 5.183491811361261 0.22996255206920396 0.16342317358607336 -1.325260212086479
Ni 6.0304296028087325 5.900180495451487 9.204749512997052 0.746087086217315 0.9207848042759431 0.20726279647884308
Ni 8.49469195811795 2.6468557563016235 10.664891484335667 2.439984356259482 1.350641371163745 -0.4554120467594028
Ni 2.710191073574162 5.618804813080277 6.944453717851499 -0.9950434057802023 -0.16702631755629943 1.3107406783140654
Ni 0.3181171042447334 0.6450452849137178 9.648731182528406 0.11962623100578108 -0.12169982570535813 -1.3861174525831674
Ni 1.2927963334537804 1.2249879251660298 11.862679364626338 0.6101618609411943 0.8373872165848933 -0.6406577155372063
Ni 4.2848834285580635 7.12571614604795 1.6777761067430481 1.1942542784888464 1.5091228844738267 -0.23820139503922846
Ni 5.920373306320159 8.609358276979345 8.0159808447942 1.387044335272811 -0.2491110999731968 -0.11811262257473205
Ni 6.9832892766207175 1.2931249687120412 4.4651453449682545 -0.6512645445187751 -0.5093257660587228 1.8077876270054352
Ni 0.8156982715226586 7.7653772899805 7.2182443158869125 -0.022285550871077746 0.7753210433817679 -0.5707527630159526
Ni 5.101240796348678 4.8147347524457365 7.288695499376509 -0.44409944996006095 0.5062484126849798 -1.4424685776793869
Ni 0.6476004240466933 7.735124588706186 11.162743775701658 0.07300544582344845 0.038344146995837186 0.3853566847032137
Ni 4.633501536272242 0.4995876681047491 10.40424812238211 0.24678630849476205 0.4045332576316646 -0.062809222016737
Ni 8.423113373117378 7.237342588770435 5.078168775467356 0.25747001346085335 0.5015885453154652 -1.0900927187775677
Ni 7.533050419904671 6.379622822224866 7.104115680823061 -1.2191497561789455 0.23651629402732172 -0.14944100037436844
Ni 2.688355086414186 5.5649542745114235 2.908698636947832 -1.674974464995735 -0.09428003893150859 -1.413298898093966
Ni 3.4100472423114274 4.510728881040421 9.583489780757958 -1.3536292501474754 0.372166668375501 -1.3242163442029968
Ni 1.4185175772527712 3.5323269446558565 3.657120706725979 -1.5392037630196072 1.1701666414120235 0.25141455129539275
Ni 1.6613972906216317 1.413012936676908 2.41454805661586 0.8866546953614538 0.07595938624544983 0.6130646364102862
Ni 1.2080266943369182 3.7401978742627997 7.949897771612316 0.20778035954520988 -0.5049816301574142 -0.2785849410625976
Ni 5.4297208657372265 3.1917512720118872 4.99688084433662 -0.16746417642466646 0.028417631910744607 -0.28680784319302216
Ni 4.444098082428104 7.254815030001285 6.278187724011327 0.6683163577947393 -0.017405339960640993 -0.9549789336591489
Ni 8.272123729461024 7.664595810780612 0.2581530369965174 0.087110774876579 -0.5519723970846558 -0.17520191138855631
P 0.3258272525538118 5.8849993722712854 8.046523840546643 0.4487534037923046 0.0757308151744115 0.5797863339731305
P 8.513488069139017 2.2549399533116246 8.170779918819223 0.962065408192285 -2.1673988273134284 0.3849460795283564
P 1.8916519328189845 3.173941066765603 10.741382253571517 -0.2500696072317241 0.8143943552341458 -0.39494047173690694
P 4.253617435237446 6.667096514388242 3.863158581892402 0.25118006668708354 1.0853078957944147 0.8123642121779946
P 7.116395684973395 4.484474575408277 10.487646622171452 0.05251375362799988 -0.07867318563218709 0.7851861091013058
P 6.4726905016128065 8.420986372695857 10.461311983476179 0.08256686425963844 -0.21474239268533982 -0.13951885616465004
P 2.693348516588311 8.918814016417478 6.0804734496360675 -1.200189927246991 0.38624088708037996 -0.7792548312185353
P 7.313996762759698 4.26415202101613 1.6682639417678415 -1.569173055688188 0.7777651340468863 -1.6582196141348993
Ni 3.2004966213844863 1.9727700690662857 0.32080095885386084 -0.6835593999967389 0.3660466715206922 0.20943255043665218
Ni 1.3254133828361354 1.1375161739256923 7.303032212518122 1.6681157902026886 0.6651415596111836 0.33616376791833075
Ni 6.930379000040776 1.3218440387811397 9.52582433456613 -0.5278305097311297 -0.8669003955526619 -1.5638662987632939
Ni 2.6962058175837424 1.5918179034421438 9.412804843498908 -0.07775478758297576 1.2333795266250822 -1.0228465440353998
Ni 6.238839129088936 2.5592470737036774 2.595920942774115 0.6014612478434028 0.2293226044923599 -0.6585168552058143
Ni 4.545591604687557 7.217414511859804 10.555572791426746 -0.7337357637408137 0.22407292605764637 -0.11149743125105958
Ni 7.463151526224097 6.653211674726736 11.46717048281269 -0.06428297834878606 -0.7639323419288521 -0.6214415476200716
Ni 7.91539928537642 4.335274168158008 8.393559021766867 -1.2134089970404265 -0.6597425000827992 -0.3109934393002902
Ni 3.1814905489484206 8.946684112069404 12.41778265660846 0.6601343362045792 -0.7579650686018237 -0.44881151072374964
Ni 0.4858571044394817 4.803825887622922 9.988351074296268 -0.02290801494642506 0.6372366056707993 1.2008548145244995
Ni 8.659018716005377 2.9678958885934406 6.0656565638671065 0.720473756524585 -0.43169747675128234 -1.1790310337811887
Ni 3.996232126719254 2.79757153724276 11.220997113855486 -0.5440261456543857 -0.747558528556519 0.8226761356269637
Ni 1.3145866768278867 3.767629789570378 12.832503920770304 -0.0848209504011378 -0.17495020038906642 -0.22625939218600388
Ni 3.626417044847274 8.6956341610299 8.0543535755747 -1.8691979117921163 0.4759729016298899 1.3733817501840542
Ni 6.036500226329378 8.043320559654322 3.7279735555312263 -0.6931946090936578 0.6661453182853495 0.0035069847119939606
Ni 3.162238000068659 8.77085512014286 3.653994107393917 0.5603698771197316 -0.07065545753403316 0.37179900062343707
Ni 3.4553623929226815 2.940336170685428 7.083941127468735 1.0378427603339158 0.04078463811652976 1.2532451552007577
Ni 5.033961855977014 4.834160747711802 11.334898442865706 0.9572975544899965 0.660197842452663 0.3453919713848181
Ni 7.93981871081661 0.13924458467641046 2.685212055319211 1.3808590323977057 -0.2265005616625325 -0.49077371408814835
Ni 4.656770738308521 0.5313091864083443 1.8344191897172004 -0.022818283446096186 -0.2091705550245172 -1.0204363919320103
Ni 6.1247570506866715 5.832536404792865 0.07989853428886773 0.19608029749946232 -0.5100862983738312 1.2677664887453843
Ni 8.108673332262292 0.2493556537080272 11.653942115963591 -1.0131586273236743 -0.33614139932082754 0.31752866931564666
Ni 0.35018916682380646 5.172609419934251 5.8921654466527995 0.2026440667599091 0.511019608821378 -0.2782540400857401
Ni 7.35774176713704 6.284848065245407 2.4191973326445284 0.28494687872488345 1.239129284624666 -0.15801820052041818
P 8.96066023930265 1.8797662909785628 3.852056187417501 0.5185531981942618 0.2592258198096955 -0.005231423602268409
P 2.035484630850999 3.5741914250553757 1.5661195391218896 0.8040562065329313 -0.11446782673329317 -0.7641678549784258
P 4.737131187710387 1.558342750885442 8.101797552358908 0.6425001680625838 -0.6606125613925784 1.4819085288425637
P 8.560501168584617 2.034325278689913 12.846933747235092 -0.29526060194606574 0.72367452285007 -0.8220989229672551
P 6.544889842101203 8.171223576417875 1.4311481256785834 -1.1676040228911697 -1.1334883121543833 0.7402041450739768
P 2.1179446944028633 3.843772753157902 5.804438090211592 -1.8102564002609014 1.2163284846800666 0.24399460468223785
P 6.894868134634294 4.266388566523736 6.286043932435188 0.5161229914862144 0.8811530488169341 -1.2513553943772127
P 2.316531677963947 8.81459099576303 10.223474995570182 0.3958365011886151 -0.5017631232201165 0.4944604189111162
