# total energy = -340861.9790982941 ev
CRYSTAL
PRIMVEC
9.29284479941366 0.00000000000000 0.00000000000000
0.00000000000000 9.29284479941366 0.00000000000000
0.00000000000000 0.00000000000000 13.60101769909114
PRIMCOORD
 96 1
Ni 5.6821379365703795 3.0708299137916053 3.6042838208314514 -1.2091965016209756 0.6853260049788584 -1.5044151945855122
Ni 1.5798579879736578 5.0058046795194 7.515568856006311 0.3487611449673671 0.4647430943523415 0.827407222554046
Ni 1.0721526957818033 0.9058990528129858 7.957275433923616 0.21853554117918494 -0.6172581056663434 -0.9344047090522232
Ni 6.197667804228528 0.35278241509720937 3.98188835413296 1.7088454067115668 0.09576613655873185 -0.7771686381134679
Ni 3.114998805942791 2.1311188445485563 0.48183401179023433 -1.9465917164912474 -1.7630645730664474 -2.203526426273921
Ni 2.718250082714782 3.5767323940589213 4.4576792288380025 -1.2505894627454657 1.8439280814817343 -1.5485723487187006
Ni 4.670546711470099 6.655052340897835 1.4522625800877214 3.010976746090066 2.074892078232259 0.23810652133257704
Ni 8.500518423856807 8.869267805184641 3.9424866914523315 -0.018034231793891523 1.1100424224266172 -0.35026524031671935
Ni 8.700816404379983 7.312604758260712 2.1768024704301534 0.7067985730303374 -0.547827778788663 -0.6324227292219238
Ni 0.038788334912486754 2.3671478139884825 1.0809121314522656 -1.4429064365477535 1.3206314550652158 0.7553008915060992
Ni 3.1228419670990295 8.099820241515763 10.133561222173334 0.01941208597802463 0.09220927244540894 1.703763621313285
Ni 6.125146442068239 5.376105965957534 2.627090990678958 0.43242201362213273 -2.3362974221917763 1.3157203909168436
Ni 2.9769907652659007 1.5261825154162731 2.7783478404322097 -0.280347175169343 0.9759547645798676 0.3847805004847695
Ni 2.9651609736167397 8.83448468645502 0.8157277901976688 0.05948015764350402 0.5650963360611234 0.8884662946488956
Ni 6.390336359029819 7.493071807613969 3.0218603379279636 0.3538074491420229 0.8610940732835298 1.2588794706683994
Ni 1.2022153540077651 7.572172504014325 4.419854561949096 0.7042266985381033 -0.4344267027569873 0.5347156668867372
Ni 1.9413961216033409 7.3656111459801235 8.036800813339186 -0.9180807750812189 0.8992394740049998 0.29004974716908755
Ni 5.389013727623429 1.4724048215641983 1.8450460463662433 -0.37748293838209185 -1.9431958034358214 -0.1602666302349627
Ni 0.3852478982908519 2.534326095031999 10.893585841040762 -0.17313808688099214 1.8142953462169655 1.3890058298745562
Ni 6.778925964372546 6.050078840385665 0.35132343843662955 0.5968353190356173 -0.3679726848988114 0.41403091270945475
Ni 0.9112916907501483 5.213239564980955 11.64165521485191 -0.16055639356123963 -0.8771652678137797 -1.4515548562513712
Ni 7.948523432529131 3.901331468925515 3.9744215531980815 0.6296042859365222 0.3913324426706744 -0.7078740654827035
Ni 8.046665168276801 6.243416480024928 4.424248219051785 0.5516363539014758 -0.492582742272429 -0.21747598956641898
Ni 5.142781214404416 2.043924080177722 7.9345209737255535 -0.014812125312168037 -0.1657299673423791 -0.4134891812733717
P 8.100442862128876 3.77678876061283 9.781797302885039 -1.9613354504593252 1.523595109948073 2.8638955041971257
P 1.1777937574217527 3.1728188873576193 12.972896145586777 -0.8507854922686703 -0.0785500297907615 -0.2925141495491801
P 5.92705086580339 8.627384343412453 1.3586315912893858 -0.46896664551538586 0.7327872837846154 -1.2620169878561167
P 2.924346798500391 0.17494245301749384 12.16528100904953 -0.510879740809404 -0.34791756602014917 -0.5704434593056499
P 3.067159240027726 7.060257553050224 6.214033433508447 0.14384885099857164 0.15885483748910062 -0.16371936467025353
P -0.15805642441915183 8.367203269890698 8.345462659079063 -0.5117989101895637 -0.8452396227497766 0.17762517611806827
P 3.4533977555925763 4.930114457223712 2.783352966734046 0.09110292675510762 0.2506545332009167 1.1717257583690273
P 1.0422576135073736 7.88721853424986 0.5869630376722351 -1.2309791447137057 -0.1749921093705954 0.1660115031385399
Ni 2.1948956395903383 1.5622387539070373 5.384833805955092 -1.9262195805927989 1.1021769036356115 -2.5174645500248323
Ni 8.046089011888546 8.458245272079877 13.26424356257511 -1.2888485062266641 -1.1142803717673648 -1.1600493504723632
Ni 0.6949366034001181 2.4355338601363 3.5587879104182867 0.03628829290807299 -0.08880076098449223 -0.179754049535613
Ni 5.28091006206594 6.516040672963984 7.16587352400875 -0.8095686517107283 2.1306811601774207 -0.9895828968862636
Ni 5.51756165211898 5.91013788795463 9.43705226940398 0.6012360192064743 0.5640432122062609 0.5189069819892547
Ni 9.135108221294251 2.287889139223605 6.101852067577312 0.5644461040716344 -1.1257526340730224 -0.15829716521341772
Ni 3.108475228772555 9.29470354084074 6.308111408149928 -0.23349961868818495 -2.0382073212167153 -0.5611334947586336
Ni 4.03241634009838 8.671562528408609 3.133973866090804 0.4225862584786335 -1.4587050941429072 -0.8019682136556511
Ni 5.830256592576638 7.103246253889985 11.968746630739952 -0.5174126568319154 -0.12771106489644457 -0.8878338032712193
Ni 6.513336455077178 2.1402351254659377 5.38564971774362 3.115784424025776 -0.6950131503596353 2.6090832400740935
Ni 9.02272055420474 0.19324749904303684 1.3243326297827982 0.014123583885575674 0.17188878785492331 3.7648619881955616
Ni 7.795330883168243 8.220134705366256 10.18519041026792 -0.40866116375710915 -0.025590446874594632 -0.805269253004426
Ni 6.145218987207428 2.8170144390755656 10.078163785442667 0.6167433708134539 -0.9079938231588621 -1.083130942747754
Ni 6.553630230875104 3.4053723327780747 1.3057069806057267 3.2674142045213475 0.05542012864151745 -0.4358387526131655
Ni 7.667628607565131 6.284834690064447 7.714089115286375 -1.0925198401618215 0.4834915786044383 0.42809793232548204
Ni 2.865885510782505 4.522567448138417 12.800053875532921 -0.7748068227495107 -2.6055389743662607 1.6353524797287387
Ni 8.931344009596575 6.308940329921417 9.655118169513328 0.7928058304300927 -1.9385361931766227 -0.807408667944932
Ni 1.3749879277243329 0.5793754297527226 10.374054474337736 0.6172923013383885 -0.47265489300025054 0.3252324657178077
Ni 5.398715457774037 8.918036655596891 6.296305777897695 0.07188830149986973 0.26355735730551383 -2.624383874986906
Ni 6.2360658396521975 0.08761387167906477 11.350430463417203 -0.23814997297600274 0.9722752588457513 1.1829059433555629
Ni 2.3807339533373217 3.00446970784765 7.050060514262618 0.7183772790068724 -1.2092448383604077 1.684346393128938
Ni 2.6822867726737365 6.24815583096057 1.254423486344095 -3.9709258792702964 -0.42818792093612706 -1.153255981699614
Ni 4.006377788487266 2.860635053373412 10.970091045840482 0.20289114977370862 0.806784918318004 2.123673618511336
Ni 4.753513231378743 0.6896034396707754 13.189723309461378 1.0802541354205912 0.06571611125088682 -0.3846737997035762
P 1.8736884531384683 6.3232048469532005 9.970579589919105 -0.7990361276105207 -0.10773719287767897 -0.04909238665127674
P 5.4067351829847405 3.2999914707973366 13.045634031034911 0.06943881151811267 -0.9198473800633384 -0.6911881201865903
P 4.30752172264492 0.9648668005818369 4.48093736123354 -1.0465803973172298 1.807873758961338 1.860863423784492
P 0.7478519212388057 4.582394784067164 5.367682931275053 1.6292517661476391 -0.16788378046058827 -1.3391948198897001
P 4.050416580808847 4.605199425628075 8.458704338621486 0.10953387976678554 -0.5335172757032619 -0.8640012196279958
P 7.308255706813888 1.7738089553810634 7.471800485473413 -0.006874101412013969 -0.10767240107801457 -0.3527057314374119
P 8.336090824924955 0.6493050174503637 11.655691127897386 2.272037326661126 -0.9276622481220669 -1.5235724842402534
P 8.598725209519278 5.248208540610013 1.8952199749382361 -1.8281348232032193 -1.6622125373443761 0.9242820187959242
Ni 6.998887604856151 8.762390795163437 7.760427886738486 1.0537195794651724 -0.05194888226346537 1.283974980184447
Ni 4.605608310806836 0.9292724164861736 9.982358270920919 -1.0240215381801072 -0.9047236370480225 -0.7426654621302757
Ni 0.25870165260223676 6.523893126965196 6.491140494861923 -0.12149825121751334 1.3047608065815464 -1.056933715527096
Ni 2.430794509200658 7.242769028297286 12.642581041778 0.3130629202348092 -0.08170374492839477 -1.1155147583950982
Ni 8.137121721232754 1.3403256159793457 9.535728343737532 -0.2627068363797605 -0.4426930565308376 -0.9204611023879372
Ni 1.7601949374973085 3.8013218713385046 1.4722013082593148 0.690244011105766 0.7518101047440213 0.6492161466301787
Ni 8.133004990910226 3.904686185960352 13.034426859998865 0.6526565397702954 0.6084677610682231 -0.4433823692883783
Ni 4.031310491546731 8.559063347179437 8.044077110952141 1.5527305938614484 -0.5350049159923819 2.5293163071570954
Ni 0.3862636062462747 5.794767217629158 0.16472496997094876 0.2451480015603907 0.6088786233533965 0.9838048567519055
Ni 1.2521272243515518 5.6025540122314865 3.089049465643407 -1.003076560497324 -0.9958155080595364 1.1176372040547398
Ni 3.6104932998416395 5.613017755669786 11.04137460105052 1.4131706000462179 0.9589356043140519 -1.9751643859226173
Ni 0.8316464336344416 0.8401958510085403 13.12135120258102 1.404479500030123 -0.07067576924900733 -2.902384661411259
Ni 0.5574248006447242 7.8430031778738165 11.195324517276614 0.6958878396551048 -0.2662539303010705 1.2813442274298192
Ni 4.372376487703436 3.5305283688589015 1.4617970390288357 -0.7299948086411427 2.302532152815873 0.7629828335313892
Ni 2.4491571708650266 4.032880982346972 9.794813790837106 -1.3320242702831897 -0.39088224250713327 -1.2721921286169058
Ni 5.957540690156018 4.4300385907537425 7.3473516348949435 0.5390168653652524 -2.223868737375699 0.9402758231210193
Ni 4.532315642513884 2.979964475656891 5.717324364771778 -0.29424887285209966 -2.616437880666952 0.09488964749104947
Ni 6.314711186648934 4.57517424352404 11.406874274491702 -0.11592127135036809 1.0388074382400303 1.357599290538817
Ni 7.0620139007499025 1.6593025196379725 12.834206010088954 -1.0368541711684014 1.6175450192336724 2.4804609762172896
Ni 4.225744686892672 6.272633184616414 4.496401584551189 1.0982883672144828 1.2675723704567072 -2.3955060713414484
Ni 3.7579521638548976 4.896734558084839 6.073330467789721 -1.2694562177429816 1.2863560788221136 3.3681073460680513
Ni 8.084347654637638 6.341177209128752 11.972200781215987 -0.19871824934294166 -0.5518574687733463 -0.72093964041741
Ni 8.220311269420721 4.417465371506835 6.282772607765195 -1.6146682119065094 0.48872120243449385 1.2828907459813323
Ni 0.08303807481492761 3.195205350894797 8.446204532849855 1.8701325077912436 -0.5776492330254697 -2.356327087149142
P 0.5481356728108666 0.005516232775288006 5.58263294046534 0.7090642291360626 1.466830551463519 1.2609931745772927
P 4.289911781423271 5.956230399014988 12.998846415170659 2.0747069588046463 1.8510178984489798 1.5618865493291036
P 6.161658029962624 4.741990103613653 5.236963268909581 -0.3815535089070397 0.19427281197707832 -1.2811272263230065
P 5.4416576943889385 8.146349516289797 9.843220220295454 -0.0605510221101796 -1.2162642071010343 -1.0074446076580328
P 7.151466826448896 7.878111546177451 5.336291700960156 -1.2428735821584467 1.2264570884736363 0.8558770478589648
P 1.840847539007963 9.039884438867741 3.0310007802422714 -0.49486871009312833 0.27490132156342334 -1.052618890201826
P 2.741612294974004 1.7760113596393912 9.178062538607616 0.31417903611712344 1.0200494409062366 -0.4639229124438914
P 7.940457243093568 1.9913265776370714 3.1003653629656247 -0.9544192045009369 -1.9715172760883333 -0.9818335919581478
