# total energy = -340889.5955249691 ev
CRYSTAL
PRIMVEC
9.10242598373301 0.00000000000000 0.00000000000000

0.00000000000000 9.10242598373301 0.00000000000000

0.00000000000000 0.00000000000000 13.32232051451652

PRIMCOORD
 96 1
Ni 6.663703912748475 2.2135188146080504 11.216234866607076 -0.4453137819831363 0.9149265457229534 1.0532475249247601
Ni 4.880884581857395 0.5950565257481029 5.8125551870588055 -0.2186101031708622 -0.9679938578615779 0.23412105432226776
Ni 3.1210670810771166 1.8443881393079617 4.436172823794336 -0.032433695048673175 -0.6854406761798518 1.0582349508370226
Ni 3.653295022671363 4.544904941485497 5.040313570535941 -0.10315343016173846 0.25881752862768326 -0.5370399441445396
Ni 4.065707732865342 2.535580845862649 2.280688345647479 -0.42781536808805676 1.152163005745751 -0.5731323189917226
Ni 5.342623337706472 4.628974946591694 2.6670617462261155 0.02610415328621956 -0.17195846475059415 -0.43842219706962554
Ni 5.531134576960406 3.396679433243698 0.164562756855234 1.1086033759872456 -1.4676368494148984 -0.41810636833040893
Ni 5.878847244246757 8.370335939315295 12.211278381027885 -0.3327729970692269 -0.36139683145350665 1.077300452108906
Ni 2.2359016797613784 6.448568077897352 0.21562463511900995 -0.33377109931643806 1.131200030340839 -0.9745933654559666
Ni 0.33503844953950496 0.12817945050941532 13.42610087772345 0.8967640158813136 0.4316879636695856 -0.21329743270869717
Ni 8.341089845074691 -0.1926328176766384 6.920811943414366 -0.7240159653498885 0.6454520516020561 -0.6188246788225149
Ni -0.43850754460697633 2.490660374316624 1.3644854926848036 1.9067756129355742 0.9854413639140642 -1.1262727682425508
Ni 7.067059709226488 0.9352742555935223 4.595947704654998 0.8731291500711931 -0.6601672463250436 0.06874204256140419
Ni 1.1804025836045544 7.612913982310988 2.65993454678933 -1.1235630826208716 -1.3140046937773178 0.47767600036392577
Ni 7.830562086695384 4.03367629631611 3.7907862548204108 0.49171576628644353 0.2988712021154595 -0.7357245120360684
Ni 7.943231913807176 4.479103505050602 12.361794274318816 -0.6413663115684567 -0.661719421303512 0.2081922502716479
Ni 8.385254815275566 7.64452670727134 8.967613456969625 0.42575282913207324 0.42682446492969717 0.8206606478588319
Ni 7.03077743980755 1.2236209015175281 13.350563486604536 -0.630875696449778 -1.055332175367931 1.4925953191324488
Ni 1.8340204762702874 7.011079790278554 8.936186421496513 0.8765299482226259 0.00988871986862168 0.18771392781263802
Ni 0.4937738333686467 5.1107026295968145 1.0540408875364242 -0.7456708246155028 -1.4904381635801298 2.18879220538754
Ni 6.806147774799892 1.88403830628962 6.800790997189996 -0.16044917855941399 0.94200051912161 0.4710955189329306
Ni 3.6904420225455934 4.594094450752918 0.40793886789106665 -0.7125249339911536 0.029711411021503667 -0.038325892163392064
Ni 6.325330334379292 5.718489808132003 4.727065418227243 0.6986263216321903 0.7829898727809353 0.7257018376927437
Ni 5.575727361176005 2.9852497850410002 9.273440401486738 -1.0408524936945172 -0.4079646519107168 -1.0777082290702857
P 0.5403500361759119 5.9400246483522965 12.25862646954682 -0.055126508660498605 0.13852666745470982 -1.3814735260532531
P 4.348247031100115 6.36022903506976 12.435213530943555 -1.4036248653393115 1.6041829961044693 1.521048175156503
P 2.218989372541011 8.527370989996555 1.1015054871061802 1.33487999456443 -0.39351890879903195 -1.201535899751924
P 6.578823791742057 7.95098718062728 5.602582248147076 -0.06806841353314728 0.13775739338885307 0.5257926533654944
P 4.869524754402595 1.2432730389172986 12.721536707602175 0.20139631039573702 1.252649687708604 -0.9952123272578989
P 4.211510390053634 6.277670032653864 8.183581468249482 -0.7804601643805462 0.9503218945031117 -1.0865258273619158
P 5.078607476066665 1.2076734514367509 3.611401107718865 0.21663266772951723 -0.32355662067728147 -0.15467345241790134
P 0.41785687109198827 5.629595517327854 3.7301167660770336 0.00010078724392240706 0.10223040412683683 -0.9884223009192591
Ni 0.6570877373979203 0.17794787406058946 4.6762147162430745 0.6512596594227688 0.9714877299474495 -0.6383149263366427
Ni 2.1046629039253943 6.553000209619245 4.741786771546671 0.16270300759059722 0.36182800545365423 -0.5309803682140211
Ni 6.17456685510537 6.093710006322526 9.050118755073033 0.4757618140603484 -0.5716467355851316 1.5335581346980556
Ni 8.903710786566036 2.444201592802762 9.974727698303743 0.37761020798857553 1.8095830283429608 1.336868999970001
Ni 2.325961081073712 5.494633849321185 6.995204249361954 2.3399504455633315 0.30811534642154675 1.2610937047108992
Ni 0.8514937076292022 0.571783443347115 9.144334324026284 -0.17144655811118215 -1.7173848116411456 -0.2838428470274273
Ni 1.8790410745006094 1.2795006937811646 11.46352320027117 -1.5674596725415069 1.2222453643851336 -0.8250500351757791
Ni 4.171177541133587 7.063555275276089 1.3891712715769655 0.5087827490710594 -0.11965759846434874 0.4640075017378977
Ni 5.7599604602826995 8.062473692379196 7.743105979174775 0.2006776870621576 0.5128093537319491 -0.147118779999095
Ni 5.406777235063388 3.092257903277083 4.826583150235315 1.2634647760462367 -0.6033170701052191 -0.1999498077571976
Ni 1.2851350953793388 7.785668922426894 6.587300880931684 -0.07014020846051146 -0.20141816477260793 0.5389371611672524
Ni 5.510098870832167 4.579658003362443 7.122418842731779 -0.9988514666723829 0.24743448360172224 0.1731226602620244
Ni 0.9550811342326612 7.984311161646529 11.147851071959899 -0.06506973591613956 -1.0117728027197415 0.5551916753529019
Ni 4.751175013563403 0.5633300204646847 10.48537196773387 0.1266885371692012 0.9495418218039776 -0.28613755659887496
Ni 8.47741687695814 7.326806533144899 4.760025302212684 0.04638527213275883 -0.5420445964479826 -0.1760640022785355
Ni 7.627086459351952 6.292561601336599 7.094441626653996 -2.5776070238426834 0.3886512962940855 -2.171109700506112
Ni 2.6395578562922823 5.410745892731892 2.516332856170405 0.04175008735359262 -0.47071319589284744 0.6010069339148036
Ni 2.4438830078981804 5.5993026441150535 10.85609192658653 -0.24763297276577353 -0.35048404119574483 1.6434062032711503
Ni 1.6110656576181441 3.4818872415805444 3.8163522382918025 -1.0412944663279422 0.9843144493984725 -0.954383209056679
Ni 1.7679914791892615 1.119916963863251 2.2237217237379263 -1.730408734704639 1.3987014598957652 2.0490311513050967
Ni 1.111542732085674 3.6661749552423104 8.264235332935979 0.9620260703139174 0.052667762707360906 -0.6011450021545647
Ni 3.9454100728952786 2.6951281660771818 6.903919661530858 0.06564232059015791 -0.2769767160352133 0.7395359153623586
Ni 4.305292683536652 6.7443514057368805 5.815779266293172 0.3399283771670855 1.3344326226143666 1.454675918378856
Ni 8.634096933031437 7.09295611075606 0.4535183550682832 -0.4843212735945852 0.8497663069755366 -0.09032902470356055
P 0.2391735210231073 5.925815761607951 8.018158532151878 2.076323925582779 -1.0838171701815011 1.234254473030868
P 8.885533242153187 1.9159423088770196 7.724188407540711 -1.3346308546681014 -0.6910757629784421 0.2364180778865606
P 1.9264647131540618 3.3625908484534524 10.415509939129434 -0.12713025269231007 1.1639522850711954 -0.03550204956135176
P 4.529804017008323 6.316482776457765 3.7248273464183925 -1.851975634376559 0.49313295834894433 -1.5519826599518305
P 6.991081760696667 4.191530565323437 10.272441650665037 1.716543546686773 0.908873397550338 0.5014047114394332
P 6.605584923726922 8.177200667732002 10.032826661988437 -1.1261732665502089 -0.2182753455392628 0.2799018601018083
P 2.746875457007101 8.991312532900167 5.47318216233182 -0.14544293495856886 -0.9285793606196975 0.06010030772600618
P 7.107164997500406 4.219647958759237 1.4079559477936892 0.945831719942242 0.4276744716348182 0.001504866680300634
Ni 2.8762664403965115 1.6314641939372203 0.254036872185722 0.517997839911424 1.0064758159868603 -0.3526080295172831
Ni 1.673034972772214 1.3434452353436415 6.89761805211823 0.4408626881903181 0.4457943211639806 -0.5877215296598072
Ni 7.27812675972481 1.0298029479958457 9.109203511476762 -1.6164934380407066 -0.6576300817254868 -1.8866495316096605
Ni 2.8647700765540334 1.8651325678091553 9.22202990031309 1.499404114524166 -0.14377274634499754 -0.7948593705250118
Ni 6.757759279006849 2.153433701603935 2.4999730661988404 -1.3912720002009136 0.18834204831494014 -0.00644704117692438
Ni 4.171277667817884 7.339713772993382 10.445924784848561 1.0842953953695005 -1.631856807870654 -0.6992989222191828
Ni 7.614770877183407 6.884474149197772 11.447670415419184 0.7359623390784874 -0.9542423126034404 -0.15792821190977316
Ni 7.751298162435448 3.93080978183959 8.180158045889105 0.1347486884695163 0.34356520258872447 -0.07897349048142528
Ni 3.170839145598629 8.715545439494218 12.38628071008497 1.0399742048546219 -1.8563220842707129 0.3155692315964307
Ni 0.14226727499001965 5.0427530206624525 10.153966296349182 -0.7236218152352635 0.18896425527997132 0.15169431518491938
Ni 8.994907991109018 2.583769088287098 5.421398461698521 -0.05610815584747757 -0.09309630303605257 2.2766696832268147
Ni 3.8319028226057292 3.0412297039889338 11.472049442560362 0.022531091222980554 -0.9162545205057576 0.27312546060992315
Ni 1.2984610468167004 3.7594657177296877 12.640364004642501 0.38181910386360046 -0.9889864009528452 -1.0918534102224162
Ni 3.2751802530620697 8.769795897531564 7.79383743938037 0.7990600388699206 -0.11348977909074003 -0.0628560160942724
Ni 5.835829179702378 8.206801756580568 3.343396563073695 -0.05692216710834067 -0.19671947374535798 0.5244816478635549
Ni 3.313883767755828 8.619514846827437 3.172883550443459 0.33793371533455996 -0.4821000975735504 1.5778448724305727
Ni 3.787819774237462 4.490718200429067 9.209879982294929 -0.5812670322837151 -0.4048693008148446 -0.12332193468981341
Ni 5.285532922805425 4.888403185605524 11.396778752518715 1.0485341786094908 -0.5387134751922206 -0.7944202261050641
Ni 8.305672306111047 8.901862994119462 2.3363615128444293 -0.24666083866049135 1.2838528527842856 0.2968842535924177
Ni 4.750674380141917 0.3466586063734776 1.4195733738999083 1.0165517121656236 -0.052417080149135535 -0.6882755745254857
Ni 6.257062140540349 6.121618043963885 0.37300466773980256 -0.24270493933653686 -0.7775478758297577 -0.9423036521843254
Ni 8.156101244622846 0.4148457886223986 11.071500834213008 0.9061259167121879 -1.8228743461352284 1.285253332676238
Ni 0.3752584283790722 4.972291142194818 6.068369763012094 -1.799557525786159 -0.6032072840002322 -1.82306152244537
Ni 7.475494659326118 6.547993875404389 2.4886896991211405 0.6295001562584901 -1.6930565193084264 0.8282127491744768
P 8.978514522161827 1.9707844245943038 3.461591562673519 -0.8312289102929815 -1.846743696553658 -1.1231154535604915
P 1.973396820811874 3.2560196466579394 1.457941009079979 0.24272216572771746 1.1242323407737542 0.2637450478362877
P 5.084651486827873 1.0814319073897771 8.34171791245801 -0.2843748082714973 0.4237797645661024 -1.8660799349884247
P 8.852882840646481 1.9325360311928053 12.429178622608191 0.4099420873520617 1.394122325165515 -0.4703709820620803
P 6.660408834592515 8.120374223180466 1.129623790784564 -0.32936679960115534 0.5245690653710385 -0.010806089476568486
P 2.0676069283096155 3.428638050386169 6.016959261838448 -0.16958533653272728 -0.155104626418049 0.26997945878177376
P 7.1938382963983285 4.040430296293242 5.992566581058501 0.381552223355459 -0.1562837343278147 -0.9772449441462008
P 2.7025557455668587 8.76275972235323 9.993245673443203 -1.1386408028896002 1.3290263639971303 0.7510027783513775
