# total energy = -340885.3508063697 ev
CRYSTAL
PRIMVEC
9.14999647028209 0.00000000000000 0.00000000000000

0.00000000000000 9.14999647028209 0.00000000000000

0.00000000000000 0.00000000000000 13.39194473007141

PRIMCOORD
 96 1
Ni 9.081700658474137 2.912022900289791 2.956660241899869 0.5413378001889452 0.1071898050146412 -0.021465626072943677
Ni 2.9240002453553027 5.792478313584918 6.282014091903445 -1.581286036901638 -1.5265364519645839 0.22729811786316337
Ni 2.6707923996731764 8.312195125498995 1.7519607582181738 -1.3138062046132664 0.3361185165026921 0.12715982037866486
Ni 5.429452213146283 2.540780103236313 8.52243275888421 -0.04797549943801415 0.49111387103638643 0.7572726705204894
Ni 6.853713176371908 7.89493699740315 7.303578231034183 1.4493586199310007 0.24035083728206347 0.5505073825033551
Ni 2.37283192242847 8.694271518089192 6.480040140319652 -1.128951086405662 -0.4714804130761751 -0.7398200222616806
Ni 1.3269324533235263 4.160091536104039 9.997220001293758 1.4205524943325858 0.3117357167829534 -0.8360458720656505
Ni 2.450542840412725 3.3170108834407537 2.920528736785513 -0.2850589788227155 0.6862153495623472 -0.2668619961987146
Ni 7.332285429207244 4.24716290023193 9.312222003502765 -1.2539920606691113 -1.0314741378034107 -1.0501354616583398
Ni 8.60141735634373 5.998472178718504 13.083340794857802 1.8320920080787542 0.08392749205259094 1.1281337327106895
Ni 4.667275827151641 7.992549157188389 2.89314188306849 1.1651622462188966 -2.3424822108462497 0.37395024263848503
Ni 5.952557497634671 9.09748440197147 0.9010010438009445 0.4662962977720743 -0.6236465256911905 -0.3141211862959945
Ni 4.01418569621508 1.6428635231646151 1.7735886043078222 0.249487509476009 -1.0369706421416076 0.2979116664156676
Ni 0.9850153941882791 8.901555532691255 13.252172865301494 -0.12845411371005622 -0.1758526575986778 -0.3116552412540052
Ni 6.63981371449531 6.231504282712735 0.7116263168205209 -0.9438265165867551 1.5220534764925657 1.1904313051983304
Ni 4.579618863265008 7.102410073912478 7.162668289086987 0.2226354222801714 1.3555125832131172 1.1272140491098974
Ni 5.73040473915831 8.920697324805122 5.363674720245633 0.2103226663510894 -0.27867827210735235 -0.8734397393330764
Ni 6.996471417557632 3.8458074655844112 -0.34777763172077814 -0.18567709988826733 0.6811798440209688 -0.20553707203698796
Ni 3.3535102184035694 5.73121908882281 10.879869812655137 -0.2539308899593433 0.5893966033693849 -0.4168298156108305
Ni 0.299470226622712 3.1918114850210473 7.952069573865376 -1.1817618024487906 -2.1855081353196293 -0.6814374685577297
Ni 8.235701157013374 5.003428388661774 6.54221893970291 0.5053166448993298 -0.30894812673548727 -0.17836205428409282
Ni 4.4133634317597785 2.4018008104937185 3.873191574302565 1.3986994030132363 0.17607171558801935 0.6028468153370199
Ni 0.6475754282085362 7.1735055446221985 6.386832788719698 -0.46040281510577485 -1.102662327912462 0.41114099275616933
Ni 1.4657378961377443 1.9113518625514048 4.939845979856783 0.4859050731419374 -0.09458394332517257 -0.4178906527751771
P 8.179318880242036 8.126962601812044 0.8720147707428587 -0.1382775275583812 -0.4977480885234525 0.1310200746650195
P 0.7611250514277769 5.0115810353030055 2.697954163482933 0.6703596134770132 0.4191443226766201 0.13808289504907187
P 8.085046469080869 7.834007172505333 9.728390367047576 0.050519348905790414 1.789398840085602 -0.20488632582686647
P 4.412283732204599 7.351482121298491 9.583355606799746 -3.568496812465828 0.3852849509250139 -0.5160931666895434
P 1.1386072309107222 5.032543676666708 7.614472227950471 1.0284222383509645 2.7780288861402935 -0.9898181528255211
P 5.966291641976407 0.631921614657675 12.103866638386615 -0.053353218810159725 0.39899201609846124 -0.3457552682615077
P 3.6817571831706926 3.362587014664064 9.622567000645233 -1.215165574720217 -0.10452125704354258 0.41582811381919355
P 8.169144084433901 8.20086712136448 5.243936954575815 -2.1774618679763855 0.6300665702849213 1.7034478898450793
Ni 6.566641194641304 3.541634140899306 4.312098593479388 0.6130396967096216 0.9865042579609397 -0.3471359506591183
Ni 2.3897319654659035 6.765415712749152 8.524066033211326 -0.3029248033595428 0.025888951951619926 0.3275811684556423
Ni 1.9890261805507385 1.641125023880851 9.558246187144453 -0.09885300301417169 0.9863312227181852 -0.0785438591431744
Ni 6.6581503069409065 2.2304396810919602 10.733549477936943 1.0407499066783819 -0.7116271047672325 0.214952708923933
Ni 7.299061792894888 8.202633070636935 3.003063532782402 0.44311805988339814 -1.470179413331094 -0.3457652955638368
Ni 8.87807664236421 6.039491611819106 8.834893235155132 -0.30237458728302763 0.34368038801035006 -0.048904953230819004
Ni 5.186217863355224 4.348114808641243 2.2581897896593275 0.838308442847582 -0.47189590334703896 -0.075595832258444
Ni 4.885375137297962 2.312286397372328 13.064551277598804 1.282367526488011 0.470386408681048 -0.08035442998935194
Ni 3.913407637734144 1.3827382803323538 5.903838342706239 -0.3458930793909527 0.6631067885693419 1.9425391436884285
Ni 7.666031541708799 1.0239211781596738 8.619162859032844 -0.07056084093769784 -0.20210927730236158 -0.4448178161833242
Ni 0.534586699758215 7.071638636589853 2.020094077751226 -0.11938069065387827 -0.658552079319124 -0.5801061792063944
Ni 8.963427807200796 0.8731008752953997 6.298017435310305 0.12470184575647558 0.0017648052099066378 1.8930418082892495
Ni 0.5251521386451142 2.8528315746757387 11.946176518352603 1.083420963184347 -0.4849632780539584 -0.306320202194337
Ni 4.15170098956082 1.630602528215963 10.921505955501665 -0.5639941041358802 -0.5230138050687766 -0.6585230258534013
Ni 1.4770838914633624 4.401688036569868 0.4620473596433465 -0.011731686614631408 0.9313420109664994 0.3886065590990791
Ni 4.101046610429672 5.358475692387556 4.268012996642 1.5156586287098155 -0.8320400933403671 -0.30140451006027447
Ni 4.732249950383267 5.360982791354668 13.117878370628834 -0.48362116220376705 -0.16717775553249917 -0.4241523174141727
Ni 6.55328220014501 2.2069424907724535 1.6366296307328863 -0.011794421531766784 0.7977045532832907 0.9779427415441739
Ni 6.097941787738501 6.101912886102468 5.651306681745535 0.43671884122527366 0.10470020582356807 -0.32568395143292944
Ni 0.9140050184434999 7.356249269334497 10.783836027219632 -0.37352703905813733 -0.2645220352116283 0.6110964569403218
Ni 0.6748991469515697 8.294489882793291 4.0586830428828335 1.3959858607368152 2.0695398127814095 -0.7868002476659611
Ni 6.220158287387118 6.527643910707606 9.539095245034359 2.9439552857641944 0.3015500344992032 -0.38397343120244193
Ni 2.7404330209822745 3.5593119336163177 7.569327976549232 0.16238136258512034 -0.8698371095834826 0.2725654743413951
Ni 2.183710650343627 6.534890707722033 3.9087200946653424 -1.3933275971783619 0.3712660109381025 0.09715221827298107
P 4.420399778860907 7.399702601432369 0.7502969458887957 0.2886618656826254 -0.8364971006704561 -0.17637947663642528
P 6.2441587274992925 5.849153390235628 3.5166171362059404 0.15994935610486002 0.1134131602165337 -0.6865732471223982
P 1.5363209670585667 0.9503277584790701 2.6910980713075414 -0.21517716622991326 0.2269697879894672 0.5110959705852682
P 1.3461382954110044 5.526478773172781 11.80758335545093 0.18385598751912852 -1.3678425655333797 0.6116752122619272
P 5.687930456657083 0.685080347757066 7.51909449724468 -0.72428284585803 -1.751952522313686 0.28927327401437924
P 3.1206977143188652 3.5544990355991604 5.269703343960447 -0.1701473796837844 0.10152772163285739 -0.5965414419442824
P 2.0095038721142338 0.9614816038838515 11.629845593676249 -0.514038855263676 0.8768413088154576 2.0002712082925744
P 5.812891955174801 0.5646087523895751 3.1529990310112024 -0.10397618317334996 2.954922583408975 0.027623932364855653
Ni 3.5976961678025834 0.1418899065434647 13.140188806437264 0.10427880201543331 0.2584400906836065 -0.7946783648624571
Ni 0.964290652726565 4.358426854392833 4.805954085018256 0.6083052673484298 0.7641866240315033 0.7258594463165305
Ni 5.438995659214525 7.683828284376806 12.036277446232358 -0.4799866507749733 -0.7719480131444769 -0.1489360357134919
Ni 5.65908966853906 9.099854250995126 9.891531139836 0.6800763265441448 0.015876047800308143 -0.44922648677398114
Ni 3.007073061130536 8.482879155179708 10.778225249531188 0.5254627808299015 -0.9072597732063149 -0.2674723760892039
Ni 7.961786869861995 8.075237673121947 12.155747117012629 -0.8218842358532878 0.46631429549420333 -0.9594176861567929
Ni 3.092204626057595 0.02995068266076333 4.045746778212383 -0.7703547005154281 1.6367683862396585 -0.2249609850895545
Ni 1.865062031622128 1.9902705800380645 0.7841135019568766 -0.5747932516339134 -0.26912430987033004 -0.8572433320788722
Ni 8.526240987315278 4.941986163975059 11.09649780340762 -0.1283229874488306 -0.453552882063477 -0.1890493587946099
Ni -0.11706779676980548 0.5819708702366403 10.621968018906848 -0.020491435085132452 0.35039250992320303 1.3101159002458727
Ni 4.392382490403615 5.214683501627803 8.708607732182884 0.03377761067107731 -0.8954908055958449 -0.6261662067892506
Ni 8.01402419834099 1.0996648469544064 4.1429984281461465 -1.007397299359865 0.20005033789080384 -0.16122410905222556
Ni 4.9213986724567995 3.775151194693746 6.520350448712404 -0.3136208496208082 1.8113815150042802 -0.30232059411664064
Ni 6.374710873713746 2.145106816247834 6.186408526291518 2.0090808361644044 -0.6993197481547893 -0.6425382203893708
Ni 0.7434911786926708 8.577471816208936 8.723793980926375 0.4080718669125423 0.4439955773923451 -1.6092218440799577
Ni 7.7380145620528635 4.759773139044121 2.371873917823154 -0.17331240767532732 0.1065262032887133 -1.0454393417342511
Ni 3.4426494816795166 0.021510726137900137 8.377263493691792 1.5102785953448248 0.2865569035244807 0.8693676261462318
Ni 2.6097985248017475 6.83995158204148 12.967982217383822 -0.42278397631173636 0.6911613807137128 0.30815391296896605
Ni 7.919614537236369 1.46507909640916 12.881309793091575 -1.314437667549678 -0.818473667509842 -1.4972711273415633
Ni 8.647149037502954 1.0255132775037523 1.571585052530287 1.063518053612833 -1.2619745646539557 1.567753292522526
Ni 8.410118385156066 6.305234952336794 4.341012581567255 -0.3452325629888183 -1.2311375246684413 -0.46562498273666264
Ni 3.153829850668917 5.7138981459587805 1.9602457824078354 0.011855099566373132 0.12912285764230666 -1.1703029098795716
Ni 3.096660674221769 3.570776878892931 12.069918322372818 -1.3626044570628921 0.11377594287259114 0.19059587734612338
Ni 5.18041676574519 3.9696160645771066 10.99645997962172 1.2007229169323257 1.1822677955509315 0.28132059482620586
P 6.382040020694246 5.3380986507825945 7.672927893867605 -0.3884749186172213 -0.2509502100644646 -0.7694779543374296
P 8.838155208811248 3.0999089228835386 0.5716926794711022 -0.6965308725557423 -0.051475542171472634 1.3638925797466963
P 6.594173533298388 5.782102217859716 11.523727597395288 -0.3861593831101672 -1.0717334995440897 2.465264470982509
P 8.735583751069166 2.6248685685931132 9.954741143794417 -0.5868956913244021 0.2544170855671425 0.00021288734175447206
P 8.466820911795466 3.0347334997348456 5.479126627681161 -0.5110280934618103 -1.2792603483175968 -0.3419952869984433
P 3.6914927791597716 7.543110492350447 5.185709123564818 1.2733313844276715 -0.9291411466604385 0.049316843957257
P 3.679460534116878 3.712546920485778 0.8957992709439977 -1.2338924617057587 -0.29621011034352857 -0.2161899237651438
P 1.8031257071389741 1.4355612085700915 7.379524114745606 -0.37641207391541626 -0.4401000989926808 -0.7230286617359548
