# total energy = -340859.5945666308 ev
CRYSTAL
PRIMVEC
9.40753892711125 0.00000000000000 0.00000000000000
0.00000000000000 9.40753892711125 0.00000000000000
0.00000000000000 0.00000000000000 13.76888414843162
PRIMCOORD
 96 1
Ni 1.54069145090201 1.5615385569714164 5.614744680546862 -2.969894631337776 -1.0259668348319364 1.4233228579888713
Ni 2.3852720653393362 3.6157311079151633 5.388838628120652 1.1822335998788864 -0.17827412255597683 -0.5428568079366328
Ni 1.991020927633248 2.56359196405125 12.316363019862631 0.931195458086306 -0.2668103170251727 0.0037746365510838223
Ni 2.8133433051751693 2.913975748146488 9.815148682843784 1.3187823176716191 0.6699240686014913 -0.683929638851964
Ni 6.492932786736151 4.213006341326966 7.1721015865039055 0.6430578403382667 -0.9021952141992139 -0.06680060256431722
Ni 6.925801871380377 6.084175224138806 8.905604308946943 0.12968130124893795 0.32867234463729206 -0.5901764189582029
Ni 9.085434117642674 5.802127802177218 3.4913342810801584 -0.7632980507789628 -0.19981173951743653 -0.5311341201830658
Ni 6.39341984088679 4.4552880966119375 0.5007604701907452 0.8369550141434812 0.6343739394110236 0.5804249959983939
Ni 4.8407149628861195 4.62159456822519 5.075224209581496 -0.814910375638616 0.9204595597260407 0.5670588591041331
Ni 8.848693402734453 1.5259310224620737 8.383707921244403 -1.1081868572751172 -2.0145202620124207 -0.5925243503650892
Ni 3.5775647228413443 0.9646584401908934 0.36844814017577726 -0.3803206649412031 -0.052657478294715766 1.472367165011032
Ni 0.7117734478793749 9.189622610295508 10.916673642602081 0.049949592445249456 0.5018538831617099 -0.011023861914329402
Ni 5.151088484294902 1.957981651227221 12.663862452549528 0.6433368050312662 0.81755398390905 -0.12300106101528493
Ni 1.7217395358775198 5.807461876699489 8.424229954043755 -0.5458071488142084 -0.6262148006389989 0.04145312493846409
Ni 1.7419845594611671 9.260875309469553 3.7306376095683906 -1.1712061384201313 -1.337225097757839 0.5201326268662397
Ni 1.7936883929257244 4.67852899328478 13.588345998124266 0.8197219380946462 -1.449303341213033 1.1475147083404624
Ni 7.11103631113968 6.889516994074555 1.6950183625564266 1.057429938437224 0.4833362839734966 -1.5641249517413192
Ni 5.882280033093889 8.25838915560308 12.439209484296805 -0.23014047240796495 0.2526340255247907 -1.567965665643648
Ni 4.833659308756131 5.8129746944597205 7.561733622639561 0.05000178583942356 2.927180380298701 -0.23784118348633235
Ni 2.116479865603287 2.1501964848057926 3.5060401457948234 -0.6348804467337968 1.5004929767129707 -2.7286552208031716
Ni 7.685328927165399 7.025681711244496 5.293957013642217 -1.7463968826027794 -1.5677172970782678 -1.7947199951881996
Ni 3.2050638149333017 0.44356075253586885 10.166255906675818 -2.286426762613578 0.501874194876684 -1.1424244383017486
Ni 3.9255778071489065 0.11897432144763727 2.692822384342239 0.16289404055548073 2.035187046333153 1.1836050263051163
Ni 6.884963745276002 0.7321783996233022 0.1204475420299789 -0.22182166812962442 0.19717892988027977 1.9504121186786023
P 1.6954830949751218 2.3129657218152118 1.0081551367714476 -0.20760681008182308 1.1855341250070293 -1.3946745981245594
P 3.5066601026043784 4.2980222698239094 2.874295690073316 0.47941586587316787 -0.9604983208154813 0.8908044558637691
P 1.2264608385688338 1.550080174664315 9.924969469000116 -0.2720620523424154 0.3108255462638582 -0.12187877448538363
P 8.927810804378726 2.836288292405893 6.49592532484115 0.2410000408302882 -1.134279183486795 0.13171632940109573
P 4.202959089845862 3.9199897290779555 7.5218729398206605 -1.4735480726930106 -2.13232692331096 -1.0753893511291222
P 6.526056730991738 2.3952158338932 9.543887944916124 1.1105620423755131 -1.5559717265065656 0.3999155563539951
P 5.226442870403181 7.066087090562232 5.392252623965684 1.4374410425578084 -2.1421529082624464 0.5948501702847884
P 8.484377053617198 8.965243401423027 0.9862393342898188 -0.4785152084357695 -0.8355144250422126 0.09978271391729267
Ni 0.6028087477574816 7.370383341880384 1.827117141439727 0.024889049932195845 0.05078340120045448 -0.13240538504832036
Ni 8.38334008647576 0.029264031069541084 6.469337738571585 0.0369035578945687 1.3474421475001568 -1.7832117374382837
Ni 4.212103217598327 6.315262008204195 13.100818172065845 0.5538991817937234 -0.7404018629070798 0.15493930448477833
Ni 3.63620191243097 1.172122894229081 4.822358973101541 1.3529803037095665 -1.4171686654620175 1.8303845384693445
Ni 3.3840234262863347 7.745095021415823 11.357016076100793 0.6232467191496105 -0.24497728031048133 -0.05090450015935104
Ni 7.642825666686347 7.942502816434066 10.223850740961971 -1.5773807883099606 0.4902854615978201 0.8699792915883018
Ni 5.45820699726505 0.2938604684829569 10.667525324717806 0.5826230320909772 0.06780873211385742 -0.9075847606459014
Ni 1.031687154425786 0.33676637162436013 1.4766025925546127 -0.050250154404803786 0.6366444806127551 0.24807031741350824
Ni 0.9862957795228589 8.851553294541809 7.663967228721445 3.0277408529222822 1.0729401182576812 0.14237458044589027
Ni 0.35003006063485487 4.848805446288506 5.689716179824353 -0.9357020877074078 0.8203287184407096 1.0240156246428365
Ni 5.615350526048157 6.195654559392627 11.000966131362231 0.117416624948972 0.044616096047477995 0.942850525826731
Ni 3.7115468910004097 6.071606752248586 1.7093385181786516 -0.08471244984773153 0.7448426722872526 -0.1260079661624088
Ni 8.037123842086634 8.424215842735494 3.5729841921801557 0.6187115502834184 0.8620723780363991 -1.010557699365718
Ni 2.550346149364551 1.2944491217654046 7.756632427049181 -0.1969603861115705 0.5738468285602439 1.003296132707298
Ni 5.1560368497247335 8.33937865747651 0.7564968875246632 -0.9137970601042004 -0.17555980894860732 1.0054810561737588
Ni 8.835052471416477 5.825148049718661 13.269968542670425 -0.8440538299717915 -2.186358656245383 2.614178909429446
Ni 8.767186486224825 7.821145565398262 12.315399687885416 0.007870660997328381 1.404687245165555 0.5874086264050786
Ni 5.341562923188076 4.1486587756614695 9.434990038319993 -0.023538192331256237 0.5446154424989523 -0.29784867438821605
Ni 7.431428861413046 0.52894545655534 11.80997119692227 1.130616647033543 0.3332314247628842 -1.4480856667558482
Ni 6.8054794496169695 7.972503457794778 7.182593814572141 -1.1365024163903588 -1.817992592562895 0.18990245082352458
Ni 5.7821273746034105 9.070043384100458 5.1219561587691205 0.7153042965085036 1.324630806032596 0.10468323654270359
Ni 7.902708927140931 5.438319460157321 11.148225159086167 0.3746056168342968 0.3930594526641102 0.09467058950170794
Ni 0.16109093208036573 1.1292997774294695 13.162901343132559 -0.6491061034148756 -0.07301264491230006 -0.6353062214173059
Ni 9.06413544970895 3.123246449641953 4.274260708221875 0.03624664103686016 -0.5946730212769759 -1.1506432266671152
P 1.2691898799800452 6.169859087893389 12.418376489535659 0.6712242754701537 2.5921394131309032 -3.3144139703096536
P 2.836147179323293 9.18813621915879 6.3035326887785015 -1.0782443040794139 -0.009451632331203077 0.0648769031790431
P 6.715308189835714 6.570667280170946 13.216146131459103 -0.18013971500980588 -1.9932495255591025 0.6513805012713492
P 5.504924835144415 1.051621729227714 6.747482913422346 0.3277991980037193 -0.0004427439643734311 -0.7055112216774817
P 4.954771963782096 7.3295358082371695 9.425062262582157 -0.4473310695234812 0.4654740589810952 -0.6348110269484422
P 4.1694964741920355 3.7894224975178052 11.18109133677754 -2.087677145812069 -0.8733484651708507 1.5098003701568257
P 8.175527553500494 4.170615971313994 2.111885223633838 -0.5682528794122342 2.8270734502727697 0.782219313163498
P 8.595592977783499 8.585969065550195 8.523971503086926 -1.131911968806199 -0.2792701400550804 0.42946138833191194
Ni 4.424628927532426 8.22088129824806 7.503160404314047 0.1433030057974306 0.9824995076769207 -0.8724668338968459
Ni 2.123366184034156 5.760000843251766 3.8195981191009403 0.45336056354701276 -0.47753356124879043 -0.7457968086704058
Ni 0.39593790942009727 7.002633241086533 10.202784439237595 1.0437748095476347 -1.3606535039841083 0.02551331377975606
Ni 4.678933517454899 1.5727241206521585 8.697363732954457 0.21604748465000856 1.1304217574139177 -0.7894803656012855
Ni 3.4557653174800596 7.8821064170813635 4.665971810441167 -0.7967661006294213 -0.3419965725500239 0.014269365434820587
Ni 2.1808462463464635 8.75106196465309 13.00962619432045 -1.8860748900531132 -0.4757633567222451 0.678217161848219
Ni 2.7722699905997956 7.811041868684118 9.144769346614227 -0.691011742509726 -0.6640714664754563 -0.6250130670214139
Ni 3.7384242294662466 3.2800042693326215 0.722283550271406 0.5060699781255865 1.1633784148455963 0.6837108379729386
Ni 5.436738993632204 8.010491099630636 3.0436530265323767 1.3502868160378036 -2.184560683804696 0.9623384593480137
Ni 0.8612216098913753 3.0691436937731997 8.383597853039975 1.5568577286559446 2.947415219288337 -1.1530338383864787
Ni 8.631699111851361 2.393927001072122 1.2664739235169415 0.8290010494037272 -0.7201793652126177 -0.2617511573347105
Ni 0.927503365542373 4.278294660876461 10.437612601499646 -0.7004165807633937 0.9295147279497734 0.8993991395113157
Ni 6.925858316613417 1.0650274720746926 2.556082866549174 2.9952307961097193 -1.148617711596654 1.9599889637337597
Ni 7.000939884095335 1.998377623006116 5.2502815738237025 0.055099254966988975 0.11697876608060499 0.6503931976574154
Ni 6.4867802563348 5.490418410253158 3.3710080963012157 0.25749829559562754 -0.4471444074339719 0.5170516739480708
Ni 9.161183620382234 7.133332178190443 6.869695309738707 1.4507033068843533 -0.1630876446235256 -0.23918304222620743
Ni 7.95285110915805 4.011581527224049 9.257275044355492 0.5525858622989387 0.04697508319795781 -1.065503716584294
Ni 1.2574116413523841 4.211896251743847 2.1633115347026157 -0.5903731083500413 -0.4576345083320183 -0.26916647596217513
Ni 3.1277808833628256 5.478800099785777 10.516219173784908 -0.47180488629512934 0.7698173399547193 -0.019215139475870134
Ni 6.7868619302526385 0.4456529891738815 8.433083388846065 -0.7428194712096369 0.6460392915640938 1.323327256729824
Ni 4.97716190622126 2.5982775597542744 3.8420830776823887 0.6527352155270307 1.0990938938349135 -1.3289289191873177
Ni 5.970052370470949 4.0513754165171845 11.987190413589907 2.177230982912502 0.9066735616855418 0.5541197824449619
Ni 2.528012652158427 5.661645024679723 6.208306758378523 1.0054370903097007 1.7145681681279568 0.6811528474377753
Ni 8.58257294402896 2.2862953492038547 10.591713732221903 0.9128958884461699 -0.48113773366028095 0.9060066175255042
P 7.061571471919039 4.2808158812855766 5.105419586996194 0.1191660035399109 -0.12805096473436656 -0.8653561909939935
P 9.222144472065334 0.9877351329653765 3.5644063982658576 -0.10656502694644873 -0.0737772909924665 0.04133151175893527
P 9.052281950770567 5.311374131050564 7.807494285787559 0.07158208311336059 -1.1731712325663022 1.3391094592647454
P 5.248136654968187 1.677232469625551 1.8341116465672556 -2.926317518077773 1.218294864377818 -2.524916121206871
P 2.8098060705713355 8.52029503690826 1.3595408237531446 -0.6415666005047209 -3.173685667217934 -0.7027519137647897
P 7.79049580385759 2.871039740880797 12.471552602828675 -0.5312189665873883 -0.9425975292756605 1.6057979060000733
P 1.0207461867548835 7.211442973178839 4.861792553657105 -0.7664877613608541 0.40513361021982486 0.42700829880572916
P 3.8097615964898526 0.4369369044386355 12.121505608623906 0.417400600512636 -0.739396561571017 -0.0968683684839751
