# total energy = -340874.3426034788 ev
CRYSTAL
PRIMVEC
9.18143174760464 0.00000000000000 0.00000000000000
0.00000000000000 9.18143174760464 0.00000000000000
0.00000000000000 0.00000000000000 13.43795343596214
PRIMCOORD
 96 1
Ni 3.959501504258636 1.569712613250942 7.54735886163047 -1.4848347013504233 0.6041040847828886 -0.4282164601812174
Ni 8.22466204369232 8.04860809519328 3.082021080645003 -0.5124026052118337 0.5376400396223838 -0.07996773607389454
Ni 3.224683999162227 4.732017966984096 1.9341245465662869 -1.172635157557174 0.7194566281139803 2.3804900575485903
Ni 8.865507597660297 2.548021681017209 5.845886279736756 -0.012278303146720789 0.7661020958866613 -0.6341633660621143
Ni 1.22637298330979 2.5188889989526744 7.66539809907966 1.2910899939626734 -0.6171840578952984 0.200848408312067
Ni 2.154064819364182 7.192219255959934 9.121655763615992 -0.9354025541891181 -0.34449671326405834 0.8131815658729673
Ni 4.557579950424344 1.9904608919428322 5.09963605616989 -0.8659349463155991 -0.0005633287026377394 -1.0621520265032418
Ni 8.25663178808208 3.3953851731123788 8.140241535725481 -0.8551645951729725 -0.5553261440482371 -0.5092838570771938
Ni 1.9112618640548156 8.944853528451885 3.055213137029488 -0.6809384174341241 0.4750053955102981 0.38294293305539856
Ni 1.790204690080378 5.146596323725981 4.386000113482205 -1.2545505042757426 0.595357191828194 -0.48703353031942576
Ni 6.373768091573941 7.633175865324385 8.040518335922224 -0.03556632714038391 -1.017164406048958 0.4910598778699994
Ni 4.342091753747813 7.039027071829217 1.6413920487623892 -0.13151886867830898 0.40781578503767824 0.01943599723742459
Ni 0.4501527311280321 5.7120623252988025 12.70918626202738 0.42345092047177396 0.25501486705214144 -0.5299035902100744
Ni 8.34131213055961 0.3163948829966861 0.5844981908736644 -0.5527470704671513 1.0351086492322046 0.19583244315471435
Ni 2.69475931882225 6.913884160849196 11.695789435743047 -1.0109389939645363 1.4836278255265158 0.6818902398244321
Ni 6.981900205202828 6.169811772827779 10.123683223307035 -2.7849250990394943 3.384453391526242 0.7106236032033826
Ni 2.7685137578466454 6.268144903905991 6.6228144202851 -0.5761415381316917 -0.690077917841547 0.6520692998082577
Ni 6.445172084141192 3.3133674457620828 4.091923454110629 0.9555728584894059 -0.817787697186411 2.0558384040349176
Ni 5.626114945277967 4.653186196355009 2.583580446969852 0.22294961108648054 1.7068214343030024 -2.633575825898819
Ni 4.90580410190925 5.784393642444848 11.416494881043358 0.2706474313830758 -0.019904966454043136 0.25253169561897154
Ni 2.5635566630699014 4.90332511541148 10.694944544425754 0.025003464022873068 -0.2752216810173196 -0.38175071251951026
Ni 4.6972478859950035 1.162828296083618 13.367564677536624 1.0388004962614947 -0.44445837596137644 0.43666433383825437
Ni 8.74422088789903 8.249956887401048 9.202256796089971 -0.031826914702609704 -0.2371500709565787 -0.0160753082953078
Ni 8.211523415254138 4.049892697112511 0.6483311750480958 0.3808068605490022 0.8829258244466406 1.2858279742327854
P 4.0266361311908385 3.8493518708743872 11.698504385029677 1.06979025977479 -2.594360332041622 0.561467995279917
P 3.162736881012396 0.9627649042821016 1.703462198093962 -0.33046671753355344 0.17706056186384989 -0.6248261478215884
P 6.649780284521953 0.44726976164544024 12.43071160915825 -0.15676787305308484 1.3475388209790211 0.6521279209603349
P 8.521773166165797 3.831227725146246 11.847127888859317 0.8459132517780334 0.6312713892262999 -0.12811652786497935
P 0.6328007837111401 1.3345577903587698 12.470756422528709 -0.4189273215698076 -1.423014325609517 0.7432164495377395
P 4.079300822121242 4.041583501629245 3.931810306935397 -0.4648107143654834 -1.9148977278220765 1.1029749740568744
P 5.390409236497402 2.2662986376928527 8.908368356063594 -0.053387671592520954 1.7154071190894844 -0.46760087551611085
P 1.5988912024728428 4.914792723321535 8.859024588897055 0.627820454563222 1.1132940965946956 -3.4563026122580607
Ni 5.542967901856465 0.18914942420929676 6.625219955331084 1.7697011045463589 1.3688815483208554 -0.8082987838593693
Ni 1.1576866944586133 6.81699251451228 2.6404640056622015 -0.5661481743644056 -1.3315311326968553 0.6048491904790293
Ni 5.0952904846536144 4.462643948991224 0.1630355968131576 1.1866363569322727 -0.26636088819257997 -0.24522384910364867
Ni 3.289862981190633 3.044746305150015 0.39443245980333996 0.36019946871129577 -2.9228377870592888 1.3692921534957125
Ni 8.537152063883443 5.505709652938129 8.98794841335775 2.890791300146705 0.21331620176177457 -1.4432890166981531
Ni -0.24333823276425542 0.11700081754956777 4.940812900116647 0.33033019195568913 1.221983883193631 1.4636359557856211
Ni 6.747810428361548 4.028288788856019 10.787692610738805 -0.8730458463287675 -0.7820732745039369 -0.8287758207667985
Ni 7.886959812675726 8.062986216880345 11.564783262624225 -0.04309168898315159 0.0027590508023758935 -0.26029565583510655
Ni 5.201528828230271 1.9794615370379116 10.98302756533161 -0.43805375798661333 -0.04425382761205282 0.9693118053420532
Ni 2.2761227693692008 2.8047712307344006 3.4621543790719462 -0.14738977427229455 -0.597958634006783 0.14386864849291353
Ni 0.9619844826068776 1.922297944685629 1.326269712167892 0.7284269499333907 -0.21084408607219815 0.10492414890891608
Ni 6.573877390532823 0.5228797679705741 9.349805154294096 0.080600484561887 -0.5051271545963429 0.018077683437317252
Ni 2.7577255758656087 3.733922914393035 5.857589850435673 1.3578309469336485 -0.4777019685058547 0.429657306392802
Ni 7.937182242834252 0.33051500645935483 7.224068723597394 0.44321756157573994 0.3164326080379905 -0.36705762928370983
Ni 2.823336085173256 5.07578912420449 13.221225513857519 -0.6353435024131445 2.5175164863086903 -1.9889802087597872
Ni 6.824053035315188 2.8472445327295275 12.726198536404114 -1.3658833849244798 -2.5124724961268794 1.0317081081910875
Ni 0.7918810198456334 3.411838298312393 9.909455637171778 -1.9394561338877305 -2.0998688027822543 2.132480932390321
Ni 2.907658351823331 8.661872629015697 13.54075310127287 0.978572918929005 1.0649604424863142 0.2691433360337236
Ni 6.283477894466272 8.619472778472357 1.7093612678155075 -0.8730144788701998 -0.9864512932358173 -1.1891125863869068
Ni 6.777438907725638 1.2204050528521957 3.121179885878296 1.1500202483711357 -0.8845708162492313 0.696740160353071
Ni 7.13286130148555 7.617411347484863 5.5518233925123885 -0.29231925992955465 1.5271375758836927 0.8550321833601662
Ni 1.1964966052959243 9.188684804086254 10.762389503741753 0.7389345343329338 0.34004073437523374 -0.8750783033777638
Ni 3.274539172061825 -0.05730590454011765 5.975548291287897 -0.9311005843796545 2.245200666084256 -0.37705973480174415
Ni 6.397364370460123 5.6845731194679745 4.612375651599682 -1.2608180824520092 0.10507507266448354 0.03922706382142276
P 7.030157809026084 1.5060026602582517 5.477457470151877 -1.1104098330683652 -0.7058490646328747 -0.5028005633456953
P 8.372473908979728 7.141684657131317 7.3669951491979 1.391209008173462 -0.48790256318794034 -1.2085989772462926
P 9.202181508351888 0.7766021997310442 2.9794901990972336 -0.9045158919125906 1.3739147398693887 -1.7119800956858064
P 5.96421197784791 7.843247017431715 3.729704046631089 -0.13497417421676108 -0.5692257848484649 -0.2621321948232131
P 6.3915984314949394 2.74635896370176 1.5697144495372368 1.901038453341481 0.9336171801539211 -1.6167279226490157
P 0.9717259813999667 4.266969281433909 1.622660092270721 0.5547584444702253 -0.6076054130679277 0.45609184643524675
P 8.53628900932496 4.6965133714771445 4.536088973774972 0.3455855754528629 -0.3203648532128612 2.8918755343498197
P 2.6529287170302482 7.565949424077451 4.822545045023775 -2.2640391389469974 -0.8275987697395617 -1.111735236748008
Ni 1.2476830857591394 3.3858548472431735 12.787098971366 -1.1833350604731814 0.7781397437774856 -0.3466407561902546
Ni 4.632298439753428 2.2542434181685116 2.5112711652593416 -1.0216982893635695 0.08104271430562816 0.6406399749253934
Ni 4.1499243930132685 -0.0690443646786325 3.5617563839797577 1.5039500820236356 -0.30209587970034424 -0.05863580736533773
Ni 3.9283305444070464 6.111748400191121 3.92187967065396 0.979058600316172 1.3491066796867732 -0.2010265857611441
Ni 8.143690999529971 1.449913295388336 10.967344762232202 0.024722442447344523 0.3135817688527567 1.211186792578127
Ni 3.7201324043202546 -0.23393644693567567 11.369475852325838 0.8374409526409642 0.42400293632050207 -2.193292407250739
Ni 8.060617407560255 5.7921427706082484 2.8936346333911307 -0.11412124202715185 -0.8312826463490521 -2.1125019181652327
Ni 3.6717462604563726 4.185502439972006 8.023868728088681 -0.36782536068766974 -0.7850215584989835 -0.2295177512223015
Ni 8.80787575230288 3.0448289380332736 3.1544919555494424 0.14417692376195168 -0.2852250720869346 -0.3207286643101831
Ni 4.729300263268023 7.283014431798629 5.996739953271241 1.5099461517060706 0.7805660938307912 -2.3323453795225637
Ni 1.2589027950194172 8.298701107092386 7.044699360193374 -0.6440474579450456 0.22077985712867135 0.4063530844492227
Ni 7.383000220542022 5.007690446967599 6.683675375091648 0.6399596610289173 0.8171302661080702 -1.2160814016662669
Ni 4.034669883729908 8.150466895957209 7.99675137023252 -0.24162584733974518 0.18977003901071832 1.3731626921947127
Ni 0.7232645098736532 8.230850328505271 12.886512756928608 0.6684953065747647 -0.9291313764684257 0.03782555548820583
Ni 2.6732196805860697 1.7523129223903893 11.999568113752376 0.6471134984648791 -0.26771046024193895 -0.9780468712222059
Ni 5.884608966975071 2.965730905891463 6.7347929948188145 0.5104069149380435 0.5361148612271089 0.9887503736826392
Ni 0.7177336155541839 4.89144434308513 6.771761110502597 -0.1996682719610368 0.09027503153717356 -0.09211517006970588
Ni 5.375057883074175 7.9000708968194875 12.579509560185882 0.3361038612146728 -0.6338566334549729 0.7636168675709623
Ni 4.339667855838883 6.062793007575899 9.178430981416959 0.05836095643739627 0.8467167215159354 -0.32184272330996827
Ni 7.248400435144581 5.883332748000293 12.330853442312335 -0.6282976513099566 -0.6623033188314401 1.5217927666320115
Ni 8.318312644719189 7.095345972485963 0.7835874327958716 -1.0791009956527544 -0.6359950199542144 0.6149549114544635
Ni 0.0862797478401656 6.911405174351425 5.134091214059452 1.6356358152971122 -1.1117421787265434 0.13607949146579792
Ni 6.1859527293577035 4.600402146815453 8.604200385359798 -1.0565321092133029 -1.1076757219666535 -0.48608453614259517
Ni 3.004393913825202 2.343450206362341 9.587401319815 0.15966293521269276 -0.07555160928406988 0.9443834175314897
P 5.001649065058219 5.404300742316388 6.65706758668225 0.7227334990930392 -2.0260341761892913 1.4916152146073667
P 8.692033631405232 1.5197656260366121 8.917815130906392 0.8576385106347616 -1.229099925413122 -0.17655816830613463
P 0.6237552374237214 6.891701822409891 10.736682413759876 -0.3607049475928046 0.5249842985315861 0.7462634638941793
P 2.5504272160631936 0.23835638804688494 8.849711862953766 -0.6677345171493403 0.7403000472218928 0.11732586500737859
P 2.245465969680111 6.859456635075934 0.890193033631457 -0.3793721849850047 -0.3148588357929674 -1.2985029985972927
P 6.150163509475083 6.185300847723105 0.8403130708668817 1.7640025114996845 1.3243112179096483 0.1045449111926264
P 5.336027617881506 7.835277534912957 10.074137464648086 -0.26489638783191155 0.1376270384585759 0.4822317380554082
P 1.86813668042509 1.835652775872829 5.59456938302227 -0.04837787708275539 -0.9335004520703988 -0.07563105637175363
