# total energy = -381174.9617717149 ev
CRYSTAL
PRIMVEC
9.21638443478700 0.00000000000000 0.00000000000000
0.00000000000000 9.21638443478700 0.00000000000000
0.00000000000000 0.00000000000000 13.48911022672165
PRIMCOORD
 96 1
Ni 7.139988104741648 8.674184277054389 9.648409537478601 -1.855236821626334 0.1264969899836854 -0.2567027962775256
Ni 8.979790359316729 7.086597591320081 5.870582335813507 -0.6729870237975313 -0.15208692263764775 -0.47564585730777437
Ni 8.519607081972994 3.196380271413897 8.503845221787673 -0.6642576143443334 0.5755488988530152 1.3369867564947877
Ni 2.2902714630173246 1.1517254461809256 4.838017363675413 -0.9599054244264887 0.6834946081970744 -1.0652679464244041
Ni 7.428175220947237 8.189826424066812 4.125981643026692 -0.5041177394952221 -1.9547331146514593 -1.7353272550521792
Ni 5.328719775516675 7.568614482731776 13.041041649855066 -0.8266621168579054 -0.5997116121421477 2.129541647256339
Ni 4.097466150444899 8.1347308795762 1.9761946020762757 -2.919131284741979 0.9531999873818553 -1.156677348676337
Ni 7.049621458082152 3.8905859752724647 3.514614643248174 -0.12429304035383111 0.13155409279161862 0.553870128328001
Ni 4.411652686357416 3.7358244525079294 4.150207830421811 0.35048275564416415 0.6130214418771766 -0.7335089924419883
Ni 0.7587895158388244 3.7098711147217855 11.585957997507697 0.5902373541031254 -0.4046903520348192 -1.9938316233148181
Ni 8.9447220175993 4.730613309263266 4.9395773088936 0.9925121547179164 0.9477063112571357 -0.46759341931694304
Ni 3.4964473067978736 4.309046681537409 11.457541508855979 -0.5975976511229385 0.15924873049340962 -0.7997935746018354
Ni 1.7628546632481923 8.71510502271152 8.874525427667423 1.3542630270767322 -0.7286732616162418 1.1182768945212676
Ni 7.641884736780016 1.0834781214982563 7.794438935538946 -0.7487936865152007 -0.39174819005185435 -0.16204506229162413
Ni 4.3037103951105 0.7755670215582479 10.031338317903018 -0.025953743751284335 -0.27580557854524757 -0.13051356734224617
Ni 7.372969079846738 6.7916364327590895 0.26860875134084916 1.1252720948921782 -0.8632571423731197 0.2515315364892313
Ni 8.818577367642286 8.216268230213279 1.8347074374130843 -0.7554970666773053 2.3386834059254498 -1.0807002218190742
Ni 4.670817408852575 8.032511962890785 8.597244058834827 -0.16371525090519548 0.030128443954264235 0.6423944957226551
Ni 2.4660832071964736 2.055474860233303 10.591864977756215 -0.4764601256789535 -0.49268404373698377 0.9541219849754923
Ni 6.836796715128446 7.915768024773922 6.920345080788585 -1.311028384757813 0.4240643856860568 -0.3857132967116841
Ni 6.713177354430452 1.7536474954753378 10.050439274068426 -1.2455490721080806 -0.3964507377338462 -0.9410996045738954
Ni 1.7657209587210227 2.576615302391511 6.9304213535874455 0.0072780217186519825 -0.933146925385722 0.02778694030528118
Ni 0.221331465530628 3.0886130914659633 0.18378944630545788 -0.7452537916827423 -0.4424297755671219 1.2339816789854556
Ni 8.845231150624363 8.131744771109327 8.063749053714144 0.14711363779277245 -0.27042297407709553 -0.2812218644648124
P 8.09152447064813 3.7187280598966734 6.597469337892837 -1.22631670624103 -0.71304583949163 -1.6653904208517256
Ni 7.029133436101115 2.459170919078715 12.446212529807891 0.3460285765275525 0.2064135611046703 0.2866702891738934
P 5.486421324827297 2.882313548495421 2.4820367681722604 -0.4851422268339838 0.0644434151860503 -0.0932153451124201
Ni 7.216410362171586 5.547737928623893 7.501118293357903 0.21359388090319345 -0.21990105406814384 -0.7142686561551377
P 7.568660564652561 6.531798914220468 9.322876711030387 0.3026214131865111 0.24805051991916638 1.1699745800058754
P 3.076982014659815 0.7822147994507002 7.8370518093273045 -0.41595306943283206 1.1926241990845912 0.06789666384197338
P 1.7126253695924802 3.09537791743721 1.9283763145160377 0.12517107208341025 0.05757625575257182 0.15765284676119948
Ni 0.19534126220785591 6.852307889664695 3.4298487932408936 0.10556152538259886 -1.360021012606432 1.6225267887189798
Ni 6.15831416264174 3.0082093560801964 8.120296178709488 -0.08650605141304457 2.0061400083685252 -0.29269566943236686
Ni 5.383741588934034 5.372092079359571 9.13452884112087 0.5528013207438545 -0.28929152884682435 0.6078141866446242
Ni 5.223127662229795 0.9776648149916088 7.6937831176065625 0.2553815063629408 -0.9034339717023215 -0.5959102361181866
Ni 3.762201743965296 3.0587151412606186 8.709082115664911 0.32858518424012445 -0.4089930931752311 0.2630935302952179
Ni 8.070686226069128 9.054424638220206 12.382787217316169 1.3876086924167135 0.19139934708402523 -0.7744311845776469
Ni 0.7104108721218404 4.702162331370571 7.3970505700105935 -0.6029635434205423 1.4811680511321137 -1.9753268796424108
Ni 1.078390677443586 0.12409216120524816 6.531238558063722 -0.14203468060796828 0.5579604963472907 0.4727999032185471
Ni 4.828528174547355 6.125365589280424 2.757660109495011 1.2463165464017245 -1.5742846658831404 -1.6907178438729205
Ni 5.42020160465917 1.1732917851083322 1.187237095976306 -1.2278971633542721 -0.12750151998879974 -0.31805677390497483
Ni 4.625758506708947 2.1717026808373734 12.332270372474758 0.3284466017797311 0.42652570274235574 -0.6061689377317173
Ni 3.0886776061550627 6.029699521730645 8.85659863884362 -0.022443930825812957 0.262841819295728 1.0524337707742133
Ni 1.3551586936786375 9.631305771760019 0.5786230301454877 -0.7025433972984094 -1.1614225766708062 -1.208579436862267
Ni 7.096164198075059 1.345997607826568 3.2671298443951953 -0.6284796854137756 -1.1800065103205806 1.6993261543672218
Ni 8.726100169010833 1.7573340491381426 10.796899111181999 1.3738612609236338 -0.07417838308562709 0.05290404708788308
Ni 3.7266910158083317 0.016701931369336 13.044819445721027 0.9355869022857821 2.079028983218768 1.5798637026328146
Ni 0.5188464841415277 1.3941163495103246 2.5592755972385097 -1.0195233931994376 -0.11878110939666642 0.8951658181562583
Ni 6.360097677375346 2.6887233992773973 5.535310556226579 1.7917436861686948 -2.684209331784971 -0.37140510761912815
Ni 4.689333124624012 6.604912489738039 6.8623684946104895 0.03606409271240885 -0.0059932414689574205 0.40758695685632385
Ni 3.0133889639764364 4.62831144512044 6.974692254885649 1.1454624537971239 0.15502852176447493 -0.8416066539828796
Ni 2.396932676866417 8.646737885034808 11.47702033677182 -1.782400297280582 -0.25731009084422135 -1.9923010456029042
Ni 7.606309493933953 2.5497403261896654 1.5150159552435838 0.008248613162037406 -0.1631622066152029 -1.3987665088057457
Ni 9.024526688014861 2.3516064995822354 4.673450529806234 -0.02907866253351121 0.3936919440417865 0.4326379862876807
Ni 6.759452819282806 5.995350057977465 4.992791789377768 0.48822652218626245 1.1573628047791358 -1.0355683624774423
Ni 6.11831505540031 4.3641975243329645 0.7984218109908047 0.2204417570629623 -0.09821845475396633 0.366052327947647
P 8.421240613865212 4.882278126951045 12.740207811309228 -0.947507307872452 -0.04238540694474636 0.3148824899420512
Ni 1.4756905656840322 3.7107466712167017 9.280439870179427 0.6231826986808946 0.23634197323298653 0.2713861093213133
P 1.0830541678270338 1.3024225435322183 12.096588996811665 0.41443457590577654 -0.28834664843505176 0.3811557592479887
Ni 7.270575051862342 5.984751216196901 2.4263670429486646 0.587465190674627 0.37014758106294315 0.9047496051899514
P 1.929652783721784 6.3400428254496894 11.102549432088294 2.3969569448553623 -0.3504411037729513 -1.1294789338846742
P 5.447270124928312 3.3125620100971824 10.512495320672866 -1.2197061429030478 1.4243932082349147 -0.22360807060608587
P 7.283957241658323 0.2707100869286478 0.704484737108882 0.46822231115019364 0.9044277030741585 0.8404604561935785
Ni 7.9599329376543215 4.2857107968518555 10.501757311491529 -1.2124669448421312 0.9455607256690424 0.32824374174030563
Ni 4.083604708672754 2.4813731885129555 6.127509320235345 -0.7946002033263541 -0.152561291170905 0.36716767249901283
Ni 2.56465243575571 2.527086453931732 13.382829413041001 0.044918457779245226 -0.8741827881466879 -0.4317465848216629
Ni 4.424325214573306 1.2394101250507314 3.8851068348911215 1.1619018303000699 0.5451926551586611 -0.15391137744089622
Ni 9.151510028930163 8.13482304341777 10.42113330452441 1.1838035154691677 0.6332231136360321 -0.34834848290998066
Ni 5.860542006912859 0.18165493173469402 11.714266654464776 -0.1097143712087078 -0.24761394660237998 0.05923436018128509
Ni 2.3491918069330984 8.01177509853751 4.1858190171660885 0.4093720737812046 -0.6995076957958792 -0.7471407242928101
Ni 2.8496598994271296 7.062091225846588 13.222025628823129 -0.2532487762906542 -0.39489676298316506 0.23854000932556982
Ni 2.89227645976915 1.0671190396195611 2.0691759369211162 0.8487841455679253 0.5802607025063877 0.40486595838073497
Ni 0.436291644693514 1.391277703189965 8.65006684299232 2.1803039654108707 -1.417409320717914 0.4948915929112638
Ni 4.990542991643458 8.139735376173457 4.1281797506481395 0.14165004357503994 -0.8156451969221115 0.07021219934902746
Ni 0.3677411009720792 6.092684291059661 1.1132617885400542 -0.19110495577205797 -0.6222553017706186 -0.7244283702969588
Ni 4.527659313741718 7.156402484925286 10.917357252114138 -1.0064061390911894 0.1441751239897388 -0.6969543332464061
Ni 1.8565207754358988 4.827283962686158 -0.30731203496980275 1.2011157814953701 1.1681614380565366 0.8055101653706385
Ni 6.292882587718262 8.127643480159458 1.9980070184606744 0.6155866315011914 -0.27648049312508516 0.14597052532726476
Ni 2.0921837183306793 3.4338219764509814 4.168215723426196 -0.6422631123511132 0.2718651058402608 0.14046913589306131
Ni 5.528300574436757 4.603076985298542 6.08039147787104 -1.7916333858430755 -0.18915683090675162 1.5192208921397772
Ni 0.24788478992539342 6.774429443537949 12.164573654545858 -0.6620516078319502 -0.32483034518338255 1.910290825177684
Ni 0.7084173682286787 6.067717106378318 9.233524788266578 -0.9114123619221077 0.6235246554013455 0.9538569042395637
Ni 8.014079194576762 0.43576907571181145 5.5861637990897215 0.08662535059972823 1.7190843108307556 2.0367052827498924
Ni 1.8001625863157742 7.18405163739632 6.9404441713581955 1.493997598796614 0.45800114764281763 2.3864922978786125
Ni 5.723291614046645 5.07752722531733 11.865264205939589 0.050861562736557564 -0.8278399392160903 0.4281552679259787
Ni 3.927396213595568 6.107725430003905 4.721754520811547 -1.2556797327841793 -0.6625917966061363 1.8787639582139966
Ni 6.964213226099128 6.956757171316105 11.569380487324478 1.227418423945641 0.5648783065130465 -3.161568829349742
Ni 3.607126864139423 8.802605373898185 6.095998502802523 1.0078896656152514 -0.07998290558254612 0.47298425131521127
P 5.841279764024706 0.35134791847200303 5.40787837740283 -0.07453679486631035 0.5797426252193886 1.1784365947302995
Ni 3.6058365703574413 4.090037744814348 1.6799606608632005 0.9091521051330212 -0.0201852166986233 0.13361945996107957
P 4.4188046004632575 5.57065907602238 0.2455770073324778 -0.47154546198615566 0.3204358156601127 -0.5146353511970944
Ni 2.164689012493888 5.633367353826687 2.9578114025944107 0.3366437928785428 0.17388833478345536 -0.05974935214449065
P 1.7873886778741566 7.619894444181387 1.6792860215429073 0.7758033823348253 0.2888945505187218 0.26039901418219025
P 1.7704766129460405 5.770746776071098 5.574105082058686 -0.41460426871442146 -2.089301825899686 -3.011310989501033
P 0.3755409268841579 -0.3739317462103437 4.440318406000969 0.4776168649912161 0.9573073246820094 -0.5071141031193848
Ni -0.06824455976742207 4.2848168075886255 2.4550318409538017 0.523588189515008 -0.7516987759771376 0.6404931649348841
