# total energy = -340873.17774617753 ev
CRYSTAL
PRIMVEC
9.21291730395679 0.00000000000000 0.00000000000000
0.00000000000000 9.21291730395679 0.00000000000000
0.00000000000000 0.00000000000000 13.48403573029271
PRIMCOORD
 96 1
Ni 7.68624495535758 6.602833494096886 3.813972806654624 0.7685258748368055 -0.4654316357789339 0.23515412357247242
Ni 5.7676733082524905 4.937985595413266 8.995375659662956 -0.7329052974197184 0.10600941155329485 -0.07248094077854614
Ni 8.458195314117019 8.336280776612977 11.229666619745718 -0.39483351384539744 -0.15136649953185546 0.8693354873567157
Ni 7.508297453514419 0.34248375965665334 5.878014578771527 1.1380175674833046 -0.8798286735785558 -0.44373795285558415
Ni 7.005189240822043 2.9127191505424146 8.176975613365707 0.274016862075941 -0.5953111690816071 -3.076385096292547
Ni 1.0590893590155 1.3060968905669892 5.509887584497723 0.27243049142542763 -0.35451990182801524 -1.775208407517833
Ni 2.3601283578655905 1.6017025620212837 1.0397348618955353 -0.11609739191691618 0.7414981812950521 -0.6965288156732133
Ni 5.476535901793999 5.62637479229243 12.143898512764292 -0.7124881672159472 1.7377525766642201 0.27717854763337424
Ni 7.9896539679488745 2.855755681534065 0.8161714415498598 -0.011599017691509056 -0.20586951567574224 -1.2202530165454533
Ni 4.25576905327057 8.38581863410253 1.5708365244636786 -0.6617659582707313 -0.7018245168545139 0.24051024567806323
Ni 1.4458199976316226 3.8523261822783925 6.6208908124304395 1.6075714529607281 -0.5308908938240082 -0.557743238130162
Ni 6.00700647951222 8.276488941926871 12.973301546452237 0.1292375288433 0.24129031837719733 -0.47514012131594946
Ni 3.7717776444262174 2.6781398447215197 7.528541918466536 -1.4054755453948051 -0.3008987740684495 -1.759264225483751
Ni 8.467822812922408 3.5558268578249375 9.774766370609221 -0.6773285885956786 0.7987245099073728 0.38597529212381915
Ni 6.702176383683984 7.4509194032177986 1.7548663944516427 -0.5770563366364772 -0.8004440637016409 -0.6670117800507029
Ni 5.465719936628901 5.011237502591881 4.28309640920985 0.990673558847281 -0.05395717094274578 -1.8989936549973099
Ni 9.266076051193222 5.332989433959761 0.5153355968210966 -0.6006282104191463 -0.5092532609495745 0.1439861479073843
Ni 7.0443072885997315 3.7630345857024707 12.183056176087305 0.8515380541639787 -1.1196362367626396 -1.5669120275681532
Ni 9.264601984390483 7.779995604011789 1.7144410336782743 0.7121536666946638 -1.5859793286122492 0.15134413093435226
Ni 8.596969490677388 2.6416198396836577 6.177482305248998 -1.6770251768771764 0.7509690968999647 0.21116007465072018
Ni 0.8334917264820444 6.70142092444758 5.1375659488783745 1.142061655645691 -0.44175280410475537 -0.791722624668243
Ni 5.962600217079704 2.9786652141299554 2.3316457020696637 0.3522678725690449 0.011096367023477664 0.05539878848527879
Ni 7.289472236647797 1.1190009616293275 9.766932626844415 -0.31626548633250695 -0.5984754257422016 -0.18482040831492688
Ni 3.7815341240768467 3.5783616540718115 5.235123375050656 0.2900993694601004 0.556519650135706 -0.020447469221074464
P 6.814472635300153 3.488931863733133 4.572531268511177 0.8179252512055397 0.3117154050679793 1.2023751078237679
P 6.437470837582109 3.2759292107373317 10.14890847872995 -1.3482476741205875 -0.25946493240369506 2.016090177602702
P 6.805665086153787 6.511229455224166 6.555884466429645 0.062142277856699436 -0.5737951493867022 0.3106892777963101
P 6.4505255417038665 7.574123749174237 10.803665920212872 -1.6448226240027028 -0.44872100789247243 0.37986249435786196
P 3.3533085049636178 1.5382716249159163 5.607902892670605 -0.6031908289399999 -1.403763962020337 0.1614223411059607
P 0.8776649021013769 2.990642006902211 13.296365397274556 -0.3265218739531925 -0.7438098601473642 -1.0062842688013445
P 3.62627803807835 4.710850326946202 12.927428587550997 -0.3214143775232981 -0.5606526984674731 0.8165329988437035
P 2.9587929510455293 7.8405981754394 8.931865491466942 0.09861183353764308 1.0652687177553524 -0.975623606492694
Ni 2.641407942580764 2.8606569536531725 11.753980204687247 -0.658044543555086 -0.7447899646724464 0.7262268569582783
Ni 2.6605523851813384 1.075000067567565 9.74356406156224 0.08030789302213266 -0.22339312638180234 0.3970055817960517
Ni 7.78126698662915 4.335276531443311 2.593276897596077 0.8169109510084125 1.7078205649914782 0.7315081599618757
Ni 5.590822143593866 1.7595843295121596 5.957611422244184 -0.5513656167385923 1.5366290603138955 -1.4544964553781985
Ni 7.570668905105316 6.299055964804905 12.71048372714962 0.8306247010500791 0.8564604311662605 0.23386008735139724
Ni 4.216733921750535 6.549555192095384 10.039175260767045 0.5753912902292283 -0.501742040174194 1.1535496016806326
Ni 4.329186792964495 4.153100300459791 10.899820219047296 0.4574133934601477 -0.53983190506738 -1.5008192497041377
Ni 5.753559118616264 1.4472479998467762 11.63219280544494 -0.7677573721018972 0.11563665023041377 0.40217529892244935
Ni 2.876447894277516 8.579317540714587 5.248499609993762 -1.1992820707207412 0.701039044838741 0.49470801614554805
Ni 1.4010267926633881 0.699739511260256 12.257527873545188 0.18248944618890509 0.0112028106943549 0.7694460726582296
Ni 4.397472937601385 0.22812934226715995 3.756112920771859 0.8891679487016105 0.528748650670025 0.46124999359741853
Ni 3.6788285195959993 5.005470216226164 7.567389106469223 -0.39015899118786357 -0.8305236566958407 0.642420463864584
Ni 2.2826661473816503 5.833951036870648 11.52391522844974 0.8030223659517783 -1.7222359690858597 0.7176458001574866
Ni 8.50040890218046 5.0396225014621265 5.468289419324425 -3.033422476688092 0.11432538761815793 1.9893627889101868
Ni 2.5710673173375573 6.976408086498561 6.997864050104181 -0.7564553168255166 1.5806730859079874 0.5438693083615471
Ni 0.4604533258798644 4.049491830062266 11.433316318878138 1.289438317291863 0.03854366460115297 2.055423942205318
Ni 5.095185607007874 9.014839790501375 9.736606466253312 -0.3257734258229422 -1.7052057530764504 0.3672358067327869
Ni 4.996671879997316 6.956535823414135 7.8743128470932975 0.7137809178854417 0.6157211001965267 -0.9401974044746001
Ni 7.635159327725153 5.895732861740451 10.010022825867624 0.46620990870585516 0.2783005770529594 0.08829451077203504
Ni 5.934261282797045 4.470254985986627 6.691210247963357 0.04272119301761029 0.20102067222387315 -1.3095628559558803
Ni 2.3586635039803685 2.42278540989952 3.525563345072952 2.28239141620194 -0.5666451686054822 -0.02250743707389672
Ni 0.988675030432156 3.5445410338664662 1.8317122607536878 -0.2931294145356758 -0.30821587655515303 0.6114952350406372
Ni 1.4446683829419829 5.327314276769215 9.26090299800736 -0.053109221120153705 -0.5824492255172743 -0.5272281002604403
Ni 8.759752530287372 0.578833788224339 7.962161700786039 -0.9124253765676543 -0.38739839772359086 -1.2009532877755766
P 0.14428810769436615 6.12409344823729 11.285571524531349 0.31872037563090266 0.9842527429226016 0.07310186219199669
P 6.631550157997746 8.434766864870983 3.7354557171149736 -0.16933002598881158 1.227882508066253 0.3729863360633189
P 2.9343234421200597 3.328774505615529 9.399303130116536 -0.8452828172828861 0.20041646298097096 0.33656665978370426
P 9.066468980267313 4.29462913935778 7.832121370031898 -1.7189048478300977 0.4644237633397098 -0.0232132048916697
P 4.238937052966793 1.6484396925856306 2.115456300904691 -0.2095107119727553 0.4308184165804387 0.07197211946292766
P 3.4888857991455478 0.4066111933263149 11.909558742798842 2.3108812961115173 0.825597680149133 -0.008685443589139882
P 0.6393856886056065 5.8184272708543014 2.7552740753418505 -1.906753244338071 0.19093372030151634 -0.3782923216572647
P 2.6403023924787097 5.381541509274981 5.6125277772642 -0.19216579293640454 -0.3633634682615742 -0.6806059737953698
Ni 7.248769567057163 1.5812867368033472 3.950216194773042 1.0846851746087514 -0.8367002178201979 -0.8068070298051911
Ni 3.5537815901361367 7.524493762509515 12.948733459309336 -0.06144576601030709 -0.071628877190896 0.013083315546519403
Ni 1.8721846074063935 0.562413605333577 7.452855958479898 1.0218677250618982 -1.295254152642692 0.48477584463350065
Ni 2.3493584572880777 8.039237890026012 10.988154593493189 -0.697795855311095 0.6383527215531135 -1.645902744440759
Ni 1.991786702613638 0.09276947293863423 2.9701690615956684 0.34346724355827946 0.16349490736427327 -0.32197359246087776
Ni 8.606799673668155 1.6759771030443007 11.63437718818825 -0.41781454812160307 1.4272957265936903 0.8697964861535342
Ni 4.9889883067880385 1.997950144432591 9.151534611578132 0.4188357902972658 0.26915002090194295 1.5221666050316625
Ni 9.216694813301462 8.617044437947191 4.04406450035293 -1.3415350379871025 0.9273372606824802 0.25080674250806484
Ni 2.4715862339877015 4.838264976207964 3.219353605556453 0.7241782019593658 -0.6335681556802766 2.640040864797873
Ni 0.46864545213608694 7.763264945800699 9.061960178434434 2.232142290238401 0.5034551662105587 1.7062100259712485
Ni 4.5812614291504 2.5796629693810296 13.611999951411068 0.5981164997408861 -0.06426318085444416 -1.2429170338018722
Ni 2.5035182061020373 7.051474938428051 3.1919009539389407 -1.4945424155564906 1.9759475439455454 -1.49252152847172
Ni 4.272039065605803 0.08147812122965264 7.362539885476072 -1.119589185574788 0.049981731234765535 0.41540645290074263
Ni 0.920375066418991 7.4036387105199415 12.898585706680151 -0.040759698415865284 0.22546260731632137 0.6609573463265069
Ni -0.23564892554463282 6.539725009104617 7.429852224731402 -0.995700579748227 -1.5646751678178343 -1.4014376278800058
Ni 7.386944903978922 7.980975399647748 8.752312178100546 -1.958867705645123 -0.0978916675421669 -0.39358292926774796
Ni 0.7187300981382942 2.35245399757383 8.646300978814557 2.478194548780616 0.4513741292446033 -0.2862619979918812
Ni 3.9604581951768236 3.981233324177928 1.8850817706386087 -0.13966026683852076 0.7407386774212081 -0.9265782710292687
Ni 0.6034424122043167 3.899560810388664 4.215729713741169 0.045273012905186545 -1.4067276726343514 -0.3925537166722853
Ni 5.544131077617105 8.14635648199756 5.693297425136786 0.24994413739745344 -0.529608941787791 -0.5745556817018105
Ni 8.50280426073491 0.7571673113114683 1.7525742205733836 0.37668872461557057 -0.17576318320866505 -0.006421587255627651
Ni 4.070018210290408 6.627072680084426 4.569146442615388 0.7414786409110261 0.7161419619184506 1.3381722921624566
Ni 2.305007472360665 5.753070833987857 0.9968920315656747 1.317658488479821 0.3909961423771782 -0.7491564691712582
Ni 6.18892474880526 0.5702086548448116 2.0142183141843204 -0.111938118332904 0.20039075194935813 -1.1077973351461825
P 7.308238949630169 0.8765040744942199 13.182397922420781 -0.3890968684719363 -0.06062764098438591 0.7884102724655583
P 6.305302322881512 0.693195575947846 7.584568433763395 1.074013296717202 -0.3552346685068527 2.7759663471843097
P 6.446729819686813 4.626948287117795 0.46997948259256583 0.4252910590043063 0.2277287776426788 1.9286999238124913
P 4.625962504943463 6.1553344515378425 2.235869132853442 -0.7368187735415117 0.5584014405394512 0.8304215839003377
P 2.0107837385339384 8.724982979577764 0.8893791267243942 -0.19198710126669516 -1.467428075838202 -0.787200054207541
P 0.38142215554275866 0.5114569585463893 10.022913540057578 0.824082014835555 1.0841781530653458 0.057745948561216676
P 0.19446718424310894 8.446798935148342 6.328422139390724 1.1356552378987153 0.5297675788528424 0.04138884735943195
P 0.39258544769825227 1.6794227341957033 3.355987621377596 -0.8502275628826713 0.30932736445177694 0.34961706520975916
