# total energy = -340883.3239827693 ev
CRYSTAL
PRIMVEC
9.13464494313170 0.00000000000000 0.00000000000000

0.00000000000000 9.13464494313170 0.00000000000000

0.00000000000000 0.00000000000000 13.36947621833729

PRIMCOORD
 96 1
Ni 6.664837807917599 2.0795292925458186 11.236309163347062 -0.10674474705742262 0.6431195468141375 1.209667270609807
Ni 5.021040206953829 0.6658041632186754 5.848223399452238 0.2660857801543224 -0.129407478762261 -1.0279311576471588
Ni 2.5962304756308394 1.553172789907702 4.729398402439457 0.6318588862986538 0.05498869753105369 0.6503127221284671
Ni 3.7586779688837426 4.544367037380319 4.948337568994425 1.2554958989081475 -0.5859376982865071 -0.4668891941610669
Ni 3.491544416366491 2.704558228308383 2.7785251011080407 1.1246426888382952 0.3435909136203373 -0.35142043696708514
Ni 4.937640899934184 4.743959026249898 2.287905155854618 2.0940002598166196 -1.2721332503545124 2.1051750454865163
Ni 5.1298612304505475 5.406421736400907 11.540184084176955 1.085718500969272 -1.755218337549151 -1.5310554228808597
Ni 5.872580929810166 8.346571588733788 12.155928566965287 0.12527751575428747 -0.6383923165417973 0.4212423428562294
Ni 1.9523659022916584 6.6126424475331245 0.7535771381683324 -0.18029192431695404 -0.1144058631471062 -1.6496964071552362
Ni 3.022781849189367 1.950493300107756 0.06374703219795148 -0.10720831695740246 -0.7941510316040775 1.3963525000476145
Ni 8.001263746022218 -0.12300712687037725 6.6648843946060765 0.4908680735741675 0.4626067647356291 2.0096683332367578
Ni 8.775744605349779 2.2401894252798296 1.04108916976884 1.0016814799220104 0.3768067382506737 1.4280107503828439
Ni 7.21314486200897 0.9937488730953119 4.808466060895168 -0.39558350463754455 -0.3963347809812723 -2.2384672040151643
Ni 0.9552189413309238 7.909579316169405 2.7082815095286685 1.3391104877060098 -1.4521161280714798 -0.503803550688913
Ni 7.766539913253674 3.9687930685623716 3.9262804316653916 0.1973645635285246 -0.5274875245694142 -0.6164880602695383
Ni 7.918348575176947 3.819094509587788 12.766178560906702 0.793296396913266 0.32085979057140873 -1.2158960251283382
Ni 8.405225142991526 6.935314640431477 9.007564534536556 0.6736691374662205 0.16049134465125908 0.9518933527552897
Ni 7.220333827466194 0.746822068339085 0.2579221767014127 -2.144248100228578 -0.8530208093570922 -0.8388897692723488
Ni 1.6951708433162875 6.903288575764349 9.255594804384563 0.992227276487646 -0.6863963552249017 -0.4529324748706587
Ni 0.16390749896024168 4.608346089556178 1.311303837976971 0.6667089040983034 1.410761733494409 0.7068757061251761
Ni 6.58764092471683 2.156936272576977 7.02754440857882 1.0098473035622544 -0.2632485678158434 0.23529656268760765
Ni 3.7178826452090727 4.815912623335739 0.41158973884138905 -0.939747461421375 -1.486311800116582 -1.2437215319810386
Ni 6.228667653385173 5.807852836760746 4.598123508561032 -0.8900966311634669 0.27487278231833306 0.5923847394634314
Ni 5.416077055954003 3.101759988126043 9.202357181028463 0.5917532765270196 -0.22776708707978194 0.35474024536893745
P 0.6060882497707535 5.580126141908636 12.56873778088741 -0.9001185341758433 0.3653493883433514 -0.6071778386122059
P 3.788813162077369 6.5247945684961115 12.525500766657828 -1.2163865916115115 1.5635379688895974 1.423042350633975
P 2.914116114654241 8.427486272367963 1.2587266494398763 -1.8508929428353416 2.236157324935065 1.4852136819563968
P 6.684879218607753 7.953480419075913 5.39888839483474 -1.7726028515741856 -0.751415440408764 0.7123441854389151
P 5.0447537448533915 1.344089905091419 12.71736667295597 0.1423612107094516 -0.12610541097222155 -1.6435093045079179
P 4.091151635651983 6.55814515665917 8.142626028152756 -0.9533840783682033 -0.9436550240058974 -0.2510075456649612
P 4.867103172792267 0.8802646134284375 3.639933067276823 -0.32320823619892725 0.6642316462024044 -0.7436954460566869
P 0.2867702984427864 5.607329114121616 3.4795268776682384 0.7303313660449551 0.3279359806918997 -0.05872425331408596
Ni 0.5445664170459658 0.1464612408576326 4.718983993903521 0.059932671799890334 -0.26687305194230815 -0.510845545137359
Ni 2.167769961309211 6.393456645568569 4.9629502602802225 -1.4873016748336771 0.3488354498487283 -1.1735332438914112
Ni 5.796973474804514 5.720744863952494 9.24378918944566 1.0709390286672524 1.4140889980954292 0.5078373544386544
Ni 8.851726580792212 2.1218318326124095 10.146670269933237 0.017511012300569843 1.1091970437071865 -0.32018436177093884
Ni 2.376003324159138 5.18495227323647 7.02238424773157 0.8157079318392468 0.3898861971424511 0.6760283817270163
Ni 0.4903596078766361 9.103166813543883 9.111150493098666 0.8991206890389483 -0.24779109561019258 0.06300822540142052
Ni 1.6523658977857225 1.5314232006400375 11.382143767571447 0.401150971422993 -0.6637014847305474 -0.1136054787329979
Ni 4.3353846336568305 6.833627774523186 1.6205809877413022 -0.3342434109671663 0.6219642528927611 -1.3681462128167277
Ni 5.3783235689975735 8.107490530395872 7.411796895928677 2.266811816596128 0.23291932070468274 2.00914022864743
Ni 5.51514227880483 2.778941640910899 4.2816546529460355 -0.6527971791132177 1.4748035423666666 2.121189675747218
Ni 0.22264783234357458 7.177556285870027 6.164999179132498 0.8487046984802417 0.8026169029832435 1.6794774950724105
Ni 5.225144710354372 4.740670554122069 7.133203931510424 -0.6523557207004248 0.15498455590041693 -0.4955433675626498
Ni 0.8218933196950052 7.373795860098181 11.38093982138687 0.027080658266875942 0.343308349382912 0.6496347222248361
Ni 4.789358210903526 0.7566719558264108 10.554599756603457 -0.7781420577703309 -0.2692124987087621 -0.22652575847351308
Ni 8.278098291316564 7.323893295558387 4.155527131412141 0.35467236824547954 0.9557168402664379 0.9586198728458459
Ni 7.274922464788143 6.185707418893017 7.098563531501672 -0.49453446668216117 0.41729415684175875 -1.441869510642807
Ni 2.5047470079636156 5.297271865691406 2.6103234056275433 -0.6223203506805992 0.08047964271330656 -0.052885020924489566
Ni 2.5239114927530157 5.441745407840662 11.043240224328825 -0.6132307296745052 0.299909927792619 1.0313826065308689
Ni 1.3746361573010242 3.647089148012769 3.8161294038858626 -0.9795180564510938 -1.015501159413922 0.29439234040849943
Ni 1.613963851048528 1.203918780642738 2.512645735321764 -0.2812861420438446 -0.3012944668449714 -1.0515086878567825
Ni 1.070507293345704 3.256455197805966 8.26209530709228 0.07932290340104403 1.1645076433540333 -0.14372363827461698
Ni 4.1152945018571225 2.5396687550321926 6.751973184660249 -0.8637677634609511 0.9364153117243487 0.7455970339547741
Ni 4.172386031854141 7.565029648976196 5.579349697100678 0.17421897864999672 -0.7628799894049377 0.8077179716552347
Ni 0.7395116121060268 9.267279842012115 -0.03371140663263978 0.5012087933785433 -0.45614481116036926 0.45459932105012035
P 0.5048645103537988 5.643758077582114 7.91561183559501 -0.850609114591806 -1.2254217052305865 -0.40950525692495926
P 8.734318991183942 1.5926344554416416 7.990106690864081 -0.6791157624030885 0.6684590540201907 -0.43108015488225754
P 2.2004993936259023 3.408921554154805 10.17040116365792 -0.7998830489918483 -0.9538185948024605 0.8082800148062919
P 3.9972018138888883 6.380458046018848 3.8224935109176905 1.4233328852912004 -0.39338212611085155 -1.1083958879621296
P 6.952798350577764 4.252597347838753 10.801948581949421 -0.12189728642814492 -0.06130692643959764 -1.3588701868314403
P 6.777303554689326 7.877845560135863 9.813610158968869 -2.4773504556127657 -0.932460955062291 1.2472907373895359
P 2.0692984903703526 8.452688757369849 6.038537329598941 0.5319769277993355 0.023879377720758876 -0.4758772565922901
P 7.166055768067428 4.172504782236535 1.5320754142787234 -0.5559408948141006 -0.11833219478470587 1.1568480699262464
Ni 5.7184246641734156 3.152356785670601 13.693017074309985 -1.1396396764677597 -0.1642289573168204 -0.5032903584979203
Ni 1.577032482124056 1.3082272896084917 7.0304190812972305 0.7925654322845125 -1.1050866210832389 -0.42091889807853955
Ni 6.941781968949538 0.745252736362527 9.217812086564777 -0.0473887736966087 0.3942724991356048 -1.5433108432094453
Ni 2.952399411009042 1.4395743471808335 9.074384461245065 -0.21764516815443163 1.5671603961335332 0.49334044637406005
Ni 6.503492576823624 2.065443670264954 2.3609960162180017 1.2080582742514743 -0.1437138680826041 -0.005667225588106369
Ni 4.12280317988233 7.402643068375075 10.563075793512935 0.31317270633979616 -0.14691771973188247 -1.3552112499226145
Ni 8.633344627570015 7.138405198259272 0.37389380014719736 0.5206527610357679 -0.1289945595945585 -0.6727060022220027
Ni 7.721496979747227 4.2366847965979835 8.502785889843873 -0.3480888014906908 -0.7175049037042482 -0.637789907071108
Ni 3.2173680527088067 8.843130880035861 12.4655391312648 0.6170560169578664 -0.5414702120017513 0.7359584824237454
Ni 0.046731929329879913 4.687726152864033 10.217207997075155 1.0160837713902695 0.4382303927737936 1.3899784782004707
Ni 9.033341588696329 2.2663601826304633 5.669446525687333 -0.2880849101332329 1.58786009057473 0.21529466564438404
Ni 4.036773095160422 3.1675751039066067 11.691406301904099 0.20683779312628248 0.02330087950946955 -1.2709834530207853
Ni 1.5603069474961293 3.668181042854868 12.393758178965667 -0.6815439122286069 -0.013224211999757868 0.8872676463551041
Ni 2.9608306881590014 8.468820540085805 8.068719444008776 0.8579370157117869 0.053712401921791365 -0.6683220142216941
Ni 5.631161402403571 8.004406063833255 3.0177577945496292 1.0990717823477265 0.9664275418157227 2.226947376301023
Ni 3.1602217148429905 8.589735833297093 3.713799458983686 -0.12443496524833408 -0.28417143401143957 -1.1670257817901966
Ni 3.6106510499074718 4.615279284959016 9.119587251035506 0.09871107811966871 -0.05142514854951144 -0.5943369780937958
Ni 7.495679425658217 6.37851236667655 11.438789526902251 0.38074026897712493 -0.1734643598721593 -0.14423940156877094
Ni 8.184769625399836 8.99004337234659 2.1272706001260455 -0.21220008587946035 0.46858689357846395 1.08765788408383
Ni 4.972215530500378 0.4243097317247249 1.2528813902326614 -0.8764031928367744 -0.8168929532862834 0.734164109527484
Ni 6.1824098121203885 5.60859882974875 0.1760492688277677 0.7029730286366603 1.3095397160274285 0.9897024531832633
Ni 8.165815237440826 8.959323561885794 11.062532594145416 0.45436560777275936 -0.09406329493501218 1.2861393348256174
Ni 0.12902229047086317 4.941413508236387 5.68673292750595 -0.16286267309691305 -1.349295912879444 0.45361973074567036
Ni 7.377623276269181 6.50795941813059 2.381771852350037 0.03239307161872486 -3.610389853155189 -0.8612632518715426
P 8.82264187175053 1.8288381006677081 3.343264467729273 -0.6838234522914028 -0.10874043733121272 0.7756807407140318
P 2.0238536324927257 3.411798967266655 1.3011872188614992 0.09092757751950792 -0.23228297267226447 0.6457143041245073
P 4.992658865561712 1.0892241805399268 8.271922357967606 -0.7051011307232565 0.01478590005992292 -0.6047535454414296
P 8.600733945635717 1.5792704700999391 12.346457161264777 1.6064219127373172 1.1211159066319596 -1.6333236222241678
P 6.645846881379391 7.744863401144407 0.9423957269613533 -1.4970171023492282 1.472667212749954 -1.3438503163838404
P 2.281012152888898 3.3586992770470276 5.911688171125884 -2.00284102590228 -0.9997156144448911 0.20995808392281903
P 7.064962654071107 4.062879909997458 6.250979023308008 0.647891000060852 1.1532402979703298 -1.8355475707275226
P 2.518156666529316 8.847433297736437 10.45111975992102 -1.317968563521072 0.13773168235724023 -1.6387422221365775
