# total energy = -381169.24500677385 ev
CRYSTAL
PRIMVEC
9.24287546736758 0.00000000000000 0.00000000000000

0.00000000000000 9.24287546736758 0.00000000000000

0.00000000000000 0.00000000000000 13.52788253065920

PRIMCOORD
 96 1
Ni 2.234511317483955 1.914162502556957 10.015246004289683 -0.19198992948017257 -0.27231504889348584 -1.3600397816595093
Ni 2.586997609819452 8.641358215769753 10.485989340328173 -1.7094149060617916 0.15658789583179483 0.6409886165140638
Ni 4.177271276210568 5.044890737487074 1.5860903410315863 0.31276184405462265 -3.0341634686191745 1.0020031249274874
Ni 2.5937541516617335 3.7092490426595877 11.515812944483448 2.4028414286605972 -0.4921780506348427 0.25601502618188166
Ni 4.829162028049521 9.463595159336815 10.429943317388306 -0.12272492453576282 -1.1039663914358664 -0.46097539977979324
Ni 7.313693122323784 3.4789073473771004 6.576511890104502 -1.0206557070316682 0.4067238375250802 -2.3148814184098456
Ni 3.1294804467649895 0.5285797039234305 6.490921016277012 -0.38002910184271327 -1.052223197425304 0.712126155890838
Ni 3.7988494757910196 1.5036586819806923 12.013909645676588 -1.0708053313028656 0.07922237326743777 2.0133933474968293
Ni 4.639174726314779 2.675553598042297 10.123225894949675 -0.050553544577835514 -1.2412743559921267 0.07286737758368741
Ni 8.816372059522969 7.757609937099567 9.65571571669016 -0.8588955229703144 1.0616316352233974 3.417234185501689
Ni 6.0348211675719385 8.34177814163565 8.338572712482568 0.5354180922704005 0.6197096525306295 -0.20608857366508376
Ni 6.048140150875259 1.5642642153046868 7.980084096929045 -2.1917556588912386 -1.1253602837306103 -1.3421443894363272
Ni 6.312698970508125 5.305891050130501 1.2704646353814775 1.1907339240404138 -1.0949873278657076 -0.8467545167324062
Ni 1.284075693544191 7.79428566627901 1.4999985033629857 -0.19337009765715085 -0.4536171596425091 1.6853545226784783
Ni 6.1339232765089315 3.761609931218445 8.761427787318533 -0.31943231409626277 0.24624611972057592 1.8031154183407463
Ni -0.24474856500829303 8.885739838628746 3.4016803514060814 0.3493342438620178 -0.06616168342873766 -0.30967934847455697
Ni 2.976344488840337 4.699604645008126 6.873557567832102 -0.8197095967994722 1.3409470266941164 -0.08132116477799543
Ni 0.7382968472676589 6.490347033721053 3.8297160578461487 -0.007139182147942544 0.43727574217000814 -0.18294144612465912
Ni 2.7567337717779448 7.420651675263431 4.6545927665981015 1.1481641689990032 2.135313516743109 -0.40976982344025553
Ni 6.6767573427157645 5.232169876759725 4.054292971805748 -1.1530664913966273 -1.4223643507303438 -0.11993630604703215
Ni 4.013506011694092 3.0036664282189753 7.6635858638508765 1.0769322701362098 -2.379441047458786 0.6179296778120712
Ni 4.885552810237975 3.4180245277941883 3.190848517301006 -0.18286971234645924 -0.9677755712031849 -0.7840442821873786
Ni 4.469854493744661 7.029576378561962 0.5803314870002 -0.8113856503148092 1.5907502676383316 -1.1813131449471461
Ni 4.561358959187325 4.076625607098936 13.156122916296168 -0.3287127109569242 -2.287869408597376 -0.8411101739624353
P 4.890229705138378 4.6016856241091775 10.87304860771299 0.5313611485922075 1.1118005427683046 0.45180684590664766
Ni 1.7826733585784387 6.653058610453645 9.028698466563608 -0.2972321238501397 -1.3337931892581545 0.6099003797496915
P 8.661951341932001 6.807063398656236 11.658856606871046 -1.0265934126723417 1.1256382199823451 0.042385664055062486
Ni 5.688157886673702 5.930885034854488 12.443135834454937 -0.8265122215436024 -0.06506305104792019 -2.001045110344122
P 8.14853734779628 1.5403251682848382 2.6051996041423044 0.12714799330412294 -0.2092911397627815 -0.576324343566459
P 1.635147825959211 4.515079882574051 5.171087411070393 -1.2440472907515736 -0.16300794042552572 -0.32346740339758484
P 1.229792286923508 0.4642076989158111 5.035118245435303 1.6919190632698733 2.0426686994221788 0.24784997387258603
Ni 0.21615942742640384 6.3380244488225586 0.13923282490254515 -1.5113384040679068 -2.1317054876768773 0.3018050879328028
Ni 8.922350867681109 6.705521170640772 7.842234930458496 1.1792950860758529 -1.6349043364477263 -1.3444902639606844
Ni 8.635183975071199 4.230870710059256 3.317320628568183 1.7498902404680186 0.7985255065226893 0.34419152331881364
Ni 0.4243958621480146 0.49571850937915746 0.5649550396557136 -1.6810751785768339 1.0346144832046054 0.8896171204238873
Ni 5.329349467634894 5.044872251736479 7.002383839437486 -0.45480989439902964 1.2079569727869197 -1.366893571356549
Ni 3.987709146739499 4.966788441225406 4.465500175192132 -0.5793451326706539 1.4321792799382367 1.5524652560152037
Ni 5.152440834445744 6.976198773720409 4.862502927821721 -0.5348593915534531 0.34020785608071735 0.26628761175248333
Ni 2.644867252055464 0.07287637456860868 0.44789494830371446 1.9130480762078472 -0.01972601767401764 -0.5959400609148574
Ni 1.9529178786782793 0.583692196458276 2.952365697456711 0.7734809048492356 -0.42157452938466755 0.18192920281006086
Ni 2.9991466621986254 6.391854954553677 2.5678898137174704 -0.3226693329763217 3.0431885549359206 1.8812497007503277
Ni 1.6575155841785285 6.428382797728364 6.243767455116377 -0.10216329833432729 0.8573963127169686 1.656022349373264
Ni 1.143889003910971 7.952431262614765 12.612383048310207 1.489025342393003 1.3258682779841229 -1.8900791261164998
Ni 9.195015688949653 2.6251706847970486 10.529670244695394 0.6192157436133464 -0.23640110860569608 -0.6546828261717047
Ni 1.2040231505948062 5.357521751540877 1.883487248020481 -1.307297456960471 -2.1435739569796888 0.1302420588484144
Ni 0.538211704270683 4.068436419585582 7.530052195856608 -0.04841927184365209 0.8805017883861805 0.3067624319380782
Ni 6.042354110939187 1.4979465850469986 12.267638588323678 1.3786224297577032 -0.09340226431224559 0.5745543961502299
Ni 8.06819827571268 6.466472686828286 2.3153245490703025 1.3553310633299303 -0.21701139122517465 -0.7231163363537546
Ni 1.471206946812087 1.369895790679053 12.179314596270792 1.0736443434135574 0.3516451513833815 0.384791299118047
Ni 2.5294791968447354 5.396277127662199 13.494941768929637 -0.5634330894260877 -0.262190044644342 0.0036077719559163674
Ni 7.157470044049854 6.95062373777295 6.5918938831741665 -2.4717516213687496 0.6650726540464611 -0.11694868417361794
Ni 7.791697661195784 4.920139649600243 12.569012704552973 0.22340906722140233 1.414802479222686 0.3271438238079076
Ni 7.964225171494042 0.11845206837176325 7.228231648750455 -0.12252077894475674 0.2786813574311458 0.8399084403448502
Ni 0.5930783363226219 3.641637409860286 12.672581895121121 -0.30252216860448544 -1.5650070972359562 2.3834596816998754
Ni 8.349736257266574 3.9158920056799538 1.1094703848791132 0.16424284127389135 0.4477234198658934 0.41142972764118174
Ni 8.049943597000635 2.468430005506473 8.344335645230396 2.4866367660106983 -0.6342042466023787 1.3497923928998883
P 4.312688642190414 7.26235819292292 6.830173359761922 0.576614106892736 -1.1385166186069102 -1.6314526304537
Ni 1.07466911080995 5.331743372336877 11.3813189417458 -1.3278912219514227 2.8558461515300886 -1.207597789675288
P 4.053084003716869 8.555362504004243 2.4262935856014214 -0.8464256726380778 0.23456791205169925 0.16388442949320806
Ni 6.965384609622639 2.829641572122564 3.844299466490132 -0.17981292779800645 -0.8821634923593195 1.0112655240660195
P 1.4795902347066825 4.129504096674439 9.635518185590634 -1.5239486366327495 -0.5403967764319145 -0.9918228419603757
P 7.871491403636846 2.6179982135663913 13.038849314524803 -0.5280343982118196 -1.0902127892951998 -0.6972217279751799
P 8.926112717927085 0.6284452743599762 9.34769874598474 0.6386687101316355 1.2096065925752006 -0.16036613192730445
Ni 9.076864014025048 2.7222763326698383 5.089419213519051 1.4582253262930112 -0.4976159338209623 0.7453201261443035
Ni 0.03913618258356833 8.243729720482543 5.697389670520583 -0.7467031225347592 -1.9483665490034832 0.7035219591615948
Ni 6.214419477472585 2.571931723084953 1.4059254428752193 0.6625894826132911 -0.12631906964492437 -1.2218198468119408
Ni 3.3898892153893936 4.8634900669034655 9.22274154197878 1.3667249069891687 0.14861824736275697 0.12685591598500087
Ni 2.4298502440157987 3.706725737703441 3.310299740492401 0.011871040405973103 0.23926146087262665 -0.09084864465245644
Ni 7.607672014027759 8.73837143488957 1.480572752350779 -0.1651427273803414 1.1764640443849608 0.23393027846770034
Ni 5.828843691572973 0.724732927768961 2.935347715459435 1.522999899566235 -1.3794513534169015 -0.640391092139381
Ni 5.203110276825206 0.1881442724004732 0.6874906103337969 0.9874681645361059 -1.2750812772392428 -1.7179445407993572
Ni 8.87357621473758 5.607402885201727 5.637636330298995 -1.2648580568493377 -1.548244790175953 -0.41015754579697744
Ni 1.1480667835453229 1.8170013974323833 7.2771209133476695 -0.4630983596600669 -0.6380585873514624 -0.22442516719074254
Ni 3.316925957792991 6.232785070688198 11.464136028696588 0.46664288247821567 0.5038107497777646 -0.8940535589286861
Ni 5.474074409039058 6.6626989293886645 9.693999706171324 -0.5020307750592063 -1.6012879339448616 1.1125878145562902
Ni 7.925118566111426 5.4559953449576595 10.034387999030265 -0.0677735080005478 -0.31271736396993244 0.04702753370244804
Ni 7.162581354089228 7.206133782489816 -0.1346862545438334 1.2247141376406003 0.13439490467452336 1.4433381247685335
Ni 3.621866899599492 8.019007693380777 8.56755940224648 -0.13671609660853226 0.43995251767122295 0.22246778635405556
Ni 2.8651249703886634 2.652261552293255 5.57053860136622 -1.0494440920182702 0.3475617253426272 -0.8857095578393649
Ni 6.439973363351102 8.28232796772381 11.552460020749473 0.3062366413415952 -0.2398674698877417 -0.48082637306744935
Ni 7.33144868576978 7.259964288220935 4.354381404081198 1.869050844691291 2.4012018361746454 -0.23534592786830436
Ni 8.807424956235241 0.4593819937231228 11.801237555099831 -2.4887350433006232 -0.9087381575240543 -0.6195579574441136
Ni 5.825349884710616 7.204599465190475 2.473492328306771 -0.5607169760465052 0.7627210952295703 0.6198816593321196
Ni 1.0330854148476727 8.678338959834006 8.126496787362486 1.2249699624051482 1.0605458583583864 -0.7861384457122461
Ni 3.9150324182773106 1.6051731813702654 1.8306337142082807 -1.4746981271370536 2.0216129071931443 0.39718658745860624
Ni 7.348381633314321 0.589453280631045 4.945225737444478 0.1861720372468149 0.24350943751570323 -0.24306437955848464
Ni 6.903549773884112 0.9956702556444503 9.993790517862204 1.1074985729588411 0.4034230552866213 0.7405949527544923
Ni 4.631077967554397 1.2968585900802723 4.640983557010448 -0.8968079817453717 0.8921609698916635 0.3361498839612598
P 5.047016598805438 3.251144414302543 5.480646093375395 0.7196684870144703 0.5663104109738827 0.28834947664852917
Ni 7.1057191852606145 3.378141520886603 11.141428431993734 -1.806518530485024 -0.7667430719047699 -1.214573963882805
P 2.5287212810703616 2.7198731850925566 0.1373611426548543 0.5565070517302158 -0.08521972850145323 0.117176741024024
Ni 5.418607914380328 9.077871487432448 6.129537532180393 0.8746995798821064 -0.7794929153712704 0.8003476473330926
P 3.7252946741755935 0.9927495070505229 8.751255078766393 -0.13488778515054187 0.13830400992094247 -1.4044789858094908
P 3.8027592120417517 8.241113986773424 12.196075626334807 0.7349349262552375 0.7491382143388131 1.0274112805879467
P 7.3490563632110195 5.165519502991335 7.933386318064805 1.6549710252906142 1.5221869167466366 -0.6887049487534203
Ni 1.0754547552102152 2.6521136662884994 1.9053614366989262 -0.9503398922252408 -0.6010316165051519 -1.0150378466242584
