# total energy = -340892.37649928394 ev
CRYSTAL
PRIMVEC
9.06171520366709 0.00000000000000 0.00000000000000
0.00000000000000 9.06171520366709 0.00000000000000
0.00000000000000 0.00000000000000 13.26273617277520
PRIMCOORD
 96 1
Ni 6.3965741313745 1.9294566438804686 11.343233961730288 -0.9076660075057982 -0.28627253951484244 0.5025714780540247
Ni 4.9593226711541885 0.4156753742435202 6.0297839920351795 -1.8891211330786049 -1.76403336473762 -0.7815883644477185
Ni 2.727603455589566 1.675366150115518 4.614822538824963 -0.09431012083849566 -0.6773193326242981 0.7731070664495847
Ni 3.4224104673380533 4.0969736073650385 4.871853559167185 0.34173791957199856 0.8574428496841878 -0.5040938282358222
Ni 5.127689339276613 4.5788303122848415 2.7461953766329876 -0.09388460326530283 -0.5333447546811396 0.0158675631598759
Ni 7.223763740248956 6.034395498892419 2.603289409663608 -0.08677550302434732 1.2242227998264787 0.5275114358288141
Ni 5.067854833915344 4.294763664690558 11.729921815271073 -0.4722967383298834 1.1245007639437925 0.7346497909146509
Ni 5.622966444384215 7.930115377142113 12.410061534822415 -1.5782580487085915 -0.4958575563689589 -0.13238918709840425
Ni 1.9085875138112574 6.460033322809448 0.3568050353778505 0.5547633295662316 0.3291027473064913 1.3077980507459737
Ni 2.7201909725688904 1.5362144517469525 0.26610995278527266 -0.28910949474300535 0.38926321884647147 0.7998408829000031
Ni 0.5901124853678399 9.366460665844004 4.7396114186265725 0.08893960055520166 -0.8065386066351529 0.5786398790735131
Ni 8.47631025986973 2.2275508265798916 1.3851203189371302 0.8323185438127343 1.3987935053889393 -1.820214282804562
Ni 6.990796104578373 0.6679381200558178 4.84085886855115 -0.109216862746999 -0.8471548374946184 -0.5771298701868899
Ni 0.8135897867260096 7.344955119122439 2.649351014116412 -0.7146720622411434 0.8541598080575419 -0.5189979990411642
Ni 7.65590787566824 3.8276141235147123 3.6443608696876852 -0.4021876402176235 0.647597122969517 1.1060734104765404
Ni 7.636742348053659 4.0171217731618745 12.48004878587606 0.7921777099277906 -0.6404980500308903 0.17001753897413946
Ni 8.148928613694975 -0.35323743810983127 6.8316352329115775 -0.7356414654039589 1.1033331287272419 0.7305301123193225
Ni 6.9102465183060255 0.4570502596030562 0.07018570261617944 1.1056926300983538 1.058861271567112 1.2134077114888457
Ni 1.9208117675947423 6.591518810132181 9.403650851131477 -0.16659385800457116 -1.238583439423525 -1.176118231009768
Ni -0.10218261893158745 4.9212181588046295 1.439908355112318 1.6970692400122451 -0.6835293180897518 -0.27072225048506926
Ni 6.217333405031035 2.04624402917443 6.931662975972363 1.1167823122536122 1.088817708719886 0.45248870246502065
Ni 3.483912328293214 4.111046451046101 0.6029040025218557 0.7328199367947638 1.0631236463878917 -0.7034877634895498
Ni 6.150593872699408 5.674654467794888 4.809572390706184 -0.3335551266508901 -0.2014760145937369 0.5045296302216602
Ni 5.216249481771794 2.8704795188988372 9.085916306941819 -0.5123139021527694 0.15658686739053032 0.3862941089158186
P 0.1708677015132635 5.7125868075559465 12.5099171052947 0.050565371652377435 -1.3110852061376777 -0.8866058444013891
P 4.157215889909597 6.155650309772191 12.712637641851943 -1.311578086613696 -0.5298400839619908 0.284605950445697
P 2.33939051538328 8.452305776346787 1.4661818921173857 0.039181555295468004 0.40667601500628026 -0.403504302146518
P 6.390013449581139 7.644906953434622 5.981082709949218 0.20550056237209768 0.40852618084114156 -0.7830454086092192
P 4.654550004364012 1.169051875913562 12.493722914089016 -0.017705387699563056 -0.20829817972189288 -0.5012766705020012
P 4.07664818020688 5.983867375025323 8.441572174711103 -1.6757578801289785 0.7980593655195481 -1.0150180491299163
P 4.557798071342314 0.7620766544183916 3.636363906037629 1.3803129300862487 1.0694814702851194 -0.04030487026663382
P 0.23928727584004247 5.581373171688739 3.7954106000931045 -0.7631072749243955 1.02211069431064 -2.089128790656931
Ni 1.1178984936987564 1.1491704727994285 2.5347873737286526 2.1607358134709562 -0.3438115142715756 -0.18285788527191732
Ni 1.7586251892279419 6.782168235892552 4.883910171219763 0.551062997896509 -1.0925383521045828 1.1395849119704247
Ni 5.983187746386508 5.679719966582855 9.341555447831752 0.5023128250759994 -0.287947099003788 0.026665939326960524
Ni 8.317204664665558 2.3184760767381483 10.190953508279643 1.6529108003274757 0.3364406757288012 0.28842301019894195
Ni 2.427153226942251 5.184877823804095 6.937113597655658 -0.6048815863788615 0.08828885434508021 0.9889496341776388
Ni 0.7836136328966782 8.92700372627107 9.165279714696556 -0.34224159868129445 0.512089444846789 0.2256166163956824
Ni 1.5069179265564356 1.054756462295255 11.3974918875672 -0.5917206235168712 0.7055988962952816 -0.5317290734545874
Ni 4.5230373318957255 6.783871838347181 1.868003716187302 -1.2197115422196865 0.06020726561751566 -0.6596705091942833
Ni 5.494163224756004 7.788190793927183 8.017722227199915 -0.07644789584609414 -0.04028610121355643 0.5019929798427355
Ni 5.400664447485435 2.589584471619025 4.599463837759263 -0.3892516488822458 0.6689323941121834 0.2303155645332485
Ni 1.0578102603123303 7.591189105822688 7.15108153509953 -0.5009845931828792 -0.9530642331349393 -0.354561296588912
Ni 5.154077053893002 4.616599541172584 7.193867329513245 -0.22112747027607724 -1.1660374497349983 -0.6534150152028746
Ni 8.125177858197189 7.215880048038702 9.122175854079876 0.1798412099327806 0.3466047607459966 0.23411668344689357
Ni 4.700257295753112 0.43237702149951807 10.268964908128897 -0.7165294271648563 -0.7098594713438485 0.29081207925640884
Ni 8.416965087128409 7.290766062320925 4.898233118239909 -1.1599976712988216 -0.4219859058904732 -0.3758945108490494
Ni 7.266861257665008 6.007237538485373 7.1966918661361605 0.2714771263732228 -0.0995320313590673 -0.8328062820824302
Ni 2.3394448856743852 5.374322041444968 2.716579879067987 0.48396003360042456 -0.24203233874954447 -0.5122354835063501
Ni 2.146874376294964 5.380701488934644 11.515423767488926 0.5294834719535204 -0.30426306255499214 0.4130227831599145
Ni 1.0310057067974685 3.625302270312277 3.7060593698623436 0.576120455085769 -1.8262967415532159 0.19826984895161337
Ni 3.766510978027656 2.535640081127486 2.5052778982313075 0.7956924079492683 -0.28547112665946967 0.2951922106019755
Ni 0.9508820211387776 3.4699482251943627 8.446612300696554 -0.07252002154659769 -0.06053842370468929 -1.684230436376364
Ni 3.5525095122376036 2.6826935951366737 6.967074346569176 0.558087251733142 0.07852688986230992 0.11550269575571076
Ni 4.19899945862394 6.746909102110831 6.250595336786158 -0.31780274891263977 0.45124737385875185 -0.9983362175988613
Ni 0.7765645246548895 7.561104211411146 11.322914877772757 0.3346609581205591 -0.6733451784678984 0.4769519777137076
P 9.35259624161218 5.7206426723547 7.953635965074221 0.12511116537975225 -0.9044955801976164 0.7620150703014813
P 8.51994241848165 1.4388191369471774 8.222777061588609 0.7311026969933409 0.8523888322000481 -1.4599217401588276
P 1.593194516825198 3.2176700744662523 10.489073969953099 -1.191783962571483 0.392581227476111 -0.03551953306284851
P 3.870947245525554 6.183605701115446 4.057017786603349 0.6291504862285551 -1.2696917307925553 -0.2364227058722509
P 6.60539229607919 3.879211529773544 10.414006721367192 2.1245560211162893 0.6265693557649402 -0.6678291337456758
P 6.33691179860173 7.8417999009569055 10.415597958553537 -0.3612585061034294 -0.05342443836772734 -1.9323457480951949
P 2.4359883992468454 8.698295096737063 5.873177617878809 0.5973819355677066 0.1451562569560855 -0.5876929904147169
P 6.989454970731113 3.998427454736871 1.5223763064891616 -0.334426730622566 1.0784134826674265 0.3221155173553807
Ni 5.806103708256884 2.739229636170893 0.3699427100519028 -1.552371667860133 -0.12907297824097771 -0.5397473157733736
Ni 1.4657414927594339 1.2032145421579936 7.056955687138213 -0.8143056521750813 0.6812448929309494 0.010729470602362167
Ni 6.77092264734896 0.4604447781110573 8.880250712949714 0.0013305458859654503 0.6596021178501931 1.0896435470552912
Ni 2.6307427819856586 1.7526082103456335 9.211566955857446 0.6693586830163246 -1.010286447982202 -0.3624340144687693
Ni 6.550025216303732 1.962613459739454 2.5014049211615808 -2.1327421564715077 -0.7501072631203017 1.1504725054172058
Ni 4.091319097090098 6.82700560262397 10.514166765469668 0.7365547212468476 0.36533113351090635 0.7829315087391742
Ni 8.239645444403996 7.139797887352165 0.4419289754751827 0.23707936561964332 0.880171144519639 0.20072525247064138
Ni 7.515279117724649 3.7513144816637536 8.315616145993769 -0.008797286576655816 0.04427902442303342 -0.46251189102897766
Ni 2.979908791463229 8.475095990035047 12.561283437816336 0.9485378060194956 -1.119451631555659 -0.6106359723641355
Ni 9.079657380264095 4.888088528091197 10.194694184307679 0.01839367201583929 -0.11954241304272316 0.06131952484508794
Ni 8.429298081494103 2.433641415014138 5.883760795042435 0.8554823835237073 0.06233999568980232 0.7857409531635113
Ni 3.422736689084684 2.740244548271524 11.3401303242797 1.2378259924322101 -1.4672514410510213 1.7651129709550442
Ni 1.2513775583620133 3.3799835168456314 12.717876219399928 -1.179461436450388 0.23495923395284693 0.2627428318240185
Ni 3.0646448901506775 8.324562777395128 8.062417325002942 1.2149241481333724 0.8353408755788259 0.01748015906263441
Ni 5.459239374436099 7.738161064395218 3.8692173640968903 0.7983560708243604 1.507006352351456 0.11488357411447311
Ni 3.0538523873662955 8.22340685079391 3.658273321009987 -0.10037098232059488 1.2238407338967117 -0.8755493294769114
Ni 3.317475805505024 4.343841914128182 9.73891981420256 0.6134127637783242 0.9654839469555307 -1.8497611432237433
Ni 7.353273773661534 6.140915960882682 11.23774200441343 0.1969760698408543 0.14725144892221737 1.5412475329225133
Ni 0.5186563302828356 9.070958133687263 0.09567358891477704 0.5485240335247392 -0.3038254607969413 1.052202628600014
Ni 4.623051482383734 0.2733792607060374 1.1908851724783718 0.04935206807056662 -0.5550145263450893 1.413162629626418
Ni 6.163343705963576 5.83358789041056 0.3238167674212911 -0.14246431194621917 -1.1014330834910515 -0.013902726124021218
Ni 8.036046827645404 8.959064074592769 11.175513393900497 -0.18033486173974747 0.623475547330965 -0.3150735229069348
Ni 0.06908561039281765 4.888623169287065 5.757353492908927 -0.10781098353840789 -0.6404473992986132 1.6083517827701783
Ni 8.01655507828419 9.092253164370131 2.421988049287257 -0.1020493984642823 -1.3160872873379594 0.22703817933355738
P 8.479336872741253 1.8353416699773737 3.762028147526032 -0.13758050149135662 -0.6701809218073039 -0.7578961630371011
P 1.9086690692479154 3.07231110119651 1.6402420358900427 -1.4218017933586544 0.8930546853505266 0.24509966482095852
P 4.571707804150059 1.0573209276923836 8.092762290640271 0.0963934857300856 -0.6464331845684028 0.16867233780015464
P 8.580311565038787 1.701953222465959 12.46758167812564 -0.3115338851847925 0.5046741262193243 -0.5124949078153238
P 6.430229341568616 7.847780632978477 1.4458102502117873 -0.42068647035275936 -0.0715237190715994 0.5741419912031596
P 1.6764444942224377 3.263159884690933 6.03381554912063 -0.054466249368680386 -0.4003279613010654 -0.351420179856769
P 6.889313956230525 4.026165364915705 5.948429725454475 0.032197153557834875 -0.61213261151432 0.5445853605919654
P 2.6455315011662717 8.477914183457335 10.29173699838679 -1.0749926299113357 0.8998102589068052 0.3467556845015641
