# total energy = -340850.7759342734 ev
CRYSTAL
PRIMVEC
9.51491730255184 0.00000000000000 0.00000000000000
0.00000000000000 9.51491730255184 0.00000000000000
0.00000000000000 0.00000000000000 13.92604325485900
PRIMCOORD
 96 1
Ni 4.831789215632624 3.764634143935829 5.041171632634283 0.656552789500908 -1.3318203818025 -0.5912287714821173
Ni 1.6265085186799202 4.017245684990059 6.23368669207237 -2.560289615610158 2.113219255947232 -4.42595277477614
Ni -0.27095725322066394 7.996498304952073 3.31895256020603 0.38600717380301913 -1.2606249926045967 -0.19193027988683076
Ni 8.278720268838077 3.614165240766912 2.3521227771783306 0.8198396946194333 0.48233021130648546 -0.9985961561284673
Ni 6.1977507521780755 2.8127618110018147 12.494000880383405 -0.6035950063569541 -0.17922517361533652 -0.534141282440506
Ni 2.817528784600375 2.599875049935585 10.056636813030584 -0.6439338151853168 0.32402970365895806 -0.32429941238057697
Ni 5.158350694427388 1.8884256489145723 9.76939763321939 0.4282465420882044 -0.7692552968036623 0.046670664583661564
Ni 2.20160915389781 2.2633990272492044 13.579271403246462 -0.8692735237705287 -2.6265459156352318 -0.9484884408387988
Ni 3.8383937833291166 5.098597013391547 6.533639704463198 -1.4847192588184819 1.1741976169482875 -0.016757679074313074
Ni 4.557597842000481 7.531561382955995 6.674334884517463 0.4055794395079918 0.314696084962858 -0.44734469637023605
Ni 9.351336903100886 9.639753078189809 7.805185667513339 -1.7774108144857905 -5.437273577560126 -0.6667317869164389
Ni 4.618027082169053 8.961282380746859 4.261857083525987 -0.2424095195833051 1.5759887930584404 2.0712825065041294
Ni 9.392469890858521 4.203585826615206 10.37527807461289 0.7323149721338872 -0.6364958708500329 0.693894977594792
Ni 7.009658650711257 0.36210730707720107 8.351211569746958 -0.2844989925541875 0.0357820426956158 0.4782110469317893
Ni 6.656027232020478 2.095318012042493 2.915583813986802 -1.3526859123975994 -0.5038161490944033 -0.12328388236302638
Ni 6.931721962595878 4.788496341633725 11.377396783154243 1.2535133212604799 1.1376190464933054 -0.004298884485670016
Ni 1.2110206222162094 5.789008932124304 13.364405539368853 -0.12136712495628778 2.4154943415379173 -0.38414646644519646
Ni 1.2562069647702243 1.545460452587038 7.321255067478447 0.9424463484097768 0.37602717977217176 -1.367227043436568
Ni 2.2111621309296545 0.6878438425366465 11.389929832303988 0.21095644328034635 1.5343549195677382 0.35381027735550036
Ni 9.463869830745935 0.6992198777351263 2.714506016859041 0.01382944968392457 -0.818223756282565 1.1854605914566165
Ni 1.279432878051831 2.7660721115045415 2.6996475219059244 0.8411906494913836 0.9804356831693567 -0.902821277818987
Ni 3.5576656614690094 6.296496564565013 1.4277818576324066 -1.0253551693898664 -0.09225735207452498 -0.553228380978944
Ni 7.010277120339812 4.274167483609454 4.094856011439908 -0.3490676204641923 0.2945386361783766 1.9069018541007932
Ni 8.135254344847883 0.7397895823849068 6.012305012784995 -0.4069608932365507 1.5187956316769005 -0.2527666944479131
P 1.1806680358301689 8.57471983306483 12.266658105368487 0.7304288108547679 -2.515068796099146 0.12110872908857852
P 8.382299659245112 2.2019421760054936 4.224883066147456 -4.624094068569688 -0.11410812940102931 -1.6111583989810383
P 5.7668296597525615 0.1746653380214884 6.425922276495258 0.457145998731374 0.1699918279425266 -0.43084669871521286
P 2.1253280614034877 0.028811169773332618 9.16117842513821 -0.22742487324901475 1.1852890988757587 -0.1375239372218083
P 8.982005870762155 5.8955284319963175 11.846328067459053 -0.3114192139837991 -0.11403588140219714 -0.1753446076140077
P 1.4825858786563306 0.015761460610807625 5.647052074027785 -2.152289996696448 1.2549608523402838 -2.7633262898227957
P 8.26875815035965 9.1934463643893 0.7897010329010871 2.7473553683158363 0.2860766214539525 0.4406040352122928
P 8.214979837427393 3.060806191722095 8.140468519562475 -0.4647209828651545 -0.003932502285186776 0.07832043027845866
Ni 0.28399364149888157 5.9594115871674385 6.952800359028793 0.08080411593226083 0.5884941461597736 -0.03499631356952683
Ni 3.0113857109418145 8.494090423335892 2.553242439942486 -0.7252009867969254 -0.808182569996479 -0.32723278397728806
Ni 6.476328502714282 4.707324581615132 8.583232829628964 -0.1072689949920088 -0.7371571307175369 -0.38805300058845427
Ni 5.082992548917219 7.332823304007647 2.7815880872473993 -0.2844439709465359 -0.7634739142351948 -2.0042775012384904
Ni 4.571308837919693 -0.08792639985415766 8.284255096267783 -0.03279133549840804 -0.22366643464784705 1.0623787978020671
Ni 6.818256573049315 5.515854684484664 2.153481750387079 -0.4151197748982593 1.2587524581722322 -0.7015033860696692
Ni 8.270432775815431 6.1387582645312255 9.681538789278504 -0.10784775031361425 0.2028186446645604 0.740778272409892
Ni 0.2423896653318086 1.3130681109278979 9.479248791678772 0.5054559986906715 2.4401075121009073 2.7316161032037085
Ni 6.472379812008889 7.137510595309761 8.247211619992505 0.4840520790935986 0.8155480092226148 0.040920392363445655
Ni 3.9666929290436532 4.085163165122835 2.6867928685493285 0.9897867853669535 -0.42466319561232024 -1.1282532890076893
Ni 8.430749618454428 4.097827520132184 6.073092013846392 0.2907819973494218 -0.7509500707365713 0.7672644916258786
Ni 2.6193425708590454 4.252159479750234 12.44992492868558 1.1118825609591496 -1.3910791674638172 0.45651299313306537
Ni 7.0547308142569225 0.9332611545731694 13.73004858973792 -1.750149664776992 0.8757388197798982 -0.05449401728282228
Ni 3.9046746976755617 4.245004261893713 8.6645054477716 0.788577394171042 -0.27110457352515244 0.5978341926137769
Ni 0.6078681076305064 8.024015445964121 1.092765423269417 0.37555872477618546 0.35749389685467464 -0.8890653616854753
Ni 9.46770434244298 3.8936088487830958 13.204966923602408 -1.3406991723493684 -0.42517793046520963 -3.2156234451023007
Ni 1.3147617662184041 6.864746459281979 9.413490246295524 -3.411902745986447 -1.2148945804470175 -4.169329682696612
Ni 7.3530520183201 8.92064416869207 4.388416902346678 -2.626993801805927 0.6838483919920674 -1.9548632124714203
Ni 6.956917463771501 7.984233576471946 1.6730887966275259 -0.12832427300041124 -1.3621709690698993 0.17263543621296076
Ni -0.004458690276018384 5.537244218715327 1.4781661995414979 1.093562422493723 -1.0429695400375198 2.026225466264491
Ni 2.4509570782967383 7.461360322656243 5.134406404884921 -0.462098714750959 -0.0987146776640945 -0.793254487931737
Ni 4.728704600928434 9.258994630098842 14.106246537937093 2.7953365241808052 -1.1158168630165493 -1.7947505913158188
Ni 2.7016085463743145 8.955954027023918 13.886576592283213 -3.161450558604323 0.7255815100647955 0.3317101030223513
Ni 4.212215856662898 1.9574183147092996 0.5976890490362159 1.6565815643108437 1.059395032583395 1.4528805170413301
P 0.11157953292533586 2.232799053011741 11.591565203589186 0.28329648760565407 0.3867998449076435 -0.9950166663073251
P 8.007916205786948 6.362615725316298 4.075539777702509 -0.5816285293881919 -0.2796686610450797 0.16746443353498255
P 2.718164502584882 4.179275212754287 4.3223510251326225 -1.3421407898919013 -0.06943881151811267 0.3867782476410887
P 4.3825709371192225 1.6166320344577538 12.420150849275172 -0.8786734769281899 -0.9401786354215228 -1.0739518473516472
P 5.859095813415706 5.626684441921842 6.354105583227371 1.12857133446874 -1.1935711363788928 1.7248649220682746
P 5.793566577540891 3.8796790097645495 1.0114461820317067 -1.626938030412798 0.3640550950119601 0.44960032517363213
P 2.624100029540243 2.972907385128288 7.470779139353279 4.8581058510076005 -0.9215569065552773 3.3130566849508107
P 2.407569055124216 6.574893531671334 7.311562221161376 -0.11503655475256963 -0.4218388387896477 0.53046640469208
Ni 6.498888371780521 2.567067614870046 6.702535196596129 -0.1105353244481064 -0.3198004960689589 0.4244176552604174
Ni 9.076146463145694 1.9852779927463928 1.0095755492782599 0.13229919848775926 0.21426288194576004 -2.7566668755247488
Ni 3.8130650733104208 1.3673031398935505 6.2204428785956525 0.6580967369492602 0.17863279144697622 0.7671858158691433
Ni 0.5640994877634884 2.326873040973742 4.999992973273309 4.1328863522679145 -0.5923914243316507 1.7948518927803734
Ni 7.181184066003155 8.626024267482864 11.852998976021828 0.08463454542194455 0.18823483331311452 0.5072115479291974
Ni 9.19491166166311 8.562788126692386 10.390582819190303 0.17033507021455827 -0.32784264964714505 0.0727223673653909
Ni 8.239604443561271 6.451066397117123 -0.03144014144056241 -0.8950002391126716 0.8403223879538172 -1.5137819805123929
Ni 2.5691894414418606 7.991246070568032 10.545816792974309 1.9603787429730106 1.2444833498477277 2.123207220397879
Ni 5.943226712734005 7.073598895386553 13.385949215260789 -0.7240691871853272 0.22945784451864354 -0.09988478671279571
Ni 8.7555127778677 7.860063904892689 5.644225192079418 1.5326770176446831 -0.7624182192771708 1.8586587028236894
Ni 4.215165481045242 6.7557816256478285 8.883520767110946 -0.9795900473396096 -0.5609766574657952 1.38489463591966
Ni 2.5605213517247187 8.749518379929391 7.091878954623186 0.969567115885969 0.010984781146277855 2.9326347185450525
Ni 7.549963233134869 2.5469911392353923 10.229820678418747 -0.028596580690770108 0.014591267550613582 -0.23198755291903275
Ni 0.1802915086578727 4.681834118001276 3.919164965326753 0.638665624807842 1.0472162311290159 0.7708018153551757
Ni 3.1961749210368913 6.955775673688013 12.814327233830591 0.8050540516698264 -0.6002651706527726 -0.3567973850082823
Ni 5.432627702315792 0.1549532837218143 2.1275792908514304 -0.06638691206566631 0.8300474883903705 2.1180184771080874
Ni 5.778875545133353 6.9657948816706154 4.768722440371195 2.0494736381591547 -0.6198058117888616 -0.08239665723036131
Ni 4.880277234511389 3.948291078864781 10.75059874743125 -0.9787153580441402 0.0951758112729006 -0.29011453896875194
Ni 2.5020046099459883 5.636932007921142 10.80407543748312 1.297351658601669 -0.547329756106322 -0.8359057469433604
Ni 4.942638002904527 4.900230016220332 12.844309689931235 -0.5983710389538534 -0.2353536411777882 2.301656692189455
Ni 2.745500860167043 1.2623536013863317 4.130422772540541 -3.2321548670984206 -1.0731483776137452 -0.7457939804569286
Ni 4.377585120421327 8.830090700154154 11.752327344360742 0.9382137983856682 0.843558892613244 0.4211726659605586
Ni 9.241763114755544 0.44680244099508937 12.757355714631514 -0.28322475382745416 0.20762403647300373 0.32560964655156827
Ni 1.5292660632362414 4.60832186645941 8.39258528491386 -0.09969426796854443 0.37034889844047186 2.2918839290734074
P 8.6704969912347 7.458743720381586 8.0934400890071 0.018272315946626597 1.0994319939006227 -0.7015666352074369
P 1.4758873768332044 3.9030381318892298 0.5651965577353726 1.6626506533230592 1.5866876675331836 3.5203660183968726
P 2.149705279685944 0.8272754415651855 1.9714404484262615 -0.5816341858151467 0.4547898397943716 -0.9715221827298107
P 4.912732617634519 6.269731102024596 11.240210704623228 -0.7233526207342769 0.3608730977395527 -0.5032551343846107
P 5.879629005083755 8.665063973420772 10.194644028929972 0.26675760941036636 0.549621380353976 -2.1591815816099587
P 4.6351444185040025 1.7631617618386397 3.94444039180822 3.3262364168658785 0.7027395724696156 -0.16932205556901161
P 7.64459860122125 3.4138572004537684 0.03692453980824699 -0.6104043159693037 -1.5326327946703087 0.8071788113223131
P 1.464631229593491 6.660004467477958 2.7310086895323793 0.8006446097482212 0.02937768183116876 0.04255998484939767
