# total energy = -381172.05102780706 ev
CRYSTAL
PRIMVEC
9.22444956644442 0.00000000000000 0.00000000000000

0.00000000000000 9.22444956644442 0.00000000000000

0.00000000000000 0.00000000000000 13.50091436214277

PRIMCOORD
 96 1
Ni 2.2896743679748948 4.492482096450561 7.209771495462293 0.46475929230225765 -0.024728870205247732 -1.370230349039266
Ni 1.2639432739538958 8.989576417574545 0.23651580369801184 0.14952867499216826 -0.9237999369531832 1.0961852048285508
Ni 6.159386215671985 2.108469285005494 2.2692468248963094 -0.6866400958045916 -0.06018875367475441 -0.8014920453501809
Ni 2.35623799446172 7.346443704319936 10.355363146987205 0.1126737109473479 -1.3436983641870084 -0.8491703252627506
Ni 3.948995989833213 4.6562252968063875 0.24466929447568714 0.04013286346514378 0.1924488713944621 0.40819965073965825
Ni 8.592703708875932 0.1487396334931842 12.247394564743027 1.1328383372752102 0.9148213876036566 -0.7943886015361803
Ni 6.384850206607543 0.04137718999020292 11.570215746407065 2.1310801953880523 2.17214122709442 -0.6045617411455975
Ni 5.108573843876917 0.027252713150315567 13.708422811216916 0.6110113534256832 1.415884142322639 -1.184287911304754
Ni 6.4527606026990085 8.738293192917169 2.1439990965547326 -1.4221116112895895 -0.7878726547945335 -1.938530536749668
Ni 6.042097342226865 4.511401442060938 10.792131599110915 0.12780336749993473 -0.4446584077873245 -0.6608537308691069
Ni 1.839742626633238 3.7817659476242804 9.283498736892769 -0.420975719458404 -0.29520198079398835 0.26817248748002204
Ni 6.210766398533905 3.9641517601100777 0.6583305009855542 0.3603727610643665 -1.1446592411695384 0.040100210454995455
Ni 0.9303871855720209 3.8590483842521386 5.178464729243149 0.19055731079870408 1.3208201740372543 0.40383648867495614
Ni 0.7996878076664593 1.508252814905056 9.063474403737045 1.359351240232917 0.3994733266102539 -0.06992320735369893
Ni 0.7929825554362384 8.643133773455128 4.482479103578844 -1.2723078282591636 -0.6784758148262445 1.9537859202468417
Ni 2.978869876474989 8.26463616785543 12.609516005417273 0.9471560951806203 -1.0383772926811472 -1.0204021962599652
Ni 5.103168316559667 6.827033410497852 0.9018162986100413 -1.9499639753975904 0.7350843073489082 1.4925431257382749
Ni 0.37443146832760943 2.9591664526701305 7.263734524141331 0.05793980973957763 -0.26961333369160667 0.6757059653905911
Ni 5.467266556728942 2.2663180622286863 11.889822622486644 0.5282722252542386 0.034616561632604896 1.1982893677901685
Ni 7.877255417534721 7.384199375496569 7.930463886257186 -0.7273931093522377 0.1251304486534619 1.0462461539062626
Ni 8.979281932103467 4.265117868949553 0.7567775141948109 0.9157274443576939 0.2634627407091785 1.0484506177567492
Ni 5.984785838434925 5.73265396443764 12.712434109224946 1.7209930978176944 -0.8239370046172584 -1.2000230626518236
Ni 1.5100423580783437 2.5830118572045304 3.34397358162307 -0.04733735163338299 0.12013222410792213 0.6599805842355343
Ni 1.1282516240618223 2.519335483363267 11.368674442407613 -0.5356980854046645 -1.0395808260709452 -0.7981447261445028
P 2.8036422366823426 4.7538660931427295 4.184824572054885 -0.7169896546307265 -1.8998269495318827 -1.1246097787178309
Ni 2.887418685650379 2.18566870158923 7.612800601654989 0.5750912424903064 0.677563073203988 -0.6128892871746864
P 7.308079219486414 5.405564215047903 9.273345385496699 0.46201746789106235 1.6552361060265428 -0.045310293901025187
Ni 7.56572731419311 0.06000319811135009 3.836595152096986 0.6884861478743949 2.0961898112687707 2.29869503845797
P 8.722980607001409 5.558468687421187 12.685566978057327 -0.13397658619018218 0.9870184785931969 -0.9128529510233763
P 8.625515075202657 8.622738515949257 1.1974082432600455 -0.9588517863509938 0.9514644927479872 0.39884674876984855
P 2.835706422611972 5.6884135053701765 8.931570312746786 -0.5692065015747552 -0.0836464704770624 0.6775448183715428
Ni 5.622680079324567 1.9204381095194278 9.535398154766515 -0.8483010352839198 -0.323207721978295 1.1478741485624104
Ni 4.424497904764322 3.837758355159623 8.991608563765654 -2.2399985530580264 0.5906459023954538 0.45735914318344456
Ni 7.098748790458485 7.136864215159644 10.66384533715449 0.5961444636161799 -0.9254205032757417 0.36398773210913443
Ni 3.8005469264944547 6.138907938121991 11.810545859909999 -0.3002490562995926 -0.9003980130894751 -0.14549409991147846
Ni 1.781462555659878 6.142736084600933 13.20533887029381 0.5326675261084569 -0.8879317623016643 0.6745523114021221
Ni 1.9287216650328938 4.371438872121276 1.953406291485048 0.2970223218321788 0.0604404646742443 -0.3890405613127042
Ni 5.9659495128686695 2.1755863784531297 4.527234286919861 0.9199299124748156 -0.13269874791902306 0.5273345439313176
Ni 0.21967841630521773 6.683132000687087 1.4316769710971662 0.32110507381299536 -0.6260397085137154 0.19433811799737497
Ni 3.4118378554678004 6.533170127655446 4.988182788116454 0.8558590501368356 -0.5936499793291001 -1.272866271865795
Ni 8.555427709065336 2.3351324543561414 1.9266212579166175 -0.9907200958145003 0.842565161241407 1.9025186374314331
Ni 2.9646642244808494 8.185923941578812 6.354853219776541 -0.7479436798100796 1.5434409410294063 0.829350462323346
Ni 3.7988127300172483 2.648339407478879 3.5618513854157836 -0.08646799908625753 0.22725029534436347 -0.7073441611211624
Ni 2.1460681405432296 3.46441721674481 13.160974803605098 -0.8646018293264721 0.8597624989563 0.4393015143507854
Ni 1.0890569387870825 6.47715927122141 3.7191236345547987 -0.27280818647982047 -0.8429176594848193 0.49855901446052203
Ni 2.9435310110272304 9.222539885829088 8.548239095689341 0.05285391057623801 -0.6407518179129094 -0.012595063056191211
Ni 7.389992329686387 1.4230096784908717 0.2514086771684913 -1.8148985270186033 -0.6668050633565356 -0.10809663309962675
Ni 6.1112807123281945 4.54600235156095 7.731177037678102 1.9672302186772055 3.197708255384777 -1.0286466956569447
Ni 7.913055505449822 3.397632203473661 12.453931830508731 -0.3552768345986978 -0.06113466252779149 -1.8550553017431473
Ni 7.412592230586155 3.072212079415702 6.238030181023437 0.10846070130726482 0.47435567774144116 -0.20352466959264948
Ni 0.6082269819132371 0.65813863243914 2.6562235443356266 0.2818751817780952 -1.5407212281053981 -1.2996252851271939
Ni 7.501977144757071 7.669557716041185 5.689055527044717 1.6793504825762433 1.193461607384222 0.5144913694200623
Ni 0.22534407309404922 6.172798565022297 9.256888045416995 0.5142537994879596 0.7914865973980368 -0.013249665921054601
Ni 8.727952585199358 2.013134601005862 4.515907585566871 0.05032754460995849 -0.05006452075655894 0.03144844831726842
Ni 4.499861655928036 3.898482905209896 5.497167609286737 -0.23256579402000593 0.4973364549073306 0.9491697831765394
Ni 3.167758925750311 1.9769563106675405 9.88086023992036 -0.23689141797855331 -0.39048886372345654 1.4716523983321945
P 8.500219379724475 5.754174604763827 5.235897073321534 0.8604291860060214 -0.26182340533354265 -0.8796425257096785
Ni 7.0582626822751875 7.832941162872483 13.327805427157312 1.4232830058898713 -0.6340998598140305 0.7180147534611311
P 5.032204627734397 0.1491538112688575 3.8733176849467714 1.0956614711145969 0.4857497785109957 -0.6074737725860699
Ni 0.49717937089619163 1.8315236422652 0.12554844539028398 0.7021189081664811 0.9965061063686581 -0.5778412944316178
P 4.898477785553201 8.172530041127194 7.711208872176989 -0.8620795771252509 -0.3728482678235579 0.44420126564524787
P 5.207229329641413 7.683680347991202 12.053764148503427 -1.08864544480808 -0.7429243722186173 -0.19996086350079112
P 1.8772031154307707 0.10682834788579901 10.673971015202518 -0.18645742969771759 1.9306297938453527 0.3399430324551048
Ni 2.9227575510981376 9.061776182612292 3.872670128602623 0.2046186739877766 0.13732107718238284 -0.4082754982829162
Ni 8.635154624770108 9.146521198761747 9.681127850437822 -0.4842757650686305 -1.2636802344911526 1.1154129427099113
Ni 1.4755521419704944 1.1314709568838708 6.117979507443873 0.16382452278955012 -0.08602525512188411 -0.5852170180703986
Ni 7.131919910309736 6.015696968196198 1.7076494344313682 -0.14707507124535316 -1.3576548263671007 -0.6225262960438182
Ni 4.2491318982314725 6.003077921489716 7.314120311363662 -0.16186174263622446 0.5810135215120122 -2.224599444894136
Ni 2.70167517360233 1.6994110787197019 1.4807805598602855 -0.17691863696934693 0.02760824863557181 0.05727209424859169
Ni 3.131137861843341 1.3620452927575806 12.603589296711926 -0.2567922706675384 0.5160671985476144 -0.6609666022978875
Ni 8.372276267283752 3.6297470223882935 9.787514347199908 1.5759417418705892 0.29004460496276496 -0.2153615143265775
Ni 4.356439917483308 9.381541719220635 10.681315521772476 -1.4195528494234777 -1.1254590140920038 -0.3397046911920537
Ni 3.52076937780468 8.660540309372623 1.5610969178783205 -1.507309485414172 -0.5552924625968243 1.0594667663615946
Ni 3.7656047123686105 3.760291429544828 11.435666083344133 -0.8250091546355146 0.2428962294117365 -0.5080996069611056
Ni 7.522492320104452 1.8832174564049131 8.370296700453919 2.333355823064949 -0.9043091752184232 -0.34311448820455104
Ni 6.3852929801761915 8.844872480670604 9.200711148894715 -1.1383171010015942 -0.024057812280152118 -1.0902408143196578
Ni 0.7172765772017561 8.555280117875787 7.624749030893955 -0.2281057013661233 -0.0652463707033199 -0.38239503097172856
Ni 7.909854621526468 7.124125250611653 3.4478768566209848 2.5040431344126035 -0.8403882081947461 0.08793301366755824
Ni 5.983466742178326 0.7443660175986325 6.943830620792785 0.8387468159365813 -1.7920601889678491 -1.0528798571726965
Ni 1.281589645554408 6.276020153213479 6.186928576531792 -0.6055480163182668 1.1690145300854513 0.036930040257129954
Ni 4.813391464777913 4.736625597313478 2.4874354926320112 -0.31340230585209894 -0.037260941233987446 0.5655516784309873
Ni 0.9166233847015951 4.910571038646913 11.016125212820587 0.3688283480308874 0.6083623458386104 2.2647369363449705
Ni 5.690553577618645 6.728165762398379 3.6030699148772207 -1.8850405352513278 0.7201089169859984 -2.257204118303035
Ni 8.632737819041235 5.156218124753367 7.293234313152538 -0.563067735666869 -0.9218543831910382 -0.12419713820591512
Ni 2.9496006986974534 6.377784278407861 2.3794817619258977 1.0820677915905623 0.9567815340855264 -0.5145559041094107
Ni 0.3761868810383138 7.372493549275424 11.727312731008492 -0.3658996044198666 -0.4193250712288585 -0.5201516530296332
Ni 5.303578703069197 7.962692267385189 5.51999719897524 -1.4304088183013752 0.692975036883684 0.8886745540049599
Ni 8.890690320576377 4.352999197876935 3.152301515979805 -0.864675362876885 0.8539741744092969 0.6091390761036348
P 7.669723756129428 1.8823319092676158 10.769017896382529 -0.5224489337042422 -1.203111214658844 0.37354426544931796
Ni 6.2413177747706525 5.680831008007071 5.432619524982196 0.6408821728431866 -1.812698176933175 1.1516572697539262
P 5.595836931725252 2.6666683883310576 7.433333404942533 -2.1093242917681994 -0.9477608186441547 -0.6153189796621016
Ni 4.002829876221394 1.3239483169551152 5.575958243382804 -0.510057759128741 -0.4294061096139443 0.5530633161559895
P 8.580656578028956 0.45839332872751715 6.090843022355327 -0.2190621031066163 -0.28682455536357054 0.1115596519475627
P 6.6763889282145445 4.2637987726929545 3.4353887970952273 0.07853383184084539 -0.49840449116052865 0.22449715807925852
P 4.586073359523639 2.2972015186419195 0.5440358837984198 0.6524462235317021 0.5858474525655459 0.10729804845773133
Ni 4.749604397544488 6.538584879422044 9.464180793584205 1.0258567916166332 0.8881698464543994 1.3755216793451925
