# total energy = -340864.95760358195 ev
CRYSTAL
PRIMVEC
9.34413843664039 0.00000000000000 0.00000000000000

0.00000000000000 9.34413843664039 0.00000000000000

0.00000000000000 0.00000000000000 13.67609112201306

PRIMCOORD
 96 1
Ni 2.087218938042924 8.633591656771053 2.0132843754058394 2.0113925150167167 0.7606909521734189 0.581105052784554
Ni 8.259872831551121 7.719099495585296 10.750269860728988 -2.0936045670400976 0.4992755809115724 -0.4828477743728523
Ni 1.0073915876224755 7.481328543552633 10.063128068155835 1.7825422221750848 -1.4162888339602255 -0.717974387141499
Ni 6.022960792369972 0.8035641536419162 4.676129352157126 1.3905176385333922 0.6945421242604878 -0.9377913661362687
Ni 3.0475721317122266 9.115917405494706 9.766275061866812 0.2680002235682159 -0.6242167963723637 2.101229430575207
Ni 9.00522673907252 8.675088976506062 6.233165600977675 2.422393896871228 -0.5122977042028531 -0.8538003678355942
Ni 6.0407894089100305 1.365505701300533 13.221457209674648 0.8862600310261962 -0.6223473472637927 0.6729021773932088
Ni 7.931631929130174 6.082539020388532 12.31801449243995 -0.32402147612884197 -0.4639514516889816 0.3343711947942822
Ni 7.082866439193248 4.9949093141971455 3.0264777387147523 -1.3547636208622347 -0.492000644516714 -1.4827060850431948
Ni 2.030266412984404 5.337390683917385 4.545467458202935 0.1349813733056127 0.6983008199719715 -1.332164652515796
Ni 4.406667753900349 3.3303537996114843 1.033182344704349 1.6872329706481137 -0.4158234858335032 -0.3216282933063171
Ni 0.13175422376212254 5.625937685362353 7.989832831112044 0.24165258681262256 -1.1428198739679545 0.34088174221929035
Ni 8.691179583257625 0.1071240087003093 8.760890595225892 -0.10877309034136105 -1.3589984848791887 0.5560421962786553
Ni 2.0443199975107396 6.8143158944546345 0.08085483171966683 -0.18168726200258387 1.5447087519982363 1.348668306597774
Ni 2.5696287840144065 5.5223205318965745 11.614242936315256 -0.34314636988375097 -0.09713653454369724 0.5005043111123509
Ni 3.9282478551314894 0.9815083235679883 0.49782300267107704 -0.648083061467 -1.4757569074188714 2.200470927277049
Ni 4.844851791651656 4.934135036431664 4.406450035469854 -0.0759789266294756 -0.4532944861957677 0.14861464781833117
Ni 8.354304696726084 0.5897141965476951 1.087495150594857 0.14644900762558005 -0.04027427413901451 -2.0249463424417513
Ni 4.226260469026709 6.719052400940015 10.386895931406068 -0.33785221136434723 0.011849443139418301 -0.9603646234510945
Ni 6.00751493118511 0.5494736634608183 8.75904419342908 1.0234389262037598 1.0068180298176272 2.0576021808035594
Ni 1.3993595156216185 1.5097418254684258 9.428748888871517 -0.12100202830738516 -1.0119684636703152 -0.3248876807838792
Ni 6.891049961030609 3.5097612616498064 5.292292133147502 -0.8723382787387816 -1.1763074642024387 -1.2610749356578217
Ni 8.642160231911113 3.0669985959610635 13.031960881138266 0.36802102163824363 0.23014484328333912 0.8795908465361367
Ni 1.6265342144276442 8.69326332617609 8.050936956971793 -1.1585956487449722 -0.28694591143278325 0.7126012957550437
P 8.966130862970003 8.17309381592873 13.485638435181537 -0.14706170150891446 -0.24885887475307464 -0.003686704822967844
P 8.76713808632583 4.208282346268285 1.6574735919044719 1.0093122569943906 0.3229480405590051 -0.4974603820797046
P 1.3777558670678371 3.021614114548557 4.911221339639457 0.4030942111922929 0.8743172568420232 -0.19216219339197874
P 7.359004424513898 0.32287643242322844 11.14475603409372 0.25779757200360115 1.0111048301184393 -0.8598985103135319
P 4.518442340405683 8.053404743988686 1.2864785831003818 -0.29431572153429314 1.8079683755576732 0.39522843529097096
P 8.204938640440533 7.262068330181318 8.100567414985875 -0.4918546058571529 2.22439864173724 -0.05679978259786347
P 0.2911829829575211 5.546718077906057 10.965722337601312 0.39029963053078587 -0.3393203112694414 0.17390530406431984
P 1.0714736904692888 3.4653392265180263 8.39562914989611 -1.846299667037704 0.912648291211738 0.3353487282162031
Ni 2.364870673824523 4.48233658867047 6.621280006198453 -0.7113229432632523 0.7722208071898894 0.08438874795972562
Ni 4.417235974711043 6.630283083785637 6.220447293864114 -1.0844599459718225 0.17279895837401854 -0.6217482802272132
Ni 4.2611701710149985 6.062972394059977 1.8817478700742112 -1.0731324367741453 -2.9179313508966067 -1.3239049836101653
Ni 5.8092696856327635 1.2652430936093246 2.167003865887414 -1.0076376975054453 -1.475608554766465 -0.893204066444197
Ni 0.9286261053044633 6.92324051867238 2.5472813420242577 -0.9684468862385966 -1.6825659041897474 -0.3315661212453193
Ni 6.286951397448445 7.139239627655602 2.2617515629486733 0.5522606177490359 0.29235731225634165 0.8527685841369702
Ni 1.4164873217630896 0.23217100974101995 13.69140851558698 -0.44917969269644575 -0.45338987412305143 -0.8496331238317819
Ni 1.7948969045842325 4.926117765471827 1.9205195045656491 -2.093272894732292 1.0474149774033832 -1.4817511773290932
Ni -0.22089263439309 4.286016235679577 3.895907791271352 1.4454325454037171 0.43699497770479573 0.17619692831197398
Ni 4.191266669790588 7.415947605433771 3.6329441070302755 -0.24869021038569428 0.6089912376718609 1.5836329398672595
Ni 6.451987574246406 4.87901396254812 0.7088267351331694 -0.6684407991877456 1.8899672831289838 -1.9364420296517555
Ni 0.5460920196841688 0.13248586981824756 11.215174397357629 -0.4413941352137559 -0.08827754149117054 0.514904802808397
Ni 2.6750960769324554 3.20842213439596 10.5223167951736 0.30391467807663786 -0.3288122126492659 -1.1346049422573297
Ni 8.422993459926277 6.33221440505853 0.9360406793215159 0.09211414162844135 0.24415169908539242 0.9822313416171988
Ni 1.1567856763239703 1.4893622590775102 7.081192903961423 -3.0109397222045438 -0.06620770617532469 -1.4312356850780448
Ni 6.42635660193541 5.222654005460688 6.85055900502797 0.7726470960940306 0.2461890412303954 0.19515495747171552
Ni 3.3131792727767744 2.5981470951675814 12.561735791963551 0.25520101492101854 -0.2106232283106437 -0.02808775937515163
Ni 3.4510894150800864 2.0322847469323353 4.906120374351607 -0.40837114332051605 0.36372342270415425 1.0612323429024497
Ni 8.136305942072227 2.2949391401841686 8.061399589015767 -0.496217510811539 0.5706324353880042 -0.031710186619087324
Ni 0.7455417247082202 5.152909354593292 13.13769074435232 -1.2056689480836913 -1.991682438182299 0.2747856219211654
Ni 5.566966826355904 1.8422810316673746 10.989683512335942 -0.07517725666378665 -0.7794589768095415 -0.6192730792138431
Ni 6.478394110065172 7.597364057281376 5.050170550160409 -0.5840204266591361 -0.832363795228373 -0.04914740825892826
Ni 6.9999465528324105 -0.2053935116179356 6.784298783462348 -0.8280623396395416 1.4869797727178844 0.2521437161519335
Ni 3.016671065203855 3.504808868166457 2.8549520576258733 1.2801013561616537 -1.9059289486645627 2.687348391634585
P 6.624788730260713 3.24488296339979 12.363118649693023 -0.5355916417337873 1.238295732979777 -0.06204714703973186
P 2.1114202571408014 1.4473603558555177 2.4297629134921035 -0.15372111580696107 -0.216372214979279 -0.15468065150675295
P 5.444483856960157 3.1528338535800238 3.045624813218019 -0.5312829870561044 1.172329196280981 0.9462857767605252
P 4.105253873537319 1.7515868219515436 9.233317163466033 0.2888852945473412 -0.593021601716482 1.2355215126687495
P 2.379241959064885 8.049041031240149 11.862163491747193 -1.3596641434876455 -0.7968242075608665 -0.6604161291110561
P 7.522171773582294 0.3615658384945656 2.9024632649946267 0.6899275083066118 -0.6873070399646292 2.154014692697039
P 1.2016936066654378 7.788423660213542 4.3983271757432965 0.015924641650056442 0.10736541136055702 1.8434807095316705
P 8.160058742515009 1.6478575388219907 5.386656720524201 0.006332627086247159 -0.7249880994551707 0.8365724339930819
Ni 4.014055080334506 0.4566611375135243 3.2600933522907263 -1.4388960298367799 -0.5326801245139472 -0.647709223067349
Ni 6.564556412536806 8.04309815906013 0.13382768812807586 0.3397964795749116 0.28999781088522963 -1.10154209826509
Ni 2.4137778955072617 5.252200171865125 9.250316954908028 -0.8398189659548375 0.3695459429232023 -0.8724020420971815
Ni 4.755278878573565 3.9071487900646904 10.281370704828403 1.498526082794587 0.22494273025710937 -1.6697525544751628
Ni 0.45873460187947757 3.171054923943291 10.764410345744748 -1.815841607658163 1.692096212277686 -0.40790731631022004
Ni 1.0009815085100646 0.8551223074590438 4.398477616375526 -0.6503736572733896 0.2558067668258175 -0.5301159633311967
Ni 6.738049034811052 6.213338273180846 9.302641328094278 -0.6864516339428693 0.21011055034028334 -0.11413332621200988
Ni 5.588262118334305 7.791198869391947 7.915913219096796 0.6947714666624745 -1.833120449343269 0.432516630218468
Ni 3.9519259024650886 9.372731712091646 7.739109034085757 -0.22153524723745718 1.3600076428699932 -2.424733343637682
Ni 9.248622862571178 2.1117659902707713 2.776369720425359 -0.5191286110817576 0.45980914738583395 -0.8963737224214305
Ni 2.8670714054521085 2.6338323606636416 7.734650011123014 3.5834426351423834 -0.7935555641119236 0.9294777040642508
Ni 9.067496079021653 3.6728258251930757 6.299960307273953 0.7126352343167727 0.4483430557277633 0.3750882128976702
Ni 5.488429341020898 8.668875124305256 11.395096721435445 2.332627429539357 -0.7793383920712772 -1.0866952630602447
Ni 7.680667053326775 4.445763630002866 10.388276995098217 0.055416786207407795 -1.2512970303354516 1.0470000013531515
Ni 7.03253890843604 2.9227250952385795 1.4607430312269387 1.7513598830350094 -0.6851781665470845 -0.5708864603803393
Ni 5.655240904161946 1.9319941068251836 6.7276527461514775 -0.18066344872375983 0.20099136164783452 1.0411571694191295
Ni 8.246305142234473 7.737021553511833 3.4897554608048043 0.524178257690523 0.0013791397357137537 0.43014633021407855
Ni 3.7277226397490724 0.27330484248262926 12.025236465015245 -1.355010446765718 1.9343290970738105 0.4766354749145533
Ni 1.6690313569979718 6.804009309526078 6.602926249066387 0.43813937572188416 0.4271360826328451 -0.8060601243368376
Ni 4.738786473860145 4.489204530576625 12.371419982467753 1.128655152431798 1.3748380230146067 1.7535370931919865
Ni 1.7773112356490175 2.6680786288079354 0.6427963793782837 -0.8258067108361454 0.36645856224713014 0.8599419619569576
Ni 2.1957791408534044 9.170589960723156 5.970338341160857 2.09810451179298 -1.5659671471563805 -1.48559600499648
Ni 4.146639063608555 7.322487530678183 12.925136819288552 1.3627116720647177 -0.6557428920051029 0.039924089888447374
Ni 4.629226448214347 5.151423636548286 8.35350670728556 -0.39214876792438275 0.12290438753642058 -1.2343768575413452
P 7.572807660914881 5.551763912775884 4.918387359568477 0.13758821480084046 1.3897311380763548 1.7258437410417762
P 6.379663941112208 3.6438403071075087 8.731869569413462 0.7303989860580969 0.5533451090624664 -0.6340954889386563
P 4.402051749408321 9.036809927702183 5.401796093961413 -0.42651953209476867 -1.2126032133096794 0.5955438539177035
P 1.1234925103217543 1.8940008390831098 12.292440519374706 0.6484826108982639 0.7411479970444849 0.3863429598758831
P 5.906261844797232 6.535879251026617 11.649103114368712 1.0320253823211902 -0.6363014954510396 0.559090753296992
P 4.342837942797027 3.5908123202810778 6.324685832549974 0.8453486375238151 1.4016176051012958 -0.6008634663584039
P 3.5034446239238743 7.190352066059228 8.253835583570758 -1.0917125137691779 -0.3417253211665083 0.0073649250055034445
P 3.054720397777816 4.685739798756418 0.1255170112146965 -1.2623571448043551 1.1428142175409997 -0.6764513281970479
