# total energy = -340855.37408112927 ev
CRYSTAL
PRIMVEC
9.37345014286322 0.00000000000000 0.00000000000000
0.00000000000000 9.37345014286322 0.00000000000000
0.00000000000000 0.00000000000000 13.71899176694026
PRIMCOORD
 96 1
Ni 0.4281998314123921 7.941599528156717 5.816317772562117 -1.274717980362553 -1.1258151118798416 1.4920304477679143
Ni 2.1974741951349883 4.097706907724951 12.71817763670079 -2.378487939516897 -2.1381553570672787 -0.0849595328615311
Ni 2.3832841004829763 5.602670594505536 0.7345682425170371 2.2719792197296806 -0.5735784053902057 2.034279961137851
Ni 9.132327666993703 6.737326753632506 8.569253259177527 -0.3836900956340682 1.7395289518383525 -0.41329069210932046
Ni 9.28983912587821 3.8488511756418284 12.272612551257843 -0.8125128219407168 1.6867249206634434 3.864190131073938
Ni 4.963082586559484 2.4899258445753967 0.3640666844421589 0.016983679042190107 0.015297549589018817 -0.311946804352495
Ni 5.6788954923660935 7.60114643971681 2.9240112654327772 -1.2118763624459838 -0.7240403908299207 -2.6050802895622875
Ni 0.5526576924949214 4.594752856919712 8.37602051853493 2.047659724878867 -2.262962618053367 -0.17293471262093443
Ni 4.08010356805671 9.21032414696145 1.4682206989395123 1.127413052494581 -0.716580849228082 -0.44607739962203824
Ni 6.323723259031286 4.394620319509386 6.456884368719759 1.232138969349762 -1.9372668395458958 -0.6781888797134449
Ni 0.32893967943325086 5.093598508572567 5.430032261522729 2.4301930812006725 -2.1847051798023602 0.05278834744562522
Ni 4.11577891990832 4.838696901044284 7.9550260583701276 2.4023362068894043 -0.6619377079619051 2.754716693776914
Ni 2.353335926766242 2.395675801782983 9.837011475256064 -0.37391553274580763 0.28587864651053346 -1.3380583922924116
Ni 2.591937104218345 0.8931867058822787 2.709542035784659 1.2657846824286654 0.8532889754168144 1.3386641441972105
Ni 7.0709840906030434 4.000110543174517 12.859634249907044 -0.4869751662776645 3.8625587661181027 2.265651220629124
Ni 0.8351172439127827 2.173206332301616 3.157672634575422 -0.33441258955517894 1.4799938283183545 0.4917360780014176
Ni 6.035208458717961 2.3568041033781952 4.853600687025382 1.0328931296381243 -0.3794405763290949 0.7301184787032006
Ni 4.273927773413402 4.698648180073478 5.357458322555026 0.4765935659330244 -1.072015806671199 -2.050539103309191
Ni 4.144208594676036 4.7329175143797 12.515301490386902 3.239271423538544 0.5955783067000646 0.40725065656282766
Ni 1.9533520554546675 3.3865619801690237 6.358244739150648 -0.34405011264494295 -0.2818677255789274 0.6325343150991235
Ni 3.036229275110201 6.978824327228105 10.534594894914223 1.1249131688908627 -0.10899523365449616 0.42197073638182164
Ni 5.629469288920604 3.4382565585877374 9.110974947204433 1.01035432510566 -0.6317910091751958 0.3857845162692517
Ni 7.047784801104165 6.090802392462545 1.387675577834497 0.8075768180916801 1.2882926337231941 -0.5852514708527597
Ni 7.297437276463007 8.179732033093691 12.007753527473131 -0.28049424227016856 1.345726964581263 1.2272212203331703
P 2.460765040684079 3.6368143563472297 4.270969512497909 0.004453922006295555 -0.8759437367018528 -0.6548427487883366
P 9.380855328316235 8.038052331770237 10.153686932313423 -2.604632917612224 -0.12156844233381645 2.1104596909242233
P 8.298015602461913 5.338386163224372 7.209851756835725 -0.8984252056338204 -1.5647096206001956 -0.364162824234418
P 4.767627400850143 6.970875641371519 8.780634874295975 -0.3361133742963695 0.4249827837352681 0.9461685344563705
P 6.149817635567572 6.050102871248756 12.082659580876117 1.3012661631647267 1.6805072218885058 2.5236598802022665
P 4.820353058802141 2.7900824701645237 7.071179995714368 0.16789535042481407 -1.0353027675208817 -0.7642688993326644
P 4.636877142579494 0.48528226906502675 3.7229779235636107 0.3776348905789238 -0.07437224426398804 -0.05054428860645488
P 6.743166413171011 4.077132184310794 1.5065374890863874 -0.305434457155274 -2.5329140518106827 0.8544562562520381
Ni 8.705217030506471 0.9108715945681511 10.470087747276915 0.7651764987485984 -0.6723833287752614 -1.3023964201144278
Ni 6.510732966018004 0.8509958687253485 6.700095409030668 -0.9544027494407046 0.5003639288797447 1.1477749039803846
Ni 8.556160423794887 4.4786158076707805 3.074370781736418 -1.0507900645232033 -0.517832003757521 -0.06952648613591252
Ni 6.584239563290815 8.779070445440476 4.409298205338192 0.728867637015235 2.0455948719300383 2.9252718504220785
Ni 8.06091417705822 4.832679145950029 9.689861428336025 0.5233765877248341 -2.2802329750980403 1.2227485292737974
Ni 3.437666031218675 0.2702600058490571 12.898500324241649 -1.2320374107748908 0.03265301014833086 -0.3227297539006119
Ni 2.6078344759315155 1.3625622297838318 7.709044226149776 -0.1792603977286461 -0.7931400738410599 -1.6655061204939832
Ni 6.882127813906718 1.5707840548052818 1.9782648116688575 0.49658286457075773 0.16641362367296503 0.14815519168340935
Ni 3.2868284689496026 1.6589601018016256 5.0302883505389016 0.610940905199064 0.5375261397523386 0.365692373505067
Ni 8.053949703483408 7.009091198255126 3.4798906127966944 -1.7291031285193381 0.7245741518462038 -4.240204198219987
Ni 5.642798335250869 0.5504633677790881 12.505793999744997 1.3317820723653968 1.305685632388661 0.4858641926016729
Ni 8.732268808079708 0.35946713237868433 3.417441874845834 -0.2668023466053727 -0.41567076230572286 -0.6259798018100573
Ni 1.7933003915381618 -0.22714963321744402 4.552743864698652 0.71472142742184 0.8774077228418888 -0.06568885755737719
Ni 4.940005151914537 2.949121801448351 2.9498032512853487 0.17359882856749456 -0.2598297719422815 -0.24683310257229746
Ni 2.9485875147811043 3.187048090478668 1.8522556445612515 -1.0368688264564208 1.2885533435837486 0.9186037374642244
Ni 1.6427534062284694 8.732718733694233 9.140881877739835 1.5676558477127132 1.233296737103289 -2.363959406883419
Ni 7.522343843023044 2.0379943116869397 8.75467885306311 2.6509289724652865 1.8368925147911914 -3.129732915786068
Ni 6.4464873376441405 1.0513543062879664 10.146772138025213 -2.340942377162955 -1.1145277118914807 3.6015755972976686
Ni 7.489489899712511 8.79312124744404 8.62971201362915 -0.06301028228394955 0.09711519438745855 1.6837074739933582
Ni 6.413764622637843 5.582555170156205 8.389122727367871 -0.5413226306802935 0.569921782474225 -1.6828222431749276
Ni 4.9148374378521185 6.728975009412909 0.12625662619559383 0.1895990606504928 1.9585360333373174 -0.7976878411127423
Ni 2.225763268148166 6.253347394159537 4.553881801565384 1.2717488704319 1.15778292303569 1.3243238163151385
Ni 2.225257101831827 6.491592380500142 8.368653923942134 0.5293454037137594 -0.0886711773851634 -0.7282261467764941
Ni 4.771629864129344 8.49466121635968 7.23336599426477 -0.2917045091636912 0.5967679561327915 0.28544413007627617
P 6.061585347869413 9.282190390431307 0.8203268766803461 0.9737477296262197 -0.16280250928293896 -0.5252920595799921
P 4.332577451956628 6.02749410911894 3.4607668994893763 -1.5098085976869418 0.6147314825897477 0.031172054727430187
P 3.3853809254308995 0.3550794202920479 10.475260017153879 0.12979468689835064 -0.42742893128291554 0.09564400915857077
P 5.804518473321233 2.9087222306442437 11.770593049332534 -0.4686683975486767 -1.5183767989719268 -1.6494079293805401
P 0.5061175743975954 7.745178877066212 3.571890090171459 2.8873930730984334 0.4716660467244199 -0.2548711423854256
P 2.462602236943384 8.5336547696184 6.846367163657356 0.32485219956025346 0.1805374646688568 -0.4041118538235298
P 0.21362280708579487 5.505430421066599 0.971228178411476 -0.8063378034782565 0.8872043972173366 -0.1798008436131484
P 7.666741844934245 8.383707685128073 6.632295368302068 0.04412115868893047 -0.7949745559466372 -2.2097400112838006
Ni 4.59311250311676 1.4859543295669582 8.896505717556314 -0.3065960815635429 -1.4872998750614643 -0.13102033177533565
Ni 1.4940904844295952 8.853580001895661 11.4298137648221 2.0360277970668936 -2.0637789990382327 0.5825507840921451
Ni 0.3496849996429148 3.324294149809004 1.125876048228546 0.788837589810964 0.6820565901989672 -0.5612085709709431
Ni 8.683001953289363 1.0411934861599728 5.827717762820112 0.2809660397002645 -3.2804183300904985 -1.4186606766265117
Ni 0.9983943120784051 5.624520107160843 10.779738740677523 1.0700250014934152 -0.8489841773938733 -2.3560962020852583
Ni 6.946270334327254 6.750993244173663 10.145866662725982 0.22240016634091375 2.9351986226174867 -0.2171075504834067
Ni 1.282391109345889 6.445493751912068 12.82303186382051 -1.5674154495671329 1.5528015563086999 -0.7176630265486672
Ni 3.7996218146526934 2.354526354954669 11.637477869550546 0.07643195500649418 -0.23063360999429955 0.830622387057234
Ni 5.639283291387402 6.560093555311376 6.011263979920027 0.11066619359901586 1.2923480347394904 -0.10118216536798057
Ni 8.474452057507323 6.3307064795067065 11.754295431291444 0.18714211446956805 -1.0904213057615801 1.106630568531591
Ni 7.946220639155887 6.220324728743557 5.310100839591315 -3.0035989655687563 0.7644509334364835 2.7239845548003796
Ni 5.280345758950814 5.241183483586646 10.484081371233632 -2.45550044961721 -0.9609102115419194 -1.2168637883582463
Ni 9.120779576220928 0.09584821606900315 12.559654782528634 -0.9211254754448137 -0.07082000813635544 2.397636230310574
Ni 5.301707852190387 8.35739641012874 10.943351378363978 -2.1969382315334425 -0.8604088742910472 -1.7256046284477764
Ni 6.189364222394145 5.050461890280108 3.6435032504831493 0.665482745000686 -0.20181874264513633 0.40001171561222726
Ni 1.2099718323081778 1.666243272686728 11.679499047257 0.5660095919040123 1.9496986375513452 1.9968480415436385
Ni 1.4448986172416702 4.97845504505571 2.949061811366415 -0.38799489365700923 -0.7431267180374105 -1.6104492887291557
Ni 9.105322756671978 7.896569472903135 0.5003491530813894 -0.5017135009291037 -1.4952895781351605 0.6548388921335948
Ni 4.733011248882725 4.874915913013442 1.305958775441659 -0.48752255414070234 -0.7407499902751179 1.6684536331580813
Ni 7.742619925133607 1.9494995673803084 12.488631212240977 0.3662834701218466 -1.418639850690905 -0.15710880133227137
Ni 3.9164243788731077 7.975137733339337 5.00075073394542 0.40196703956638513 0.6752693920738048 -0.6716904164732949
Ni 1.4289168844757758 0.14343816060021783 1.021950730033812 -0.4269283374974131 0.16267215435266177 -1.7939795174777489
Ni 2.6770667798663506 7.511301918566607 2.31684977146346 -0.4819617722234732 -0.2093371625093685 0.7308340167129864
Ni 8.708047812497849 3.0653619586506107 6.669899776225947 0.10163596507594753 2.3335923645557872 0.7426816600801919
P 2.66513437763117 4.497878248042577 9.658526921319538 0.3450392160310896 1.3199269727990237 0.45804819883066916
P 8.899987954343722 1.4167970132345438 0.8361398873407939 -0.5271375974291631 -1.736795097846957 -0.18888326553039084
P 0.36670249866724364 3.347362211003646 10.50625145588929 0.232040003423523 -1.296292106988903 -4.415251072087918
P 8.4932833191652 2.6862996284143894 4.4719794048565555 -1.0902307870173287 0.6604454396870948 -0.4249812410733713
P 2.8492570619246935 5.3408888744551595 6.633091174232756 -5.71860754212277 2.4302727853986723 -2.540208271479251
P 2.723680948221067 2.1378590512105973 0.1450906998885622 -0.5703907516908434 -0.7312983579439147 -1.6512701794002593
P 2.950340349987686 7.62849816769973 13.432663261944557 -0.4967260750168413 -0.10251656790868796 0.9693519145513692
P 0.4530076049831929 1.3561132959756588 7.581485627707154 -0.06534484395439713 0.5190558488622932 0.8517403999827718
