# total energy = -340865.71108190314 ev
CRYSTAL
PRIMVEC
9.30452889424522 0.00000000000000 0.00000000000000
0.00000000000000 9.30452889424522 0.00000000000000
0.00000000000000 0.00000000000000 13.61811855292403
PRIMCOORD
 96 1
Ni 3.464345857194031 5.946310272307528 11.46245171398686 -0.6416802432644497 1.3407886467393813 -1.196602724116365
Ni 0.9738491892851645 1.8436179208069736 9.306934826545074 0.18947256237495755 -0.6197325353487649 -1.4675412043772984
Ni 6.337137694790274 5.238645039369054 5.887521468777561 -1.1071992965508675 0.44974842071572224 -0.49588558139341693
Ni 2.007405539080561 2.1862013621076164 6.9721494460195235 -0.3602652889522247 -1.9143999622500514 -0.18994770223916319
Ni 1.5773967463455814 8.824601086350949 7.527755419079789 1.247119244808678 0.6929313281299421 -0.04036940495598208
Ni 0.43008695077585296 5.911650902991553 3.295135559608403 -0.4505171805609467 0.18577145937428652 -1.5044000250768608
Ni 4.963156554346934 2.130727762144705 10.068950602835336 0.7492958229625999 0.1279080113985991 -0.3944493910331013
Ni 2.780407172377902 1.8000727266059628 2.7985100633688176 1.0667447880802468 -0.5141219018957855 -0.8092909725693095
Ni 7.083174803986219 2.224722110823895 5.909323840369828 -0.6554798681517033 0.8234580080983109 -0.5707728176206105
Ni 6.3346440811052585 4.950316304774841 0.7659199565224716 -2.0144148467828082 2.6237686100004103 1.3507326453259705
Ni 8.755040429973437 5.27419764343787 10.84955496651337 -0.6275273488028354 2.187462173722207 1.1666187761597648
Ni 0.8488102806804038 3.1824093337998383 3.48057295520398 -0.040606717777768774 0.713205762108262 -0.011831188306973172
Ni 4.244977204005224 5.823518407377883 4.519703648128826 -0.2773932347473416 -0.3097963336683955 -0.4999975466792614
Ni 8.23388447433395 -0.1550441526772862 1.4187768632983278 -1.675025115728012 2.9476201362102916 1.1144652340846612
Ni 8.262495900010896 4.340748717661421 1.9675188855547294 0.7665468967335637 0.11344324212352076 0.21192832027531244
Ni 4.854181914500302 1.500504121371831 12.77147980065276 1.7663424724867707 2.32095256430459 -1.223799082025499
Ni 1.132872888876932 7.6338633336415205 12.204203157274902 -1.2737800419293162 -0.36418776393508245 -1.0272950667250567
Ni 6.292485261676887 7.3318197237797245 7.609464068095942 0.764076323705884 -1.6588431066515108 3.8905030579368547
Ni 3.775833563661388 0.6262003625736179 0.7759334902829689 -1.6758949199274749 -1.6605091815000241 -0.38316687614074657
Ni 4.343102763416304 1.5328931856910017 5.145047994064305 -0.18576348895448655 -0.0315165825510425 -0.2896985344772559
Ni 1.2884818264448168 6.41037363999458 9.328274763062172 -0.41956829758791614 -0.45021121928475366 0.2619807568470133
Ni 7.797771910787889 1.8325548362118875 3.303264926312126 -0.21346198331101948 -0.01126837382496769 -1.0562050648911874
Ni 1.3446904841730871 1.2145480415898533 0.2562504415328016 0.6413061477544827 -2.05379206302885 0.616497316240919
Ni 8.040517759401173 4.1137833496816665 4.650587661647491 0.5981635509287375 0.3937027426750639 -1.0585128870887577
P 8.901316925279867 2.294310680787433 1.2151965672385305 0.5631250712673657 -0.26023369224891957 0.6815112592184586
P 9.240922917404372 5.970650919322451 0.38232215282053506 -0.2638507201762165 -0.6880259204085247 -0.03686910511220747
P 4.811315950892599 6.93936400877878 6.2207287365319734 -0.946677355771989 -0.8218616101454684 -1.3112191606123804
P 8.64809417737805 1.759439849880362 10.628669177570142 -0.2274148459466858 -0.8811160249314116 2.638067800231902
P 6.588034310523232 5.539032443126623 3.5521089630192857 0.3718637924231015 -2.435305462726574 -0.6306255281121849
P 2.876206599620125 8.203105093475628 10.996344141349816 1.4447337195644794 -1.9496826967117453 1.3250930903809954
P 3.2060242275780784 5.402125608196352 9.141883653277365 -1.0390313813253782 -1.6444248743436518 -0.06871890263295262
P 5.2531507995740485 6.8485983315499634 0.1536708042447928 -1.2452292268748169 -2.3970890995578524 0.026886797088514984
Ni 1.4947446181217405 4.7867612997181395 12.149717698257321 -0.5586240980732186 -0.217537953152606 0.9129357405451696
Ni 1.1510911560234232 5.454463581995643 5.283652905477841 -0.25681258238251253 0.24335517132602605 1.6812374151863108
Ni 6.478743316701637 0.42802227586277514 11.071911801440184 0.6823103580809862 0.2112564910192684 -0.08380973552780405
Ni 6.167953449884936 8.661269389982458 5.9258700837133444 0.04046222178010451 1.4560602003208922 -2.4272453114262587
Ni 5.053466309670654 4.478278956012946 9.832730950635 -0.12194768005010609 1.0333014208201365 1.1333947239993125
Ni 3.8681530971790004 7.290433180231414 2.3147127208140477 0.29617051535484473 -0.671286753276973 -0.019592063199314644
Ni 5.958852776962007 7.45385792188666 3.855493355463211 -1.2259901761395466 1.590298010592261 0.9369788975373025
Ni 3.6867054834794475 3.576437514146931 8.059856291800186 0.7785405787603302 -0.5035659807568102 -0.9890668764817936
Ni 7.657906235738831 0.3761169626468911 7.220707833696347 1.2790670013598682 -1.0210794248326478 0.2980057687913706
Ni 8.211767609672453 8.460235743421126 4.227813139957659 -1.0135085544639255 1.516630762815098 -0.10090114379245202
Ni 4.743774377237655 8.501752550370894 12.522594824019428 0.14503978598287925 -0.34324638579672495 -1.2305466851619775
Ni 8.065751641168937 6.906416672739083 6.158535405959666 0.07842995927312946 1.589921601089449 -1.5586495304490446
Ni 2.8027938683709857 6.590425574392818 7.209146026364258 1.8174516324577603 -0.5706771725830108 0.15809533361525677
Ni 7.161946943752406 3.420642486005538 10.413556848670016 -0.9541541237650084 1.1305659963012658 2.240583993247851
Ni 1.1779812438954147 8.201495410014779 4.151769087999107 0.9194689136779971 -1.208367577961777 0.2663770861424961
Ni 2.406783823416026 3.4071788330121913 10.171794488737728 0.7985561026503085 1.226301022511746 0.0926864691921436
Ni 7.800609792033894 7.100183482404905 2.482378466639554 0.7570271301685866 -1.941640543133559 -1.3778629258838593
Ni 3.579405658794393 4.820480911637896 -0.1659965133811344 1.4170521944888113 -0.7069145297829117 0.5655398513564454
Ni 9.38445457675155 2.7011884152352943 12.523793247312824 -1.8319621673691096 2.1565803965416857 0.19019555658391113
Ni 5.141980290960015 1.322164220249872 2.3169597644891637 2.459713973477925 -1.3066587949352078 2.4373484612985314
Ni 7.392829518304517 7.087668891336452 12.769259740110803 1.6161237134061133 1.1189458955638343 0.6213618434220718
Ni 5.562079760655663 1.6335681859591502 7.622415041559273 -1.0560821661600779 0.04850308980671001 0.16644421980058433
Ni 5.8305061084131315 5.689319190292163 11.91992561446597 -1.1086553122711034 -1.485753356509951 0.37365096623051136
Ni 6.526540680507318 4.01813279489825 8.044916940558915 -0.7842000910389527 -1.0204613316326747 -0.9458304343906614
P 2.512501878226257 4.908790193296398 3.5311374858377347 -0.817330040823702 0.025985111209852023 -0.5662533324837022
P 4.195114234833596 2.7643475558841106 1.2000711254237524 -0.48817304324050764 2.047716032038099 -0.9741771038541545
P 6.720400535459895 0.07853952654930133 13.6435839688721 -0.34963840536599783 2.168751227576265 -3.8997122352399485
P 0.10167337619502195 8.587698481745836 6.056045092146943 -1.0913777561375786 2.7069003456245833 -1.3429766555296356
P 7.224557117209373 5.649142235471657 9.15349942687577 0.3847697018514922 0.17570276228437484 0.37161053876171485
P 5.249447597161227 3.338539324973547 6.0646247980385555 -1.2912404034976084 0.6196199210303006 0.7647486671825604
P 6.225260041996908 0.5716925726872162 4.210286199291752 0.08313944893365682 0.5832277555545118 -1.1561299608132993
P 0.7683298294494078 6.795060073551541 7.102475187817664 -0.8194843681625434 -2.859681209005462 0.8208858764957604
Ni 4.1016967669322835 8.817241204168685 6.843690192673674 -1.4456513462827425 1.304038326593225 2.0672854695295944
Ni 3.211365027037775 1.0096995382715948 11.013803158956392 -0.9537872273438929 -0.1640572076256465 0.025455206848310995
Ni 0.6982834766750385 0.6467419705303639 2.8317923624408294 -0.3309575411270429 0.8574145675494137 -0.5945112988881309
Ni 8.424832011811116 4.929557901299957 6.926406522145376 1.0269052874858056 -1.7011349254411867 0.8781723689220553
Ni 0.5737032813339765 7.984104402042042 0.9648405446216136 2.6092349351606097 -1.8094156495271612 0.1463443637269157
Ni 9.080894328715658 1.4957215936326604 5.172243270476851 2.604327470556663 -0.4147287101074277 0.8211746113807729
Ni 1.93212259756766 5.52963486916444 1.385820222729956 -0.4451515453736592 0.9159544727668353 0.20989509189536756
Ni 5.993335360233149 8.25220509129587 1.510793999633989 -1.1656522984814377 -0.2304004109375709 1.688749664402956
Ni 1.2484723531404693 8.863540538857622 9.845491181260483 -0.47239161203653485 -0.09822308273965664 0.8370221199359906
Ni 8.792463244306015 0.5854055870490644 12.655467215316033 -1.891199355763872 -2.5668700970411535 -0.9718947355778809
Ni 8.73929716745461 7.883727146691508 8.460977314356557 -0.8891352956914622 -0.3397982793471245 0.9369462445271541
Ni 6.410355030937229 7.320254194636166 10.36045962533081 2.01859006120642 0.8424360918627104 -0.11865281134891824
Ni 3.49215709340489 8.442538529880458 4.460533358923167 0.7414228479724263 0.033816691439128854 0.07942754729970837
Ni 1.358572840956828 4.368755348974464 7.507123557194891 1.1377789691099374 0.9090608309707957 0.6546239479093113
Ni 1.9622413568900254 3.2416047452329213 1.025208326667801 0.11029184097873262 0.7902828068979229 -0.36388077421762494
Ni 2.914950657024614 7.439007894120674 0.03235742892167401 0.6423728984561001 -0.18356365308969033 0.35887920723797545
Ni 7.519650244150622 4.108600727209453 12.826837094007228 2.2434052647467295 0.630941516690707 -1.9977461278778754
Ni 7.716143280718345 2.023223237828791 8.824227044298198 -1.1476730882951975 -2.0661246164522735 -1.8130411620948903
Ni 2.9047528935963434 3.911158628716836 5.57898888061752 1.197150626200035 -0.7371321910168723 -0.5322564067129673
Ni 4.414822070446516 7.04571477153894 9.450864719719561 -0.6829605900704754 1.5882107890459292 -0.6995079529061953
Ni 4.417436643004312 4.75145991792356 2.2755062283343896 -0.8005535926963115 0.2932736534230239 -0.03297156983001418
Ni 5.901425225977255 3.292863393705863 3.396167853777688 0.44671529031635326 0.9400223123493165 0.9486409072562632
Ni 6.758046658480683 2.6970944226181053 0.8420858978066708 -0.34166104358747607 -2.306258195517209 0.5488770459887837
Ni 9.089240490937518 3.882565812097241 9.184944081534384 0.6109283067935737 0.6099461453859624 0.08422779690182915
P 2.0892946959530168 1.730958687604872 4.736232126293352 -0.6597175603821348 0.3066418471998138 1.4366941370894548
P 2.971931590632945 0.8473271388095402 8.73923668801822 -0.2158965608944411 0.8896739418037516 -0.4301843825408656
P 2.028238378784848 2.5091894660178045 12.126362400829125 2.042545543580754 0.8033458107294681 0.37219289362774605
P 5.645746082505125 3.4080906768223835 12.087646257010663 -0.3539334331969259 0.3893490936920585 -0.7593087271139116
P 5.637297570467835 9.113032170760592 8.80000084298598 0.9032118283891863 -0.11935935049763959 0.846499977519439
P 9.040894159939986 2.7831520083371535 7.315979694162674 0.3774446289449887 -0.41991822472816714 -1.8485694369084873
P 8.707475679384642 7.774557111742691 10.76151365528072 -0.13800164818917524 -0.4462200958474896 0.18766147730814778
P 2.4635786664508483 8.854189487538816 1.9655165509837766 -1.3901538274360703 -0.5485988526267327 0.6573413468404744
