# total energy = -340866.1085682473 ev
CRYSTAL
PRIMVEC
9.26630379275425 0.00000000000000 0.00000000000000

0.00000000000000 9.26630379275425 0.00000000000000

0.00000000000000 0.00000000000000 13.56217225303674

PRIMCOORD
 96 1
Ni 4.975411968176284 8.121257162598098 7.163891404342231 1.015689107055012 -0.1875997708322769 -1.693478694447509
Ni 0.4701611230591781 2.3492303436907274 2.545931729136402 -0.8007094015478855 -1.3156638266472955 -0.630513685124669
Ni 7.28306440779426 3.816419784132717 9.313712748687117 -0.5376894048030805 -0.11562585159713636 1.8583437426864318
Ni 4.228705428418195 8.97091233490539 1.069571428061294 1.4398985029593652 0.12380041698812874 -1.1600012708432474
Ni 0.36503954232520636 4.6033976791616285 3.5308712268951195 -0.1450960931421114 0.20680565433676643 0.5921993629255028
Ni 1.0362599933942258 6.2563579733701715 1.8987582624353787 -1.372811479502881 -0.48476941687559744 0.35233215014807706
Ni 1.076095832397738 3.69088916980832 0.5125405623898511 -1.1110788341109314 -0.05365609476255921 0.2346535297869701
Ni 1.419430911894862 0.6568715800066937 9.83327994906635 -0.942164812613616 0.22867545782666424 -0.3623890201634469
Ni 4.106557014893119 0.7697731492094603 8.171289642038797 -0.8590330769894431 -1.8804755415884646 -0.20260215777838012
Ni 1.236467748106923 7.381574480938325 9.423282155129783 0.6358633794723565 0.12712922425104556 0.21242300052354388
Ni 1.8346076428909925 5.587590312853427 12.856355887624584 0.9896271198606377 2.3458390431336245 -0.10987609359755271
Ni 2.2132473389508944 7.8524324300252 0.7632746905229836 -0.15483286081390107 0.4740610293191578 -3.093248190596473
Ni 6.314355767350861 4.109689025496326 1.35562036569112 -0.30710181755536786 -0.9177179924251613 -0.44808697385289925
Ni 8.279720219773969 2.256576574396445 0.6193912353680786 -1.2523879494067849 0.027545513718436433 -0.07646820756106831
Ni 8.124324309076387 1.3645002643924613 9.757956020689578 -0.03383571760252237 0.6425940133279707 1.3238617890770557
Ni 5.957603080299169 8.036757740436427 10.629840128606434 -0.07973967922348849 -0.7342610401166645 0.9278800205598279
Ni 9.041030453942279 6.2198394710410625 5.6804210685457015 0.21020208161282508 -1.0780483860185242 -1.4485903743064086
Ni 2.7388413431654133 2.627275048305612 7.695216617308477 -1.1618041283799412 1.0495335664082828 -1.0601681633039934
Ni 6.619485877270995 1.0718148001531178 3.77104362223081 0.6086292263467518 -0.017378857598079746 1.4450342815240338
Ni 6.443880158509524 6.505399147842932 8.914877144018664 -0.8394050183458706 -1.5055480226383746 -0.7870607004161992
Ni 6.788021406416349 8.920837230468317 8.407149499697764 0.09907668898920355 -0.2574180771769954 -0.01777455037460165
Ni 6.806730073303553 8.993744506876698 0.3349249823862637 -0.03815542802379881 0.6315012458489188 -1.3603244027794639
Ni 2.7288337353208463 3.933342002450074 11.4885429197095 -0.7846173810820294 -0.9233883033370615 0.4216817443864931
Ni 4.91458795160986 0.5960799955027295 12.32709242720039 1.276417479552163 0.3788947311279539 0.08830273830215114
P 5.277382268582532 8.707462058397168 4.589018229297555 1.0103954627562406 -1.4171460397541982 0.3547556719879052
P 9.041262111531273 1.4186062108780413 4.480900852622705 -1.4655372865733922 -1.0940974690615868 -0.9255454588893802
P 5.860835072224343 2.199199622754261 0.1776804441285059 1.3143613057857881 -0.255701865816837 -0.9466668142490278
P 8.807000691236368 0.5364707913329938 7.9729434877112615 0.2928100835230441 -0.7787750633686394 0.8377808524788862
P 2.382412976738314 8.257703482515922 7.1769661586650875 0.49553282603968857 0.3951533590786614 0.20274151156972184
P 2.9036610845832946 1.1111502587644018 6.261343244685335 1.9025782870247747 0.20403914733522277 -1.198224318880188
P 5.08297521989826 6.9577152235066775 1.5764261865868614 -0.6594771622365546 -0.5812919719843795 -2.6074773290395545
P 2.652377464649067 1.5700639425627139 11.809885354337831 -0.6448406432703024 -0.3925616870920852 0.3261596055177673
Ni 5.2173551541222505 2.5626981787974756 8.726810100229995 1.3080747014461278 1.0048339095080632 0.114687398943267
Ni 4.971853707609328 3.8164568493469564 10.781018017923603 0.2256464411923533 -0.9771804094568526 -0.14199534272960063
Ni 1.7998312056311225 2.174616119410154 4.515429879577529 1.0651388770457078 1.6463596294725196 0.19436511458056846
Ni 7.439655671651053 7.053130351261776 4.000298458712363 2.169941134119308 2.2332563492381863 -1.1470691361626117
Ni 3.66687091098136 1.8950795399221443 0.27715699273385713 -1.3963995512354659 1.1546191805957278 -0.8610750471201364
Ni 8.82967533604716 8.829184221958492 3.1980552551990624 -1.344749431159342 0.14719668442488199 0.9019949252629498
Ni 0.2491792423958007 2.5888476874431867 12.073194783031948 1.2193503022255259 -0.4312261935418186 -1.3406708902145943
Ni 7.1669668904937245 1.7776384086054395 7.42336365673224 -0.5601978703182416 1.5534972968241438 -1.0292462769141564
Ni 2.583343503128675 5.259785558122502 4.760471717433886 -0.01173348638684431 -1.0821685788344846 -0.17012989618228763
Ni 0.07737178146348603 7.890970986530342 7.132902105347245 0.29425530061000293 1.347138500216809 1.483443991650484
Ni 7.7329156467111035 8.950563532288104 5.650787429761511 -0.5320805432567353 0.23313272226706944 0.28360450576437607
Ni 3.2560493426583275 5.725324648966059 1.4885028652598493 0.7521083527107305 1.1300615458610217 1.312347874900185
Ni 6.078074292879924 8.52135761770246 2.4655215267356625 1.206788149289799 0.6811780442487558 1.2352191509369825
Ni 4.379116067800612 3.93822534442608 6.522740108324712 0.1543039848936246 -0.15272532755259505 0.7577382973029982
Ni 4.164054428481581 6.063072147416633 10.739843198055702 0.06806095733397956 -0.38399065759362255 0.8521828868368292
Ni 0.15930258427838592 2.849638534829753 8.069302851799101 0.658780393279846 -0.13507213324720607 1.1489678958472211
Ni 1.7683721050456553 6.224278030446198 7.412554513629752 1.4546450651409206 -0.35860589897193074 -0.11662858183003785
Ni 8.76015952674166 5.517351731870263 8.661480806872806 1.685900110769303 0.9143817289630768 -0.2996690154264065
Ni 7.24961305194344 6.686073534651604 12.526388377642805 -0.4996638174889266 -0.2535187421225892 -0.6119472349763911
Ni 0.8389405455011134 8.451471156254568 11.805056683552829 0.7051013878335728 1.3116207669261732 -1.1332430289127966
Ni 2.7484968314747085 4.634041345033835 9.09689421821315 -0.8680674192775695 -0.47138862469331716 0.6258617881749544
Ni 1.489808487431423 9.092532569127558 4.474920380305221 -0.08685392167076654 -1.1033452129120997 0.5627563750740373
Ni 7.413867548844174 6.580780527301776 1.3921296017166698 -0.5456641954784409 -0.1254631494025323 0.23153401032138188
Ni 7.890090687692163 4.243040400025181 12.500022964124152 -0.2043787900628287 0.9958034238746786 0.4735666061812425
P 2.520110247636708 7.4735332774656245 11.19269764595627 1.8913255969290914 -1.322330954254826 -0.500594299722996
P 6.239530366105604 3.0288395793724194 5.671686650810249 -0.030986678189501477 0.23026259980812602 0.4513065092314615
P 7.174889580037339 6.8551279767963065 6.62860669986489 -0.8602371245998732 0.08493485027118275 0.3663870855792464
P 6.460272249506782 5.2190879528879295 11.12249983670877 0.1970408616405187 0.46130090144001196 -0.6651472160381383
P 8.726420915480485 0.2351343060902358 1.2846349206410375 -1.1018753132347927 0.7965128469680347 -0.35931500922381343
P 4.374427318199362 4.6436319692182115 3.193728818066999 -0.40580132571081085 -0.9202667269889442 0.8202904090036066
P 0.8309641113968512 7.092178554462706 3.911290053238499 0.8845199084066379 -0.8056731733110641 -0.14515702828703386
P 9.103846725774055 5.610617077199491 13.571936913725358 -0.3556866684426068 -0.9254762962143417 0.2937603632514554
Ni 7.584719653879475 3.194409891378643 3.9768083791883098 0.29767126827008733 -1.8652723514854652 -1.8107418245377522
Ni 4.27659368521516 2.7077806936330164 4.451105053526219 0.7020325191002619 2.216318692942583 -0.5123486120454467
Ni 2.9179682572796013 8.031429615889552 2.8054299271763785 -0.13844850591860672 -1.3071295639240392 1.511450504165739
Ni 3.7408716112097964 7.3167381549305155 8.83034343653382 -1.3809078833577701 0.6563674129629793 0.24019837086459922
Ni 7.141438224186518 2.2370061412781808 11.918653225522577 -1.5016725988433688 -2.033835674511581 -0.4189412055268785
Ni 8.253403917664182 7.485913059021496 9.967070546383939 0.29106636135906 1.200373246902391 1.0114832965037805
Ni 3.7409550079418348 0.002470396529038465 10.43613175921057 -0.39596068547130514 -1.0517177185437951 0.15654650107089813
Ni 4.845748582464225 5.063126797673202 13.284364595790304 1.6117088721678696 0.8428716367382322 -1.498524283022374
Ni 3.204556493776607 7.426877439042111 5.272171826090865 -0.40939521370965626 1.378464306913284 -0.2200463213967565
Ni 9.169174165870533 7.70126195375088 0.10391881453191176 0.04836116491220704 0.7096185589776359 1.4952088454958958
Ni 9.096276155765711 3.2261377147673445 5.653785078963102 0.21108551265904293 -0.9043364289119328 -1.0229954109084383
Ni 4.877124286317654 6.127510022371372 6.027463596097095 1.225587027163857 -0.9773634720019362 0.6070407988137094
Ni 1.1558601734403604 0.855831163629888 0.30496887623819335 1.753796003280328 0.45789727507510175 -0.6399879431636913
Ni 2.44099454784327 3.5260138305690805 2.508201194301673 1.5732834783121357 0.37930970717818546 0.16996997356565569
Ni 3.6228374364652653 0.6347278943898774 4.030298116487163 0.262603992253309 -0.20642821639268963 -0.10436750507449769
Ni 7.734935700887136 4.2824499890649435 7.099458162539272 -2.3337101210805744 0.6108154353647932 -1.259923852772514
Ni 4.848676734389116 7.411365646883032 12.70760576984008 -0.7185937658930528 0.26519437868830453 0.8729998235821803
Ni 5.2538736564513595 6.626000088673523 3.7073285189537333 -2.4367306252088743 -0.4469960547815656 0.48252073005073676
Ni 0.8243627967408609 1.0399201833003406 6.406472091038676 -1.033574214865549 -0.26870367739314366 0.6532998297812491
Ni 5.202649530372873 1.872766280950184 2.133369949004843 -0.5353260467772264 -0.13347239286025397 0.8149877658437706
Ni 0.20118905625967837 5.574450694405653 10.939831341374031 0.3182128398668649 -0.5921091172045415 0.44506438497649153
Ni 3.2096992922522873 2.1897016616054827 9.797421207550697 -0.1253011699033713 1.3874189450034105 1.8275419268142266
Ni 6.847668602430681 5.182421189701863 4.780081995657458 -1.3470793648440993 -1.6905700054411468 2.428204075795102
Ni 5.2052718942802905 0.9952288012315015 6.061449617663315 0.2815825902383408 0.9341933643723652 -0.24369841359805772
P 0.7836587050937969 4.618056971393207 6.7059108373123895 0.8789210741626219 -0.6965900079284519 1.3357659967138091
P 8.022941681828788 8.677624560934662 12.024546689343081 -1.4040845785845495 0.6374266101944184 -1.2669396219687148
P 7.61755016739179 4.945407677249704 2.7281396891842187 1.2429926242348142 0.6606480426162041 1.286017207425456
P 3.193881712075736 4.057964519025612 0.3001466918656817 -1.436116924429746 -1.855519128753443 -0.9176758263333163
P 4.548328037105831 5.370851472590075 8.32562734086985 0.6839959733135252 -0.4485708554678533 -0.9246995659493171
P 2.7333556914580215 0.9167876883372164 1.9936526239304166 -0.9661341789450201 0.3340876021155924 0.8580257187708513
P 0.7345167174251934 3.4950458440722816 10.127511032739466 0.07382768461442768 0.5127869851344459 0.13144662067947682
P 5.985198132300207 0.7933355059012795 10.173053061475093 -0.5310608437429692 1.9727156672718087 -0.12466327920905627
