# total energy = -381170.04358551477 ev
CRYSTAL
PRIMVEC
9.18314509383485 0.00000000000000 0.00000000000000
0.00000000000000 9.18314509383485 0.00000000000000
0.00000000000000 0.00000000000000 13.44046109135365
PRIMCOORD
 96 1
Ni 2.8116494047671345 2.9521331561972897 7.28994503138898 0.5211476983943154 -1.9886840176756073 1.0885166325396995
Ni 3.9849339191790656 0.5266331599075845 3.35026381388971 -1.3376403309183866 1.9448554505264313 0.7794602623611222
Ni 8.26230508925977 6.684521406133272 8.970701155457864 0.7435190683798227 0.9518794687982186 -0.9327278355704323
Ni 8.515429296634643 4.188450777539315 13.286903253955513 0.902233523636317 0.4591689426986737 -1.657581466330268
Ni 5.633317620673654 3.8103256011183415 13.146047585154921 -0.43223226620882976 0.8284474908931022 -0.8600216661549577
Ni 1.796122137434471 3.8465714742321353 13.358030384843675 -1.6810772354593628 1.4497118895053613 1.8697316728083992
Ni 1.3741290775920143 6.799531113474837 9.383780136498304 -0.12428172749992146 -0.03056013217504414 1.3922767873163442
Ni 6.357068823541009 1.450441012118396 3.129301735069802 0.5390631452221556 0.1641255989697367 0.15334753451762623
Ni 6.75269707423482 2.998508038189856 10.73185846849893 0.4129075977382889 -1.264623058020396 0.315483870971476
Ni 7.333521809115578 0.03268281287357307 7.302243099104712 0.21517125269264234 -0.03447206563494063 -0.7899845589312137
Ni 7.433076283507938 2.7818868319873507 5.924958692908213 0.34624352075183595 -0.2472781605295161 0.3063286868347692
Ni 3.1103771099588546 8.628143217738952 1.4528332213776165 -1.9038088169977663 -0.5080150176670992 1.33054460041387
Ni 7.741244261707253 0.86389609624889 0.8989463238903213 0.06723820432236807 -0.22650004744190025 0.6637809318182311
Ni 2.3261640807471324 6.711740247762176 0.04426735022676565 0.783218958072606 -0.7028462732508088 -1.2113264034797848
Ni 1.9902997373815636 2.6705962983501403 11.666199387966271 1.923584714073113 -1.488353256026643 -3.1904384611962406
Ni 6.941879043329643 8.072875175251323 13.257791766152616 -0.2628387339719344 0.18289645181933661 0.15637577982098877
Ni 4.766887894733328 8.992934467693944 7.580836758995699 0.2408041227693982 0.24682590348344585 0.27517822937389386
Ni 1.7727326672493091 6.6558699938923205 5.923923752472457 -0.4468639000790756 0.7763975642753984 -0.4834712668894641
Ni 0.9018307497188094 1.4956220852675894 5.063088398435077 0.0010484958691723877 -0.5190764176875834 0.08869817396835693
Ni 0.6214013791525126 7.3238519574842575 1.4081434464831957 0.15333622166371655 1.998479920720107 2.14722723746156
Ni 5.106728539861824 3.338266035013811 5.150679989902343 -0.7716999016894128 0.19328396570124776 -1.0116157083165869
Ni 3.8608145320480705 6.160246477848597 9.287681279550261 -1.2293904600703474 1.1256089094063066 2.7162054250755934
Ni 1.8031564264654225 8.363861489251017 4.112525453415287 0.4500153012238637 -0.1867893591158396 -1.0771634123104095
Ni 2.9322791968175017 7.703253591053145 7.9503279425356 -0.45382104812319907 0.23424446727400947 -1.0808364902866225
P 0.6058460499233624 7.8750702330493665 7.597475699328833 -0.11455961511615109 -0.8092989429891094 -1.9648365216340484
Ni 4.524563065818508 4.65003237525701 7.936403539849396 0.35566918494111005 -2.0602015660996194 -0.7125614436560437
P 2.4514221778518075 6.726828154913422 2.7881965708818246 -1.1398289096604306 0.8558991593461518 -0.8968385778729909
Ni 0.33622248601858123 3.0627900528330176 7.342967592010144 0.9807002496846529 -1.58502493511878 -1.8097185254795607
P 1.233030055450275 0.67486473073123 1.394474335226575 -1.6038189278968313 -0.41708872569917205 1.0467894280042425
P 6.835161715877046 4.1340130942815065 3.554720107978244 -1.6465694314904806 -1.778029679016712 -1.6466398797170998
P 1.0616817538464538 2.3933847017739818 9.238798480672116 0.8801804004910195 -1.420155001783851 0.8320483208704831
Ni 3.5020290588897396 4.830637286969446 12.180551928133527 0.5753753493896284 0.5020989092929804 -0.9794195832000164
Ni 8.02299233188823 5.132505627733732 4.899531995320502 0.549177607948338 -0.8614550561673744 1.1328347377307844
Ni 5.39807299651453 1.5555329229150159 0.2513178827633987 0.8115121485903444 -1.4828811771684784 -0.5615829235912264
Ni 5.540090333151171 1.3335028443375363 9.449114539552623 0.49733671201764673 0.6041161689677467 -0.9094048445737758
Ni 3.28328654620401 4.613244696591224 1.5054664166529421 0.0315759750340682 0.2765864225753301 -0.24829066095443045
Ni 1.0095031242461048 5.172332927377646 3.800975322931246 1.2604974658877968 -0.7626624740774931 1.7044891866254002
Ni 5.762212243178141 5.159853033391923 1.69085023699685 -0.41563708085431 -1.9277997805957252 0.5944696470169182
Ni 1.6244156931776377 9.111764363334302 11.117693813419102 1.059821321487536 -0.11927424698300103 -0.3222782681854901
Ni 5.3823147197820065 8.867327411081206 1.6006515506785557 1.6465776590205967 0.36363909052046406 -0.471532092249717
Ni 2.7386709518572485 3.773978713410108 9.684012959147168 1.0509510155810997 0.8810820863696827 0.19653898230343572
Ni 3.801537331402126 8.100993965085232 5.287745774782472 -2.6757545161493983 2.7056687872103273 -0.16248394960125565
Ni 8.251542443379517 0.7724806432248502 11.176778168021118 -0.3035500956483675 1.5405517924070695 0.1880160324340891
Ni 8.653075456275548 6.580972263688088 12.950610057720823 -0.5568577502014151 -1.1658291903789342 0.05430735519331293
Ni 9.072855378185292 3.0733139369445976 11.06460421583981 -0.78459475537421 1.2093433116114851 -1.6541508433821641
Ni 4.32967836371034 6.218890041493058 6.244693760485318 -0.7378274173116841 -1.5917290866118328 0.9452020567780431
Ni 2.191263681445984 3.0329723811835394 3.6003226874805976 0.959270361945651 -0.5421307284038858 0.5539254070459686
Ni 8.772291044003767 7.83434298520045 10.951596434097132 0.1071088152650607 -2.043076219273243 0.11230218654054208
Ni 7.294162849864065 3.2165801812943067 1.422201923085655 -0.7746800673636594 -0.3776994252682721 2.0496605573589797
Ni 5.6510227241353705 1.0147007842872517 5.756078820666689 -0.2398474152830837 -0.16831495446073594 -0.11933981011361382
Ni 2.5101300235109116 0.7496265503902165 13.204298110195566 0.516004206520163 0.9995603198139495 -1.7067427585462671
Ni 8.662341249529113 6.790513265134896 3.6243549778121906 -0.15579136807242847 1.9349664735474934 -0.3393377947709382
Ni 0.2741774854850018 1.8431949384431632 12.843193892937608 0.17740560390809448 -0.6374158115611409 2.6645025973846628
Ni 2.1258245905392457 5.232491709938695 7.718372720897216 1.670062372406098 0.306384222663053 1.1371480203941577
Ni 0.8681387092153386 5.549457140999175 11.612786543684773 2.5200125132576665 -0.7727460835657401 -0.7467026083141268
Ni 2.7916485150681627 4.42330970961058 5.772180547020306 -0.5023691322352316 -0.15868488757013963 -1.9892082656101935
P 0.38776380535946803 3.5918218502012866 5.199979703561174 1.0023461100892028 0.38778920540410633 0.6737267301770333
Ni 5.517766107780097 6.220754219917709 12.858838298672762 -0.5571462279761115 -0.5905937090012796 0.7025395406436674
P 3.6145501339501185 2.6842057191645927 0.030871896689625714 0.03448235004758577 1.153546002136207 0.5086408241765562
Ni 3.2107213348168298 1.4489625257816032 9.150722937466037 -0.899407881262064 -0.8366099720992365 0.42465728207504927
P 7.576930249134384 0.8112500445706358 4.872516101194971 1.8631506771567719 -0.09036887680256049 -0.17293676950346346
P 3.5534271211694213 1.4395222527740075 5.450537221922794 -1.5123735302006405 0.39575011212239586 -0.03206962684103509
P 5.835952897118797 2.9194227938888693 7.961860135962583 1.1322199869649212 0.06421715810785715 -0.20746977028332655
Ni 0.2189280122136995 8.67063362941808 13.050687971375277 0.6354347765753702 1.242844528692724 0.19101959514710326
Ni 0.7530683931171104 2.7832183880049595 1.7782802051130138 0.5182004428405333 -0.8809159931054636 -1.7016231779315145
Ni 2.094868208916089 0.5779954079219654 7.071617596854947 0.24306437955848464 0.02716344778866935 -0.8963348987636949
Ni 0.4938539240120467 0.2314712698995701 9.002877977044745 -0.42942719265986695 0.4028615263561965 0.7324550972561773
Ni 7.207749455893758 8.746569055001553 9.568626742862694 -1.4209461302265785 -0.19263964724902952 -0.353159788255695
Ni 7.307891651562855 4.689372968218625 8.67096514095074 -1.1880116400132443 -1.8891519863165398 -0.6048278503227906
Ni 9.046297722992717 8.393559780016158 5.455993846651503 0.1836533845900192 0.7837110672176761 0.7388437743913405
Ni 4.336372876378178 8.570518983183831 10.062026101199764 -1.2516410439384316 -1.1183946510460547 -0.16451923486372957
Ni 7.725669647873711 6.848422177183435 6.555853607309026 -1.367787543925728 0.8969979862689907 0.056604892978237994
Ni 8.006967743952185 1.9822736686961173 8.615631182745908 -1.6689516558404225 0.13870124535936112 1.0872405940407535
Ni 4.406697400397797 6.825400032796235 1.8883447888995297 -0.3595518078249679 -0.38304757695406294 0.2721481842983184
Ni 8.606654658558238 2.671441147685451 3.4424377946865388 -1.557335953843944 -0.17719477344886903 1.7255629765765639
Ni 5.213014259501817 4.415430571244317 10.172775747599477 -0.6352332020875253 1.0417973741062898 0.5406081211117721
Ni 5.709804034954067 5.871418202911923 4.139057395802005 -0.08041562224459053 0.3178711402567299 0.12667722431529152
Ni 5.694440633454351 8.385285766417088 3.905824798701212 1.5734611415405804 -0.057976062294151774 -2.8144616750460303
Ni 4.144582894117831 1.7103148310307994 11.531297152036132 0.11532040454157558 0.343944183194698 -0.6900820316066051
Ni 4.599185301674269 2.676023537015013 2.2042486484039028 -0.5728443554376587 0.8788058887409962 0.06705822710107806
Ni 6.321888195241301 4.895901898122153 6.5145781257066515 0.23493583691407927 0.21926444892540947 0.04530155215027682
Ni 5.8567159878485375 0.165202941003935 11.544589754349841 1.9057183753156532 0.3286556324667436 0.4900625469537367
Ni -0.0038780421119724373 5.224089132310339 7.088176643827024 -0.9467179792019373 0.9017612119855889 -1.3327038128487176
Ni 4.236102116679795 8.305025079562625 12.77988896491702 -0.39834538365339783 -0.5091406466311102 -0.15077180337065
Ni 0.49178679808402165 4.450767313008159 9.179337617127192 -0.7641079482747679 1.0786811345065164 1.7066828518426091
Ni 7.954779931206887 5.231150970776138 10.842541077940513 -1.2571953980977575 0.17445217770672536 0.7353707282410755
Ni 8.98168511513139 9.122104584546902 3.107017915536502 -0.7847112263474164 1.3757289102599919 -0.7368887075474987
Ni 3.4096466207025675 5.192324633931668 3.784443825394015 1.7193226520938065 0.16298145806296446 -0.05524683628844679
P 6.356223974205698 6.7131911846641215 11.027884492446647 0.3180446897201168 0.9538008541906475 -1.3852476483837046
Ni 0.6083714147843438 5.11457094564829 1.6713883979063857 3.22032419301208 -1.4536287080612642 -1.115982442060136
P 7.314696361970081 2.417830233628281 12.718116703788427 -0.21337302314163897 -0.8414652433090088 -0.019435225906476207
Ni 7.85576726236652 5.8040782010007375 1.5072268255396697 -2.400867335653362 0.9497531664838355 0.05371343036305588
P 5.731889498556468 7.7098746385613905 5.740246160460078 3.208490690712261 -1.3546011271424412 4.320341627102527
P 7.181660141093584 7.674198120434435 2.3328475736410317 -0.45077197688423015 1.0167473731161973 -0.600897662030449
P 2.6695769692607993 6.981265552016003 11.16626805862696 0.7140161738246993 0.27455499396759814 0.7708596651763046
Ni 5.9807619098199405 6.883933398701308 8.379629867442985 -0.5584520912717286 0.006220784098731222 0.10538951858110883
