# total energy = -340871.0240293634 ev
CRYSTAL
PRIMVEC
9.22024510838576 0.00000000000000 0.00000000000000
0.00000000000000 9.22024510838576 0.00000000000000
0.00000000000000 0.00000000000000 13.49476071278123
PRIMCOORD
 96 1
Ni 5.8429983614278065 0.3169025878894614 10.612536148952591 1.0165964493606299 -0.8165468828007744 -0.3318391724010478
Ni 2.8860012373332973 4.546733332353533 4.3155301559808805 -0.24750955981403183 -0.4399707725036681 1.439712097980172
Ni 0.22479787214758584 5.181648625634541 1.0074380873131088 -0.745033191031504 -0.7997172128379454 -0.5771303844075222
Ni 5.24897485487225 2.741400134466275 0.49584357136082857 -0.5694026767459613 0.7173200413869517 0.35737973987431354
Ni 8.020027297367623 0.5711305601608276 1.3369207775268555 2.312352481340404 -0.36168659477978354 0.24113836618036535
Ni 2.7647826758723055 7.984261966881034 12.424316142167568 -0.8775707307823145 -0.571305807305945 0.2731010351298909
Ni 8.367473790980963 3.0257063900873065 2.064887705714722 -0.43697492310013775 0.4132634384158108 -0.16478688670281944
Ni 7.451746714946781 0.4655827271594916 5.91944986717559 -1.2911884672137506 -0.39490627606486184 1.9631403648785481
Ni 8.071808193478137 5.921084616620104 3.5923319385245596 -0.11886826979383398 -0.19509505076805755 -0.667845845916224
Ni 6.944430392690241 7.729239209487743 4.562484276944985 -0.934766463267016 0.05695533433912127 -0.40323922141058943
Ni 2.6863644918587855 1.6074206382340899 12.440576966309397 0.3206294197281575 -0.4957827372669654 0.47280967341055985
Ni 6.912500684137764 8.706114950586906 8.422417231138112 0.1394139551556696 0.8855231528601717 0.3550824591997046
Ni 8.45810879966443 5.186387831581977 5.837752042003504 0.3744207545170003 -0.29715653341719794 0.4848383224403198
Ni 9.03425425109921 4.215708095145611 8.086465617008566 -1.2925616934121933 0.01318975921739664 -0.15904767022619706
Ni 2.442544332181712 1.1521433789490145 7.798297922767327 -1.742181558969851 1.4697572381920108 -0.7249940129924417
Ni 4.736384552456306 2.624395224985786 8.849364365531954 1.2070465451575083 -1.4951296555185283 0.14731881182504306
Ni 0.9978056973261689 5.7191335896420785 3.01398745864919 2.3304851863853737 -0.09164260130866153 -1.0653389088716556
Ni 0.9561670707529702 1.3854708997774832 2.7071699747778344 0.6214394907375427 0.2628356486481409 0.7320272656901393
Ni 5.78952094023105 0.3521746352667358 1.8070564616840983 -0.220717122211536 0.3006452632967468 1.1580462039994055
Ni 3.6252897043983188 5.973805977724079 2.6168097293963766 -1.4477267407545327 0.6508097163695437 -1.7512907203599708
Ni 5.600321512134939 0.6213089776844462 4.277811977596106 1.0148378147983101 0.3297154411898257 -0.45778980296295996
Ni 0.07258453498055609 7.897508681356848 5.057809670534907 0.44165535929494265 -1.384334649651132 -2.6128625046108676
Ni 7.50130553200412 2.110421885814753 13.350839203111972 -0.2456550231037963 1.8031401009310946 -0.538220337605886
Ni 5.606554397777872 7.680998887470255 6.6558994207946665 -0.6161892980821968 0.4067022402585254 -0.08387709843062975
P 7.745236334621601 6.997087212078979 7.258076390033721 -0.13982224633768175 0.06778944884014776 -1.295023010468492
P 3.705072484676859 0.9629162901178023 1.354617193820465 0.1760640022785355 0.999343061596821 0.43798459531157474
P 3.9018878351709905 -0.061022347708016 11.17862784520238 -1.3478044159355822 0.852868342939628 -0.4866339808881619
P 5.543976594732633 1.2691021872043342 7.298074735015384 0.7137590635085707 -0.7002052360835361 -0.31788810953759444
P 1.3953273417187473 3.542270618112872 2.1145212067568355 0.3180063802830136 0.3960416752208857 0.29784841727789996
P 5.942374162403434 2.3109898760376915 11.306949683437507 0.46985136211318435 1.6656686142137767 1.0708948056928784
P 2.3983793584692186 3.487281076730552 8.724619060345487 1.3873708653742944 -2.519682126501441 0.7627054115002864
P 0.44908586474479567 0.6734319448857193 8.792835043228969 -1.9414140289450497 2.047974942126441 0.47680825304699176
Ni 2.893654040711454 8.308980556485754 6.651311426865785 -1.1440195507030104 -0.5783840543089652 1.239409534869246
Ni 6.333911867768997 5.324590084395457 6.7575692187347345 -1.7460071033635285 2.0555229296770277 1.0379823712355738
Ni 4.140609199344304 8.163992203327304 4.660968480225832 0.6344659849041976 -2.412464553572658 -0.24030198632199906
Ni 0.2720958851226067 8.808330587032982 6.923622143697683 -0.1403043281804229 2.695893710101435 2.440995314022499
Ni 5.455978576128867 4.431351185999015 10.394258834092996 -1.023654898869308 -0.8595827788453262 0.07609308360983669
Ni 1.1310474583113976 0.4807389659462551 11.025988532714782 1.7985496533469347 1.2541036465463111 -0.9337382791128176
Ni 6.027965697053346 2.760430720216293 2.81010847843457 0.7213931830150608 -0.1315677196383734 0.061992639652712594
Ni 3.6735669073959425 0.9842427168812673 5.685976666475585 0.7520607873022467 1.0430037357095652 0.0952424028447779
Ni 4.620449191399752 7.805407653712986 0.7392838569425044 -0.8213815851852564 0.48183913060267985 0.6771126159301306
Ni 2.902662220109597 1.7430781034182066 10.032032287690276 -0.20734404333873965 -0.20894764038043367 0.635280767496009
Ni 6.3978634873242894 4.432263990257373 12.54008738286252 0.2688240050210919 -0.2680462463148029 -2.1212986905212565
Ni 7.658326304931838 5.077690362877052 10.406511617718577 1.1816751562722552 0.33812731940260476 -0.6176118894613363
Ni 2.9499897378687265 8.425810281310598 2.6458101661015765 0.8570646404091625 0.11535691420646585 -0.39655923828725254
Ni 4.855611540989971 5.647750452589443 0.4897535995159222 -0.7596522264962594 -2.6205938118168546 0.2371960937031657
Ni 3.6139856839867286 6.180459329669406 10.462123525640687 -1.1552524433043525 0.5971772757560683 -0.38717368330729446
Ni 6.437962332976823 4.422084839739921 4.637811834823133 -0.5790353147397189 -0.4596811064484018 -1.100351934611731
Ni 0.495672996827701 2.6892965297795737 9.833119331450929 0.5278081411336264 -0.21164986980294517 -0.2101529735424445
Ni 3.0183762952853375 3.73242895169251 0.05293250471525151 0.982531903576753 -0.30724734199429665 0.6625118352978202
Ni 5.96823694972359 6.285311956195185 2.5057878369184006 0.749979993513818 0.24902368246571305 -0.3683030716550367
Ni 1.650811111363734 5.31985087844802 8.99589065556206 -0.12716984768099387 2.456814540442943 1.1574142268423615
Ni 0.8894945568881659 2.949648588802472 13.530521494284066 -1.5333264783032239 -1.0777758490834277 -0.09953331691064793
Ni 5.406419759071528 6.959062921559078 12.061319705304516 -0.4371330459445568 -0.30031230543736015 -0.8914945399522582
Ni 4.404667796870839 3.6504148721157605 6.278640186888638 0.056193002251799996 -1.1712868710593958 -1.4959552367436173
Ni 1.8913857447888665 5.610528323387492 12.699757132188484 -0.20914510110322043 1.2841356741320271 -0.2861049035887266
P 0.03085923810403861 0.6944356630729971 12.891599082511316 0.2076024392064489 0.6094622637710084 1.4632783153358864
P 6.820786906785328 4.413021338871575 1.0048951437327527 0.7442646882965956 -1.3628821362043109 3.2820921182484963
P 6.947934085803133 7.521129058827055 10.683788358525746 0.7199870466961535 0.12329596654788444 -0.42186403560062824
P 4.88063528601204 6.004832102263232 4.255235285606041 0.013431442914557513 0.062466751075653706 3.0277372533778566
P 2.1277375059884616 2.39095706121691 5.884700607691739 -1.3425562801627653 0.7248538878701517 -0.6649104174369839
P 3.9777151303299774 7.109989112519372 8.24311297001241 -1.1345499206496783 -0.11906778739914978 -0.2581708961826199
P 7.419328333407506 7.9975391197298835 2.304122637536425 0.2725891284904789 -1.019029741392471 0.4478540319064868
P 9.249104400879697 3.7616202474699123 11.659486674334074 -1.0130668389408164 0.7621413114667004 0.2771664634485162
Ni 8.780771274626584 7.1729080646308665 9.145142450024194 -1.3593728374994718 -0.24663075675350432 1.106530809728933
Ni 5.861014720224093 6.510728506784548 8.976296712840469 1.3360652731217828 -0.03738049753098724 0.6296132847975867
Ni 1.7679082232945627 0.23904683882301123 0.8758329198214014 -0.7309504876861928 0.265483113573317 -1.7378664765342653
Ni 8.127470812747934 0.6608813473455425 3.694271889644121 -0.2798987747780147 -0.2561523230906943 -0.7196785143167993
Ni 9.226238193195565 2.1163966045967357 6.444679281484037 0.8604718663184988 0.2216522324312957 0.7823046737884526
Ni 0.5568013773536071 3.3839958918605406 4.18777536281534 -0.14494619782780846 -0.07839242116697467 1.0282291485035517
Ni 1.6492713304430688 8.298100667345722 9.019276885066104 2.5544074457977684 -1.9657070971644597 0.30481842083782984
Ni 0.5262878984383407 8.149765365239961 2.564719955077226 -0.4882339783854301 -0.02066472743820312 1.8826560941795514
Ni 0.7982491679834521 6.666292480996905 7.2028148514229 0.5469122089529291 -1.8661820077839282 -1.4178561784473453
Ni 8.82740727400817 8.31303746430068 11.563309376360717 -1.5821447853575075 -3.5722819905398735 -0.41852134438064054
Ni 3.48053185736572 6.057120111850612 6.323428449165425 0.9357673937277045 0.1528022035371175 -0.9458777426888292
Ni 4.245821415426406 0.1630102441017542 8.783604655925508 0.8010714128729945 -1.5537142979309564 -0.23052896609563525
Ni 7.7127165303869525 1.8861855265897334 8.768450261187752 -0.4625674268572615 -0.25223936118953333 -0.8398323356912761
Ni 2.1993695896570133 3.83345517652921 11.1836888377015 0.3765282877783064 -0.16493806756870305 -0.47190850175252924
Ni 8.678988989697103 5.931420511303132 12.47602788644033 1.112569045503213 -1.130688380811743 -3.6312538410883914
Ni 6.941599777464827 3.19526669626116 6.625697586161547 -0.11975530038447761 -2.1236782464970263 0.574732573599307
Ni 4.872558351362323 0.6479720822735462 13.141913060765782 0.12309490628067188 -0.22122800040968352 -2.7530891854758197
Ni 0.17030345792358767 7.601658678953344 0.4429774524098214 0.221746849027631 0.5776620885412762 -0.9834104495269644
Ni 7.227694760622439 6.445273987288724 0.4449856217782099 -1.2657345459170202 0.6511758414597107 1.9502187717208737
Ni 7.8963653709726405 1.341342807045125 11.203835995125125 0.9278915905240537 0.5779235697327788 -1.0602928618073157
Ni 6.849166820999743 8.585790752894205 13.081267821079653 0.4526370551174269 0.5293256062194175 -0.6228664529920563
Ni 4.3113773576176015 4.718912188117021 8.327468069803272 -1.2986971168859698 2.4557603881468157 -0.11518387896371131
Ni 1.9900700273869496 4.339305479825356 6.778525913672339 -0.7469314364954813 -0.23825590242624772 -0.7182991174707694
Ni 3.658556348480715 3.4884428276048265 2.3452947197109077 -0.036462099481775916 -1.0739029963915827 -0.06527748105157144
P 1.0660447308222367 5.802429283278543 5.016461481680277 1.1756729159422332 0.24260080965850475 2.046373401967276
P 4.377016282014103 2.404953393178406 4.1975589648208365 0.14618212711743855 1.902879620315278 -0.2221818796825206
P 4.103820421658949 4.820676032556435 12.099726635993324 0.18819883786885652 0.4626368466426161 -0.2634244312720754
P 2.277391303134074 6.880082302598489 1.076286579005919 -0.32179412946021996 0.5604423822288799 -0.11931949839863966
P 6.726436139353188 4.034170690672691 8.526354287332023 0.08317415882633418 0.8116563874776924 2.0256122581605247
P 1.032022026647059 6.6828059398526625 10.634046980616736 0.9921311172294139 -0.0067725428371431745 1.805961372429974
P 1.993048166532907 9.004159371308484 4.512377777332631 -0.3319042213110284 -0.17273802322909607 -0.08117641167001503
P 7.683930925391043 2.3441089961995445 4.882026620987658 0.5915064506235361 1.0484655301550845 -2.078066876415815
