# total energy = -381163.51596460067 ev
CRYSTAL
PRIMVEC
9.25593113432212 0.00000000000000 0.00000000000000

0.00000000000000 9.25593113432212 0.00000000000000

0.00000000000000 0.00000000000000 13.54699081894561

PRIMCOORD
 96 1
Ni 3.7052695693815427 6.469303499374885 8.339134878562847 0.580915048260935 1.5697248144265998 1.5651675340732205
Ni 4.22268537700707 0.6072696105214741 11.613455698004344 0.22647459352060353 -0.7601340512286844 -0.003911933459896489
Ni 2.397304681609037 4.109642689782681 12.813746338623709 -0.30126489915861665 -0.455216385808829 0.6036703396795796
Ni 2.0069635528424006 4.334367442351332 3.8416557149847006 0.5872775001438532 1.674133714261994 -1.2508853967193296
Ni 4.313162104069905 8.866700740295494 4.936943370182928 1.8063907466579083 0.2846157206377098 -2.0548706408050097
Ni 1.1575004708790593 6.064319487517363 5.819800926168775 -2.8003113516875775 0.11289611137079912 0.3277896849220226
Ni 8.892830233952619 6.935330377214952 0.10921998765641437 -0.7515038863575122 1.0240356792474945 1.66466022755392
Ni 2.6671428426384813 2.0119987793919845 4.053408280036364 0.13854055141178076 -0.23653274908755395 0.08764479300317808
Ni 1.8777600098173253 8.463466099426705 4.494742184734925 -1.3835211526109013 -0.889522503827552 1.2396432481466069
Ni 6.32159734996632 7.411233333599885 8.654996306085849 -1.1776333821027138 0.15331899527253595 0.6667299871442259
Ni 8.320156517317871 1.4177402312983598 5.224518672089151 -0.7924016530131385 0.991189322141435 0.0375807864672514
Ni 3.5748349875125434 8.076244219460088 1.4509643961875716 3.559605423513469 0.34729638749638253 -1.9208187212922019
Ni 8.59264187465831 1.729285618122703 7.432800578789564 -0.3322505489068536 -0.4095301966256237 1.50481448690646
Ni 6.644194318592507 7.301606084972549 4.710058283282158 -0.975731592825468 0.7688778588595856 -1.4889500090703778
Ni 1.5472492200516268 7.559087577906967 1.8218810278274493 -3.875023988464649 0.49374950888702057 1.5167143236678395
Ni 5.65204180190787 0.30505790467617544 9.514877864159875 0.14892575130084673 -0.15447830568795975 -0.09111835337407534
Ni 4.06649153872724 2.107371894037043 9.283238005423586 -0.40086017965545157 0.5397313749337738 0.652849629617708
Ni 6.315136710018508 5.370291257478951 7.902718650088171 0.8025053171060438 -2.7045025348163683 -0.04284203486619073
Ni 0.9467614302891235 0.6148335574632385 0.9407247119883172 -0.8345106663680467 1.474716639079815 1.0598598880349552
Ni 7.823446227691276 1.825038225945212 0.03315196862618469 -2.218034390082109 -1.1264031231728278 0.043151595686809555
Ni 0.5569154938394041 5.66120517375362 12.199851332579824 -0.040413370820040075 -2.189212066533778 -0.2620116100849488
Ni 2.445639154112579 2.235307374493565 11.258388922878268 -1.8305809707508665 0.7838465643542759 -0.385205246727014
Ni 6.410241402660005 3.4191779932398387 9.663529044139601 -0.04250779145522357 0.4432908380158365 0.009722883714718739
Ni 5.8352444473047695 2.2187947933089007 7.774808160645773 0.09882909175477173 0.3444704880118132 0.23409997127634521
P 3.1492750406922925 5.173510161074258 1.3423173506697954 0.38439123546615095 -0.7180466351403311 1.2348214012779315
Ni 1.4511448868451393 7.806878110919667 11.75243442992467 -2.267941816435514 -3.051047903079339 -3.6764054979243657
P 2.902391588933009 9.227210002942078 2.9954025899467194 0.8182371260190038 2.3889716126570404 -0.9893239867979219
Ni 2.069681742364423 2.501452418991238 7.930300399343879 0.33155995059773224 0.2081336291195706 1.0865664507918642
P 1.7171881161000815 0.4141899609865953 10.608743808332335 -0.7386923364151406 -0.9537252637577058 -0.3382484183615013
P 5.786752623971553 7.608153268971938 2.545276476241816 0.5245680369297739 0.5030252777619917 0.04929396113912156
P 7.991385842609749 6.753155140176516 11.567463901676721 -0.3564117195340894 0.5765506006446521 0.09787032738592821
Ni 6.397060956691977 6.7246005925561745 0.48364646839114894 1.3800622475280233 0.32828565072183463 0.2880712832864781
Ni 4.80617002123357 8.952429174674622 7.340680923946304 3.0337955437567947 0.43896444272634083 0.45458800819621065
Ni 9.127680975207381 3.5349141564310087 3.9180874921094135 -0.5484052485586878 -1.0559530967813815 -0.5622167005204833
Ni 3.1304577326494543 6.781543081036027 3.4485220717879006 1.0603784795425866 -1.4525038504282017 0.24753887039007047
Ni 6.538417537326617 2.8434035396673885 3.8289352887951913 0.4964725642451386 0.2297617489123075 1.820042276003072
Ni 5.833060047551641 0.18230204329529157 0.9189936368171537 -0.4716475347816587 -0.07710635536569947 0.32730554619675245
Ni 2.2583731549376145 9.085834910445122 12.984140626485104 3.1557591646465006 1.958785430343962 2.2747315856638375
Ni 8.722835802317219 8.631035477098887 10.553173974443114 -0.11081351781015754 -1.2526378606340618 2.3271476373717084
Ni 5.987041718284871 5.203536401748615 4.710343365961803 0.5154419062587897 -0.028961677339672705 -0.9719649266941841
Ni 4.555176936040436 7.354031679047628 12.832563646666548 -2.069793837773745 1.694527704537314 0.01289253969195199
Ni 1.9311019410769792 3.011963301973402 1.9060072605232443 -0.35809039278809296 -0.9026341015088454 -0.617267104527408
Ni 6.449079289796133 4.0239235113347105 12.042719868473757 3.2048204409495256 -2.9623193900936786 1.8801778078423876
Ni 7.712356541941083 5.92151898162218 2.702990138417679 0.4347367777982384 0.9670402356990571 0.8468169945392253
Ni 3.2566808658418713 5.94825011080453 11.285903103836526 -1.1389992146702834 -0.5554091906803467 -0.3439326132304722
Ni 8.951994145910229 3.180421249036685 11.575239809441989 -0.18192586037595118 1.2691744248365044 -0.48930432863147344
Ni 0.38401840219306865 0.7126733777617241 3.3896737870827547 2.6280114444371647 -1.3971999356495743 1.1873902043791615
Ni 7.612438765097778 8.902354587113503 13.043150889985503 0.8381693461665565 -1.1111865633333895 -0.3691103980476804
Ni 4.702244426199145 1.4113721506621215 2.832093717386255 -0.2278388208579818 -0.8912772817351295 0.45168960360249305
Ni 1.5280616747624955 7.136304410433912 9.046964627549944 -0.6963465244590782 1.0786865338231553 0.29516032892277555
Ni 8.693596315791234 6.402272045933549 7.912865001822828 0.2243207804023943 -0.08432035661563543 -0.6650155755562804
Ni 3.2612625517647467 1.8904128677093863 0.1419091597247329 0.36929191793086724 -0.28070532983971014 -0.3127582445101969
Ni 2.7627751233559454 4.299157880228875 5.8809520865458635 1.7607366962642192 -0.30349918780577406 0.7774715140658675
Ni 6.189293070003541 8.192128477549776 11.528502910656199 0.8110228676587516 0.41479684434120173 -1.6175627598454851
Ni 5.438109465068658 5.377631210886708 2.288615058807937 -0.9178563177752385 -0.1617524707518698 0.35945899100084544
Ni 4.30083320376835 3.3663451381938376 1.683416925679472 -1.5536343366226404 0.45800089053250154 0.12358110188847102
P 5.642387865710782 1.8038606554572565 12.846340174601108 0.4969680158243183 -0.49123856953970885 1.2005228851063776
Ni 4.440171991410694 3.0632596724472876 11.700007910256474 -0.03702414263283301 1.3317373351703905 -0.7405918674306987
P 8.534301740573701 1.9691438181335776 2.4582503603144317 -2.8038754148897516 2.144162225382991 -2.3345349309747148
Ni 7.4891867858068615 8.414613294778356 6.478455764103246 -0.21055509407686965 0.5872978118588273 -0.5349612072386399
P 4.557953715387633 7.308668360445586 10.317604972930544 0.15852162251939794 1.8983531931998336 -1.5962452293146316
P 0.48405280376895543 6.009811308931886 3.525279657689351 0.5114772651840869 -0.05776497472461019 0.2762809755197694
P 4.442939514826734 3.7753462241736373 3.968712807574393 -1.0833921668289406 -0.631471678162564 -1.432725382249694
Ni 6.967041197359943 0.39701835750352915 3.7302318901197276 -1.2707890776217918 -0.8672102134835967 -0.8713810570318348
Ni 8.872309834576832 1.6898183276678769 9.798064003511294 0.7915426474469529 0.07822658501307173 -0.9258663325639087
Ni 7.456281950542577 3.630898162532451 6.411831571632833 -0.29112266851829216 -0.9632653420376572 0.26427289531529974
Ni 8.209205670535036 8.694077624211415 1.7209960061782044 -0.28373460358433716 -0.2685625238295891 0.9992828977828466
Ni 1.2854822309913678 1.2525866516582411 5.914074436192344 0.4259814002031115 -2.1442311309477136 0.11111176577686671
Ni 1.2393691819655832 0.2653638439079947 8.419779955550373 -1.4247055972690108 1.9601182902227727 0.36452329289763025
Ni 2.8377759335237354 8.553146816410012 6.511442051561715 -2.475927350012994 0.9241665762639826 3.2505158861041115
Ni 0.7530736660772085 3.3069035483015075 6.3460607760151255 -1.9914060445924606 2.4730687975182764 -1.1460538075242197
Ni 3.6812319161659746 1.6597550632688909 6.2811711450435945 0.5158013464807375 0.2967191887694632 0.4557054096301055
Ni 0.8844060732684682 5.13339495543842 1.440018332000921 -0.6744096151766709 0.6578275424482736 0.909343395208221
Ni 4.719701112361856 5.1469363827215835 13.28589971729681 -0.9220582716717283 -1.333086907219749 1.0578135470288879
Ni 3.233078241390697 9.019904912811509 9.051787893276025 2.122097018052836 -0.646209755703687 1.5557017606746304
Ni 8.820402572646563 4.004893316875254 8.428856321643243 0.5850408975038505 -1.572740461324472 -1.4269306299447877
Ni 6.40030053259704 2.7715404901619305 1.6332932816832195 1.588020270301678 0.16414153980933666 -1.5708645844579978
Ni 5.7410005562609046 5.804922016833379 11.325338924125418 0.6170205357342405 1.9522031491407539 -1.9408571280003155
Ni 5.107663466821061 3.634868956998942 5.936819961418351 -0.015493724760224929 -1.1609636347565166 1.5082047435349315
Ni 3.99830309389124 4.255303278405477 7.879065118015632 1.2861601607612236 -1.3881725353399836 1.1016215453527738
Ni 2.2895101073508504 6.426346722873747 13.52406963546459 0.5799511416857689 1.5065769781235214 -0.8239526883465422
Ni 1.8594980576439266 5.077868624425637 8.006122210605323 -1.31654082993561 -1.0222546760876716 -0.5518140171299206
Ni 0.012796324824999396 0.8910240640459542 12.114518126461112 2.1801838948932386 0.6980712204596687 0.24319524870939407
Ni 0.07150114259720639 3.224396177965128 0.3525519386306325 1.4772193508970108 1.525393596609392 0.543004903478723
Ni 8.18073442629511 8.649195614029555 8.592612255678608 0.19280805450609376 1.3529605062152248 -1.7686762628262702
Ni 6.9055355348195295 1.5920109031284422 11.010872365427822 -0.24395629524513468 -0.4923181757571327 1.4277901497316057
Ni 7.966478131865393 5.196159424616228 9.97516421349617 -2.4573526723346 1.531615666259704 1.81828312722012
Ni 5.0778778803567945 6.6343274959788 6.511618839846818 -0.1552799756536487 0.6230312607046947 -1.5242258015535362
P 2.9867316336385388 4.221935646583327 9.939996303063921 -0.15441762765335343 -1.0627174120884086 -0.5667510980557272
Ni 0.9113047348047653 5.099879228717751 10.139732818287147 1.9981217660497392 -0.9685880398021511 -0.7009547126550509
P 3.0112691071366027 6.698184165033173 5.702457007735579 3.837455543292571 -1.2175209623262708 -1.0233396816217344
Ni 8.870514183932311 7.919115532133369 4.366249497222732 -0.09766103958859955 -0.8613586397988262 0.03345133767991013
P 7.584374781828774 4.797228791735597 0.9444816944450747 -0.05007377672793957 -0.6796528658534812 -1.3264285213629672
P 0.6692038226744711 8.30148730417355 6.918380916079662 -2.3698230647530476 -1.815849320967647 -1.1451176688631957
P 6.198428674055819 1.0717812924310886 6.125677980752374 0.40634357136752597 -1.155407223714662 -1.8057896227387995
Ni 8.290158044436986 5.253601733378576 5.202938468595852 0.03259156078277613 1.740131875529674 -0.2655553615721491
