# total energy = -381166.9779110078 ev
CRYSTAL
PRIMVEC
9.29843716039964 0.00000000000000 0.00000000000000

0.00000000000000 9.29843716039964 0.00000000000000

0.00000000000000 0.00000000000000 13.60920268467336

PRIMCOORD
 96 1
Ni 2.2489758400129665 7.938252607476991 12.799537006273527 -1.0557093562016915 -2.084180188402404 -0.6066654177521617
Ni 3.3567916619108145 5.398867973192465 8.874996709468054 0.6880477747853957 0.0030752964912140585 -2.0730354846394943
Ni 2.201907150316417 5.956876494998002 4.547351487957751 -0.6894078883577159 -0.3807731790975894 0.7704238631904667
Ni 3.51526492909736 5.37685857206411 2.2956140120617583 -1.254987077592529 -0.41982155124930276 0.4409033116202664
Ni 3.93682818171934 0.975006241705075 0.5548238070246074 0.229580743249753 0.07138436528025771 0.5514363220755277
Ni 5.615530861106194 6.105753774873833 1.6908622458657516 1.2267743626037388 -0.19762038829307255 -0.5027483699515213
Ni 4.497468161285471 7.389012512060992 8.852922219278483 1.1805924647310377 1.0750165411707358 -1.0185839121043037
Ni 4.840998927946676 4.758233537391759 10.686748868730449 -0.24473019729668172 -0.7321234249483713 -0.0704597965834593
Ni 7.98349880345949 2.2407467229877898 1.8963744477494335 0.48969976429767925 0.06069166145310193 1.9664696863620972
Ni 7.233291582320156 7.975344073932846 12.57916311202675 -0.14361899437595266 0.15623385492648575 0.36940530358027995
Ni 7.169811150759835 9.323264144219532 3.5115557824517745 1.3178639196224076 -0.009253657387784064 0.6332177143193933
Ni 7.120919967349235 0.785329278571536 6.2475363470771095 -0.3824492812484317 -0.4221262881230795 -0.5017669798748584
Ni 6.213494768061095 5.811216474433711 12.222615462966058 -1.4626813051818357 0.46319837557304105 -0.5019096761003097
Ni 5.380298993871246 0.645997774444911 12.119580408904719 0.03226914444635088 1.694053850224689 0.6532640914473071
Ni 8.462647278383077 7.764037085913468 10.00660165339665 -0.17462726983200894 2.301940284868145 0.043443415895615504
Ni 3.917180583669398 2.0106754884635456 4.7571921124123016 -0.04534371824212191 1.361375212641481 -1.657471423114965
Ni 9.367710674592804 9.499841468861467 5.461998783509682 -0.8948811970363039 -1.9610701126130805 -0.9320086980162208
Ni 1.3810689993203091 2.312065737205991 11.02870726964142 -0.032897522058969154 -1.6840751417454223 -4.713670274267624
Ni 8.651675210591918 2.0253670194237485 13.17950555924723 0.4350661361131991 1.3208759669758543 -0.19710205389575733
Ni 4.546833564999217 1.9015118343668465 6.925600712451993 0.3631438960516004 -0.7403797514198925 0.49052714529498104
Ni 4.637632805395662 3.3271203484335943 13.126852228098342 -2.5167436126984075 0.09904172198621009 0.42560961868598957
Ni 6.733072848437189 -0.09871592992778505 8.50032175685868 -0.5222419598997586 0.24376629072151568 0.5787280679119453
Ni -0.39368653754686067 5.741496791433962 9.174956858551209 3.001877612002275 -0.9556538482389864 1.7514308454822611
Ni 5.104033122758211 3.926544110047198 3.730881742812974 -0.5028370730105857 0.5383838597669438 -0.08116638436768601
P 1.0611004728193285 6.569364561041406 10.76749277901274 0.30892061593166154 1.1970698935607706 -0.3824968466569154
Ni 0.561007267840136 6.784232850553036 6.42109446912235 -0.1772531374906302 -0.2272230416508538 0.21754540935177374
P 2.2281845341730846 5.1956134318892495 6.919272196014326 -0.03436767884659242 0.7343155475036838 -0.20155031947509805
Ni 0.17861461225799855 -0.2033661225510142 2.469906710655008 -0.7639783646754391 0.4354566866833985 0.4870361014225871
P 3.2462425406539444 7.433877472113511 3.3579344398570226 1.3540226289311519 0.16515146913108977 -0.6497977301652615
P 5.664431342954111 3.9554808469764082 1.3762440401967337 -0.09611914902277639 -0.46349919464291145 1.2726050477846083
P 1.9798511687590687 4.481725906908494 0.9644580944131417 0.4708391799477504 -0.15478940917047534 1.0146390685239428
Ni 4.552552103948916 7.591327911195233 12.491615535159914 -0.3414831232487151 -0.12629927215058248 1.65219989030338
Ni 2.18801528496544 3.713349539252554 5.1410529912467275 -0.23025205828516476 -0.4368851915998089 0.7735899196232742
Ni 2.3816738389579406 4.7587542498814885 10.808619767263993 -1.0472830798112092 -1.754557821147017 0.6386419706587582
Ni 7.785944204231342 5.682814353528998 0.1222818894629362 -0.3187993084979542 0.7904476146105612 1.054028883175475
Ni 2.196551250422065 1.0933009612466598 6.131190579997082 0.30465232757361077 0.061808805776680645 -0.48282874820945876
Ni 9.1387273572346 2.4846912259883775 5.1586911969925575 -0.25209306541965615 1.2937297455783654 -1.7705079167183702
Ni 8.83650954757098 7.003508599352726 4.163857897397329 0.041911809742437495 0.5877469835811039 -0.07067011282205249
Ni 1.3806040774544799 9.039754790436879 10.486870590016885 0.9016010322586407 -1.3711893705184255 0.15115875439642354
Ni 1.7451958046377485 3.007728325046241 12.909567274728133 1.1991190627803157 0.5925891421647536 3.8209467470042715
Ni 6.600477132302698 3.448585835100134 12.232278399025452 2.4151783529593955 0.5328999538342372 -2.57130936375943
Ni 2.925976464158833 0.5330180416734857 2.8606679598220714 -0.5781860793655461 0.45817084045146256 -0.6574344207749129
Ni 7.625704233954645 6.982745188824794 7.831714832078496 -0.1166002996952637 1.256122733858869 -2.2496610158484547
Ni 5.440924805175375 7.935574657529815 6.3481352105615025 0.19104813439219356 0.6176160032263944 1.5289419760822829
Ni 5.120640131805631 8.579891274507887 2.865240931294368 -0.47407902704128674 -1.472675183169754 0.7493775840431287
Ni 7.220906063814466 3.9401570222786773 9.808478919648458 1.004357741202593 -3.198508896909201 1.2955112629588206
Ni 1.5252970605378475 8.253451035634564 4.219764751763292 0.6056045805878151 1.4471808955533914 2.046629226731824
Ni 4.85977247288886 2.4540249797182825 9.18117658327227 0.31332671541915713 0.9693963946360594 0.7109095098749176
Ni 7.362660740705793 3.9799078418070746 3.4396714232447247 0.8811273377853212 -0.1706970815396673 -0.40018089420023983
Ni 8.77942644088447 1.0131670284523366 9.820020140045804 -0.04426591179691086 0.740588524996589 -1.0011400055962436
Ni 9.009228020726532 3.820272269955957 11.546524225989753 -0.2850705487869413 0.18301292279254286 -0.3666449672263234
Ni 2.739579989710585 0.759046315652479 12.22351369201084 0.584076219597736 1.2306965804762806 -0.904980490253835
Ni 5.548470531178989 8.586000347824884 0.7047676176606502 2.2009751206069774 0.8405303901995653 -0.9618723183448725
Ni 6.624048670900239 6.229934405236816 4.04846522014225 0.9953568232555632 -0.06297402972937542 -1.1184188194157705
Ni 3.3265438453199656 2.9214202298737066 1.981840104501086 -0.08279389266878 0.011216437541109715 -0.07390096105452433
Ni 0.976549782299628 1.953917827083115 1.637200964111744 -0.16361420655095693 2.9089204056472484 1.2597647014868303
P 0.06041566662077452 7.783805563648526 0.500826851683471 -0.0020427414616416436 0.4040694306213686 -0.43892099108291505
Ni 2.5467954888258437 3.297802375574404 8.321429121324917 -1.2037017970549913 -0.48943494067206667 -0.3523046393442513
P 7.146183821538394 1.3972482802511659 11.062826025687162 -0.35119340855794356 0.328902201259911 0.8537867409888392
Ni 3.7362794856752513 7.501439917655812 1.1794984050151274 -2.1549557164540696 0.016938427626551473 0.18871177294953306
P 0.5018059771329073 8.784800937653454 7.568132029465282 -0.49673198855411227 0.6970304378999802 -0.07323324556353838
P 4.127567026394432 9.221985564967296 7.695364406955568 -0.4381987682049099 0.0008494924844888596 0.39878169985986806
P 3.765206924167144 2.86612242315198 11.165725322563679 -1.158714433711024 -1.0892103161726143 -0.3684794493319009
Ni 7.1319665108813375 2.4620309342478617 7.972406697584536 -0.4308842368213676 -1.4781945703260864 1.081635332038834
Ni 3.225302459816996 6.895656024917665 10.708347278929411 -0.27016020733401214 1.1806451723458442 0.3740430594626074
Ni 9.200998991943765 9.388353205435623 12.242920460534283 -0.05454415379446736 -0.8724768611991748 -0.20278187788935398
Ni 2.060719678101402 0.9370128268295117 8.5200009695955 0.05163289368494333 -0.6418764184356559 -0.21613901592255033
Ni 1.9354790258843286 7.4820898696 8.405221059359583 0.032587704128034196 -0.40826701364248397 1.6866403313694374
Ni 9.06988172734261 4.189020398619738 0.9371513735455287 1.0391041435448427 -1.6113931406996636 0.6278813897081444
Ni 1.5681163643807179 0.2677233967502888 0.5739609208658695 0.18810344994157283 -1.4985924172561482 -0.6045609698146491
Ni 6.560224197159205 3.2391292361067574 5.952583406488936 0.6604238424205401 -1.7394582465014174 -1.7542811704468628
Ni 6.6588713186508475 5.927735192447828 9.550135786463139 -1.7031226452951767 3.9918438603698863 1.5043902548848478
Ni 3.0788148783315283 7.378840021636649 6.376877610150797 -0.17473551327509906 -0.1308318699136134 0.491682856165979
Ni 8.370239408330862 4.38093084639672 7.58978437060068 -0.22239939500996536 -0.7013272655031211 -1.9184360799926379
Ni 8.591495724278985 4.897840275262956 5.296415931150876 0.016252200192804267 0.1298527938297957 -0.1687913798765222
Ni 3.476257984554289 5.588453811640302 12.921393957151096 -0.024066554030900487 -0.4335137040244147 0.6205627445595441
Ni 1.2153150557148784 6.965580273538379 2.441994661518086 -0.07318979392011267 -1.4480450433258998 -2.330103377565923
Ni 0.7212472381168323 4.537600216743848 3.278470924393225 -0.19290627064685487 -0.8078478123648798 -0.744991024939659
Ni 7.665120309739645 7.363618479749401 1.8778249951465797 0.08683515261768916 -0.2309215735483636 0.587337406847511
Ni 3.9159345930689753 9.054920541700227 4.882954406962837 0.21603848578894405 -0.8698993302799858 0.47567465366318085
Ni 6.464626963107403 2.087685146319496 0.3120490474384459 -2.027261620838489 -0.9762866939979896 1.042196152206605
Ni 3.8037861405936524 0.41763559269945505 10.038964864477022 0.4496684594074062 -0.3868661793692047 -0.1375326789725567
Ni 4.606390056011939 6.3885657458577425 4.779538116971517 -1.5540665390640527 -0.40775639255465257 -0.4121907741769224
Ni 4.259214301922633 4.308886554067826 6.4341727212081254 -1.3304924070196957 -0.37807892009487787 0.10251708212932022
Ni 8.465148558021237 6.147261999055065 11.632588702104595 -0.5937551374483968 -0.355267064406685 -0.3939904491188118
Ni 9.362131612202854 1.6285376100638824 7.176336794068614 -0.2942172482832159 0.7322648356222421 3.13586731081858
Ni 7.651237742825985 0.1957702291070965 0.8400319853050012 1.2456809697002547 -0.3853178610454783 0.18601879949840222
Ni 6.245137350249431 5.292168404984661 6.347182120736553 1.3309618904569467 3.1899293827703064 0.43733307777050484
P 6.085790029955127 1.6265012522915505 4.541840304160211 -0.12923547196077098 0.3734367933371762 0.6436270825781755
Ni 5.471088935830375 1.6275519757083245 2.564504362695278 -0.30747282774154144 0.7010318457498894 -1.2058766932191232
P 0.23266828806676615 3.4005129141733934 9.145438969289712 0.49148873787730196 -0.8100108814544694 0.5825145315375709
Ni 5.661651110196453 8.20870695526716 10.824773942414092 1.7607413242499097 -0.9669947271731024 -3.229024034778923
P 7.362772321953591 7.511221873712859 5.703399234060453 1.1927892639075457 -0.07800418458962051 -0.6503075799221445
P 5.624262093746467 4.5777694659514925 8.353056826013546 -1.2637635382335783 -1.1287518259106626 -0.5987099103505108
P 1.612916235372021 2.154029496573325 3.7405576966846117 0.16583049747598536 -0.13678937304862895 0.10129349413486427
Ni 1.0714310366780535 5.359795939588178 12.836798634132276 -0.2839634317656916 1.297289695015482 0.0497575310391014
