# total energy = -340877.06246973324 ev
CRYSTAL
PRIMVEC
9.17439254712828 0.00000000000000 0.00000000000000
0.00000000000000 9.17439254712828 0.00000000000000
0.00000000000000 0.00000000000000 13.42765085453057
PRIMCOORD
 96 1
Ni 6.106145275357841 0.6343862955745898 6.821206590132476 0.10245948941850741 0.22861992199838047 0.6789938921132435
Ni 0.25646004653620924 8.350320913224534 0.5037530402283079 -1.0256688439755433 0.8903997642261827 -1.312807845255739
Ni 0.42763585915171515 2.968264554721597 4.73017174438394 -1.7228131817455683 0.9211630135509683 -0.49940850694501093
Ni 6.67513191500845 1.2922131636238616 4.44929221770845 -0.23843459409595708 -0.07145429928624468 -0.5259353495909458
Ni 3.793932343764243 3.8379602526902703 1.3181372441098533 0.08597563283087128 -2.1631400520370745 -0.8651044799945036
Ni 4.998924559240629 2.633096478706897 5.636927400282741 -0.16649692741539068 0.41711186562762353 -0.9303899314658751
Ni 2.665894931386736 2.6773445730495156 8.816903902814417 -0.8740424059140817 0.2718612491855189 -0.03456539667969531
Ni 7.89910594827353 8.763122697372603 5.599505053854471 1.2378347341829585 -0.6335684127905927 0.8101407221641146
Ni 7.07446569117498 3.587269981508005 4.948961735898213 0.5225209245927582 0.4683269550488579 -1.0114809825109354
Ni 4.418561673066104 1.4660220268461126 2.9199907370122893 -0.4281614385735658 0.17806174943485464 0.143125856789618
Ni 4.263422698292376 8.399238773277373 7.237785471614334 0.5894917341863525 0.8967064231705008 -1.277337420263271
Ni 8.425697720837837 1.5479034786412351 6.902671524514545 -0.08240591320174195 0.716672894721256 1.2144176408105987
Ni 0.27437304761519815 8.180200155730198 3.91191778180579 0.9028148500610839 1.0263571282918196 0.07547524752017969
Ni 0.18813742920697057 3.2365329616617844 8.87456220646672 1.3924138271148407 -0.23925631866630406 -0.8905630292769242
Ni 7.478827034353694 0.20035588494935083 2.076599856812465 1.4391428557402635 0.9195756144591904 1.1602491251879954
Ni 2.7306202694724035 8.385504707917452 5.03013217228559 0.49294603914911883 -0.021223171044834416 0.5196122355863955
Ni 8.45650533037599 4.155091473329149 6.752711494226907 0.07905525156195417 0.09507759513213948 1.1177372199677136
Ni 7.704838190092946 8.680819223529014 10.893463392300507 0.020408388453022917 1.3219918257478522 -0.08400333959584887
Ni 1.6823358498629635 4.093265243228608 2.923226545196955 0.030576587235276377 1.246687556587898 -0.15659689469285937
Ni 0.0055229841995141265 4.376735618305996 1.408426109061844 -0.31166141190159224 -0.614104133418394 -0.05139223842904697
Ni 2.581655660755608 9.165172093677102 0.5966630290769782 0.7545784115177778 0.9071129632158055 0.7290910658799508
Ni 1.3817277098608374 4.825629461990426 5.832313516891764 0.19106818899685157 0.7312073408920051 -1.820910023320006
Ni 0.581141792085719 4.452800505346148 12.593094806636767 -0.08659115492768313 0.06231428465818945 0.3545790372007248
Ni 1.812914976294333 7.0113091741825295 12.684349735104053 0.9576721642205959 0.17727627741908178 -0.6564998247757855
P 6.350945586646271 3.0860178806364873 10.741878577126267 0.8297929491774031 -0.549771275668279 0.8088256028971168
P 1.2746625510430136 2.8095659157129673 6.867505161167108 -0.23630083558240594 -0.5860194593670359 0.12920487583315168
P 8.38542213838623 4.657572942776638 3.3383962400126235 0.6995532043218339 -0.8415560032506023 -0.02194590814347188
P 3.6622889878193456 0.6723279126103218 8.801610190753637 0.21801643545092128 -0.4646561910654901 -0.2353443852064076
P 6.282045900037716 7.338752411831797 5.973491818814328 -1.0297532984575621 -0.9389635320674992 2.5827104065075197
P 8.09193332685391 5.668251528110649 0.09775773777063584 -0.40259875961311314 0.23054644959713197 -1.1107749297172678
P 3.458856011673123 4.7440966371049065 4.76807849872871 0.4731922535609593 0.672670778108693 -0.4974436699091562
P 8.014418885821193 8.94555548941137 8.591454219887474 -0.14780166499873254 0.0058986248726220995 -0.319000882985799
Ni 6.80282110784705 4.393955952761956 8.743025273473176 -0.5221360304495136 -0.6479614482874712 0.4318990512391271
Ni 8.086401168262038 6.662746485325155 7.085395144791062 0.768564955604857 0.35412626593402236 0.39507725442508734
Ni 0.5093246487073194 7.486184897024807 9.183680512820125 -0.3275240899654618 -0.13017726704875002 -0.053265544192359876
Ni 3.343882526642706 1.680409227467784 10.832394967008737 1.9737297103586202 -0.7967599299818343 0.589212769493353
Ni 4.001145169561961 8.137465836126648 2.911571397145355 -1.1652807740746318 1.3205170409745386 -0.5485209482009457
Ni 8.926894775355207 7.057052694479503 11.63622770223935 0.3136313911437696 -2.2437983864200906 0.965720488446369
Ni 7.411257634637046 1.8433923077075987 9.330149686815545 0.22360987037829877 -0.7783032659385436 -0.3744050707877165
Ni 6.181971628196686 1.0166144171896352 11.753759925298413 -0.8831507959732533 0.7416282791150131 0.4304792880734651
Ni 2.214643268866301 5.674490114914088 1.0696139644025473 -0.4283185329767204 -0.3699202955434855 -0.12383872642523189
Ni 8.656130933693644 2.0696236488634443 11.529343278950977 -0.11131282604407926 1.001252362804392 -1.2473565576304646
Ni 4.192146844063098 7.18874192238619 0.06048676881627348 0.6878667691228412 0.16050111484327198 -0.19866425617655462
Ni 4.607297272654816 4.216587425304802 10.50721688683266 -2.1715377891824668 0.9292918133056899 -1.544221527949173
Ni 1.5094811234459442 0.805895138632691 12.057976353814938 -0.8820269667814551 -1.5640717299058806 -0.34088688442561293
Ni 8.143842038815455 6.152448433588651 4.7214569890830775 1.305883350221764 0.9351367021222411 1.7701757301899321
Ni 4.03971431503498 5.676526830017562 2.492104416949201 0.08174925345434952 1.0825943535179936 0.5501587409146848
Ni 5.151072682105649 2.4305809417964737 8.846310582639504 -0.8394903789708252 -0.40259438873773895 -0.7046144208948252
Ni 4.985906096484631 3.0761462344592827 12.603393979497854 -0.29709765515480446 -0.48585776484376975 1.0311306384210628
Ni 7.545075321570788 2.6784638489171915 2.6280056083874443 0.6106082044499936 1.1757937577908135 -0.07037366462755622
Ni 0.6705838606230666 0.9268613367513516 9.415106394929067 0.227745232702911 -1.21349178656222 0.22357181805151174
Ni 0.1910126837719668 1.7253729244143268 0.7621828288037791 0.4015698041279665 0.9890442507739742 0.38092513129442135
Ni 2.10019272420029 0.7248788320369279 3.2627845679549567 -0.8199780199695105 -0.7478943146293829 -1.1402032622807137
Ni 1.3082224782885663 5.226669675135543 10.628334462425228 1.0642086519219545 0.1964489936927907 -1.408598150184187
Ni 6.32063339429545 8.096667313310636 4.0741907640770965 0.7958973248712229 1.500013465973391 -3.1070154195838944
Ni 2.4071587181065075 2.7851528576483373 12.9880157000791 0.1441041615424873 0.7467769131954881 -0.13520120262590266
P 2.1241287138623037 2.3176074743001 1.7320729831533719 0.7448388156325109 0.11229627300327111 -0.036581398668459573
P 1.6406657597729415 7.716553889134109 1.8667925128559058 0.8946130309765818 -1.3365501831780013 2.056201186690975
P 8.834857271219782 5.37438656649165 8.807047853104221 0.6613602381918804 0.0741110201828014 -0.27971365535040216
P 0.8679846737939065 7.019465208988789 5.833871328714152 0.33305427575507157 0.256959392373022 -0.5382177665027247
P 8.796444090416848 1.2744148424493478 3.704769176754579 0.11552506435321394 -2.1456943457568016 -0.0743943557511751
P 3.1795324619415495 4.975126185463984 12.198241803697881 -0.44091205337101486 -0.2705515292351599 1.1637702509673764
P 4.237358249603306 0.31880646468344864 12.660932098610267 -0.09989224291196346 0.2592160496176826 -0.5048772433690659
P 1.4122784364129668 2.661904070711007 10.754796121566327 0.07067011282205249 1.2077438283348492 -0.008859250162842806
Ni 6.32017467467755 5.5811681958485435 3.519602415793128 0.9561449289427919 -0.11604494141242595 -1.1157695547183817
Ni 1.952007938833924 6.419918668393692 3.6655202088078322 0.3211441545810469 0.059158769748343276 0.35671613814838565
Ni 5.0623930055732504 3.7103169318134595 3.3917838640222793 -0.04939474838304396 -1.0878689716533716 0.28278586651782267
Ni 2.91301636394174 7.53279998459579 8.807679051298452 -0.5994861263949031 1.2969960750344631 -0.6911176719599711
Ni 7.157906789670963 7.716801597727774 0.5032548707232687 -1.3992910138506482 -0.9152708164362494 -2.216466274264041
Ni 5.948437470723874 5.279670139787691 0.9154318787517591 0.0856763564228976 -0.021938194833988022 -0.13028371071962722
Ni 1.8494841042333086 5.33115682970077 8.07059552510768 -1.4511735616525523 -0.0601977525358189 1.4169534641274177
Ni 5.730738314460966 8.649846474928417 9.622791701933222 -1.2131449447457623 1.4181590543997447 -1.011787715118077
Ni 7.270595851004238 6.781086972350956 9.411654988523988 1.2899797916176299 0.1254855180000355 1.4866239320403623
Ni 8.451991529335857 7.011226604651308 2.2754768297137065 -0.09335521312439406 -2.0374755852570137 0.009320248959661367
Ni 3.252166126239811 6.405588267530502 6.465239249202961 -0.44533306525684596 -0.7393531099275912 0.11014451676759096
Ni 3.207716195265316 1.46841654325155 6.661994185151798 -0.6381105236353205 -1.467864649154988 0.031835913563674205
Ni 2.6852620736544672 2.7455470058388647 4.3467592087154765 2.1056177894508896 -0.983775289065551 1.624489054651673
Ni 4.693206282695098 6.6653336639701095 4.577607104105866 -2.1895306262154612 -1.0947140195996632 2.0702412097238088
Ni 7.438707416572173 3.35453399617034 13.21564154887336 -0.12619334270033752 -0.6744672078874836 1.037147019818472
Ni 3.4068739045727123 3.8000516634670274 6.858723432802034 0.17675357214639237 1.3986739490919395 -0.43505225215612814
Ni 5.343312899575116 0.20848714889624348 1.1490834684467524 -0.6023930156290529 -0.29076245696539604 -1.2324834971733742
Ni 6.369991625181473 4.967630706907501 11.906660348336787 0.4476172333053324 2.5968758993746244 0.18115761475135897
Ni 0.9251365509880481 0.8246815418641612 5.475352589269878 0.9166232166990859 0.21610302047829236 -0.3107453278452261
Ni 3.3865709742844654 6.540552753508994 10.602136985046966 1.586149021420894 -1.443552811882501 2.4357032123856244
Ni 1.536417139409023 8.558212644056743 7.207022816598735 -0.3304716026295599 0.08148777226284676 0.10357663374208613
Ni 6.160806305026786 5.091631794018187 6.601704665771222 -1.2727312889498277 0.6121354397277974 -1.3365663811279176
Ni 5.3369733944557405 6.60524139402523 8.354603519577246 -0.0984439405012111 0.5355739011219744 -0.8071335599066743
Ni 8.332816172605476 4.308349697669487 10.620157326516543 -1.24756738808969 0.45719407836049003 1.3876706560029004
P 3.9459245019591775 5.157880081235283 8.478017445577022 -0.6649592683970483 -1.1536838132656517 1.012493740046166
P 6.541029821911609 2.7881345351646862 7.051812281564614 1.039932810093725 0.8813466528849789 1.0060765236659126
P 5.711086766030137 7.129787277093702 2.1087450927564144 0.30725428397283217 0.32793700913316426 -1.0240279659380107
P 1.7942909598075993 8.156631141762503 10.82292791153452 -0.4050886159145023 -0.2565161341880163 -0.2458478558408927
P 4.567636374491195 0.5897088396696165 4.928350546026738 -0.6955127157038732 -0.598392379110092 0.336436304853427
P 8.06184131991968 0.6878546542369957 12.883562490765598 -0.8427181418795037 -2.420668172429373 1.1966294635892423
P 5.846142995932209 7.154466392536714 11.182090693322326 -0.027949176914758317 -0.38034354775933854 0.2301103905009779
P 5.865023895404967 2.4170854106378603 1.4264868178577967 -1.5374003912622813 0.564009530754848 -1.33000132631589
