# total energy = -340853.76726306195 ev
CRYSTAL
PRIMVEC
9.44401198706202 0.00000000000000 0.00000000000000

0.00000000000000 9.44401198706202 0.00000000000000

0.00000000000000 0.00000000000000 13.82226615842101

PRIMCOORD
 96 1
Ni 7.935510393098143 3.4692671970702187 10.645411984952792 1.4658458189527466 1.220500099559253 -0.6155233823634239
Ni 2.61183591720654 0.20964667465460032 5.645704891559935 -0.3741271345359815 0.2881075358410522 -0.09277800046468537
Ni 0.7968318890264673 3.709513414519659 12.61169775015394 0.10233093426044311 1.2459704759162156 -1.7997863539675132
Ni 9.19113898860073 1.5418199306017593 13.070472735402806 -0.029081747857304753 0.2552362390343282 -0.5487132667174098
Ni 6.658727211051794 5.2550259537547275 1.3252744052908119 1.2552598716379413 1.2117987151305132 -0.4799324004982703
Ni 8.580942494955412 7.763525493299732 0.055128474772568194 -0.021690597599556192 -0.29218247724137425 0.9717841781419457
Ni 1.130816534894395 8.031792093907807 2.0729388798243638 0.9191750365866621 -0.21929221683955136 1.1477296525647458
Ni 7.169421595846634 0.6105610325027233 5.426621760264921 -1.2219496875215858 0.4330617040886607 0.3578494804218805
Ni 6.850960072256376 7.812747683061377 11.593425504474723 0.05521521171956297 -0.4194001474411681 0.7245810938247392
Ni 6.734137645673194 4.927942047345516 8.7536271960319 1.488552773631959 -1.8641076417534026 -1.4609890050810774
Ni 1.2735344419699854 4.452001626158284 4.475607878178278 1.2090949430461047 0.08225010435016801 -0.5138629918074441
Ni 7.875012053187725 1.6931507764844524 3.042570686871887 0.8155130422196213 2.5471708188400135 2.6840288403430486
Ni 3.597110785482227 1.6450996441921943 7.720993441532553 -1.6858209207919352 2.273994707497813 -1.8855226170940687
Ni 2.6608503387074873 7.227558932794579 7.393958643984961 1.1456953957435367 -0.05867360258180863 -0.9218595253973607
Ni 2.874568326870577 4.676910768363498 13.78274766433125 -2.129005829357527 1.1109999012438803 0.6816981784182841
Ni 0.8521218564016686 2.6115053767917944 0.8985948943138095 0.9573674884959834 0.24884987589201013 1.531233600329937
Ni 4.090994829184257 4.578334172674309 11.750045941394543 -1.8239768351707877 0.6860734246678443 -1.4732572809254691
Ni 9.066298595956988 3.738827627301729 8.122778537273236 0.313856362670382 1.6383362449474106 0.2909005252051571
Ni 2.537133783473883 2.476021582793222 11.017562715909694 -0.785474329765686 1.030397102689148 -1.1149617141051056
Ni 2.236200345877027 7.520304412117576 0.04979166367619338 -0.526933194727841 -4.0033860566815305 -0.5536312728443175
Ni 0.7127471295209408 8.792667796618176 7.104616786532664 -1.4405171103799708 0.18999449631669857 1.0833196617197924
Ni 3.9338748040375786 7.475152591463235 9.989503640750435 -1.254497796660936 2.261040718440306 -1.7723035751662122
Ni 4.464023853243199 9.061331045723945 2.6415042804329807 1.2167905119181495 -1.3222599918075741 -1.772899042658366
Ni 5.483457712379951 0.28115012157369884 11.19146002810771 3.2290510313621166 0.18184229952320943 1.263504628145237
P 1.416667885566971 2.0524198752781 7.371898376704795 1.1215555652725395 0.35780320056497733 0.030513080987192614
P 0.7578224536792972 6.129683111232612 7.219618407631187 0.8735281852818246 0.27251276672658875 -0.31069364867168425
P 6.139825979959396 0.3881158329891473 3.426360218032598 2.1181999969912746 0.2332967586487595 2.6450249482760255
P 9.356239203760568 7.821105633548533 3.815664107712462 -2.010356874663351 0.9284243230990722 -2.500949325978628
P 4.1100150690499415 5.383181194557782 7.272764584316463 0.26726154562997845 -0.23756170457270057 -1.0727141182898041
P 4.619613948470194 3.6615189462985005 0.18469559534718175 1.6867786567195144 -0.8949686145437877 -0.14844289812715725
P 4.393665964961492 7.406957381895155 11.903155094708572 0.9441895563531287 0.30689741485404565 3.23115470796868
P 4.476905485406453 4.013365051778132 4.30609164307743 0.6484455870127412 0.2668846219065339 0.6437849483122783
Ni 8.657722311295046 6.003501668906185 4.779863719143926 1.523071890454751 -1.863936406282861 -2.0953014951265465
Ni 5.9681244005164835 3.478135124197269 11.774206556910125 2.7416549754969495 0.167173384657125 2.269526901534446
Ni 9.109769382502048 8.394574365109614 9.57373007465769 0.3759302491829913 1.806436255183863 0.04589779097337902
Ni 3.1879300840618923 7.758954591564384 4.093422884630864 0.8221475168170033 0.22782905066596892 -1.3523267292859678
Ni 8.31600963053035 6.692121236953017 7.6334842833302545 -1.1199563391062195 0.0015264639468554357 -0.2333031864066627
Ni 2.7834619445546545 2.6497914008312624 5.350239536824168 0.06912308004990676 0.37740966194199516 0.41579983168441936
Ni 3.3245093834350516 3.973539653807131 9.030680505265115 -0.8889882285906368 -1.3697222990545959 0.15672827806440104
Ni 6.358775950687328 4.942419717511403 6.414720388083726 -0.09979299832993782 -0.5813320811936956 0.39231948917429205
Ni 4.588495929424795 6.526577153236234 2.415593128570494 0.9306907505357456 0.06598453442092507 -0.2706793130622758
Ni 7.1955815086708395 0.2875389955901518 13.416941420535107 -1.756730917538936 -0.950972383602917 1.1927175301293458
Ni 4.734150924185702 5.650531726016416 9.248422586877444 0.2119542884172414 0.13121265029179985 1.0171932024043642
Ni 4.871259088222456 1.5777071756313548 13.122472409049502 0.4896830521271308 0.5553618823821791 -0.7814536386420671
Ni 1.323587704774421 7.768323051319479 5.170923250626685 0.06102307665059167 -2.185643118235597 2.4052551803084126
Ni 8.828847806015116 4.121017342855068 5.5891853138418774 -1.0673094023344651 -3.6818590648397684 2.3220596813258396
Ni 4.0737783955819005 8.623563320433982 0.35043422570807237 2.1389174320442845 0.36878361083588096 -0.924011281633041
Ni 8.784621498522066 0.16069363923067748 1.9272659414409417 0.7179409628004022 -1.9074847231874568 -1.7538947336417214
Ni 4.591045812624266 1.9206947979957858 3.6237419544977416 -1.329087299142053 0.056477109151122085 -1.1255919401254422
Ni 1.6293187003910226 6.754687815458562 9.453365199229612 -0.8101389223919014 -0.40315308945468625 0.4627168079509321
Ni 1.921639199180775 4.367477720101737 7.0520230845406084 0.29359838375229436 -0.31141510021874114 -0.35334465057299147
Ni 0.620510298986586 5.740910919419896 2.6045989709259665 -1.6265546789314504 -0.5740872267058242 -0.0001318975921739664
Ni 4.410089101568457 0.4048893424357431 9.326048586678828 0.04366633053969899 -1.6956505052878474 -0.8835076650920397
Ni 3.326190417544333 0.15100691627624174 11.284622371803351 -2.4019076039924183 -0.34926559540761143 1.6084260876515395
Ni 8.830018863484502 1.4980658237012028 7.800761343221493 -0.2112130393758427 -2.6185659827535486 -0.9437306144388392
Ni 0.24065230995898562 6.983922315091027 11.909997281293819 -0.8577758075435743 1.2043826251721002 -1.7365169044849063
P 1.4479936728730676 8.606450770961976 10.817402551158313 0.11763645426926192 -0.8812409805450501 -0.3374400635275931
P 4.634535487193026 2.4754077220229793 10.761214458256186 -1.618011931567762 -2.099602950715377 -1.7172395443125326
P 2.6757907654540185 0.3162497360150129 3.185216819457418 -2.117896606818243 1.0177693866228084 0.24587742352724748
P 2.1571728547171185 1.9746012176349779 12.97020660599367 -0.522990408030009 -1.2995082999333556 2.1519531821823192
P 2.5771575056937315 6.033099202043751 2.077514503565637 0.34738431922449853 1.171465305618789 -0.9188297374321014
P 0.6184203391642046 2.3167483229447687 4.657592097723356 -1.3630307459670332 1.1917654506287216 1.191002347210452
P 4.042972028927548 9.030250802725945 7.300768912654952 0.7225195833100202 -0.957994066336389 -0.6253349691372069
P 7.116081816918435 2.776671700034581 7.49643656096934 0.2260462477339333 1.8042359050984347 -1.5604721854800803
Ni 5.50922097670646 3.6003784135822903 2.149044393717915 0.057656988391836195 -1.2123165353071959 0.9566190403657331
Ni 6.649783731829944 8.712941448581374 9.154624661184302 -0.08865420810429893 -0.722123376312866 -0.2837996524943177
Ni 2.4624033177056757 6.299014243701202 11.791304940364357 0.5256088194894626 -0.3115218009999345 -0.15694167962678776
Ni 3.229370408059225 4.018039837643829 2.4730939391197553 0.36869850732124243 1.1711948255662217 -0.5695574571562707
Ni 6.605784080621291 2.8342046202241318 4.811213116479648 -0.32258474368231543 1.5722907753815631 0.24031304206559256
Ni 5.636677360632622 5.559784216150789 13.209870127911971 -0.19059150647074916 1.207435553065811 -1.741249791184201
Ni 5.276813289092431 8.274380426296021 5.316402586767184 -0.23103598763904082 0.18566887235815122 -0.6774468593410977
Ni 7.745071894145041 7.673533504382097 5.442973122381827 -2.0446445922016268 3.0016081603909726 -0.07543796652434104
Ni 6.326354658006643 1.2456084989298506 1.5077884339006682 -1.8465480356030843 0.5674347543863132 -1.7005993646526907
Ni 6.1446046499554425 6.077731602046347 4.407975531716451 -0.8232687749056403 -0.9441103663757611 -0.4473956042128295
Ni 2.051702130377508 0.3550013498386808 8.951008932497043 -1.0422450031666695 -0.5539490611950524 0.5852789816565855
Ni 5.599628502145491 2.1606671391015793 8.800042625471757 -0.8792211219015438 2.2542254952906857 -0.44330163664911393
Ni 7.391034777916234 1.3985070507796258 9.69774317186338 1.1739176238140234 -1.2181277426723343 1.571666768644319
Ni 9.302361116156925 0.3797437164842168 4.843059268838673 1.0173261284378028 -0.6899637608611858 -0.056479937364599504
Ni 1.8379652541907192 2.4283765430105095 3.0466901648408102 0.27494940119253936 -1.9511973335840591 -0.8941412335464859
Ni 3.5005929843763157 1.4620180304701595 1.0447919753549004 -1.324392464769545 0.6071667828686124 1.3788677129992897
Ni 7.632716485166858 7.037214873959975 2.776077671689223 -0.3522408759858514 0.5007889322323053 -1.1874832783136
Ni 5.8507542212460075 7.247023041217209 7.39451111867818 -0.6351599256474287 -0.4886911205275068 0.14553703733427192
Ni 0.26608031186482384 1.780413445977468 10.061061862938262 0.2013896255275177 0.2802690136332399 0.6830960872070752
Ni 4.782730921141554 1.1800009486086405 5.723206230404902 0.9519324335233412 -0.11433644336175146 1.0299322472375876
Ni 3.268544169212583 5.766768623864905 5.1875097686386535 0.6615700402098413 -1.0943795190783798 0.6547049376588918
Ni 7.814164284838862 3.918736053042199 13.146067328255278 0.5230662555732669 0.6225748898935666 0.4296614201578601
Ni 1.436594750570246 9.425973787260181 0.3423246527325688 -0.44713155191816545 3.526048156383314 -0.8220572710960423
Ni 7.964276853192919 6.483229138845223 9.896659560254133 1.3875899233636362 -0.06173167268184208 0.5632281725041333
P 6.450363977607594 5.4988797837308265 10.81496977370578 -1.1887716581077203 -0.8072500308798807 2.0179339156796603
P 7.735089573619703 8.813973487351534 7.168821901094166 0.32844531622815043 0.9916744893079694 2.046881451951946
P 7.551592423376273 4.60496628609101 3.0731598412536916 0.9975484315902432 0.2353654682523301 2.2169110751109433
P 8.22032290246723 0.3245264680002596 11.685606615339164 -0.18958646224500253 -0.9272444438583578 -3.6869588479601796
P 6.344827145185034 7.357791856204609 0.7351624916466629 0.06386491697476097 0.2898913672143524 0.01648668480111354
P 8.092554866150023 2.560847697228965 0.9460529426618941 -0.2284448298730969 -0.9892519959094059 0.3003303031594892
P 0.6496242987174377 4.102941504174371 10.087765750845021 0.41654005228455354 -0.6803100398215057 0.7988345531226757
P 0.44445975208679683 5.77252947109334 13.586761752817521 0.3125373867486424 -0.6231230490875527 0.5939166027269256
