# total energy = -340897.71742399246 ev
CRYSTAL
PRIMVEC
9.00998404449431 0.00000000000000 0.00000000000000

0.00000000000000 9.00998404449431 0.00000000000000

0.00000000000000 0.00000000000000 13.18702239226563

PRIMCOORD
 96 1
Ni 6.166189696993707 2.1576478693755803 11.264789107199544 0.7799546854990373 0.12176770282881609 0.655779144559677
Ni 4.614823642813505 0.18079974249962216 5.983585254723188 -0.4009668804366449 -0.050174049751229716 -0.25532339943149573
Ni 2.7475134939440307 1.5180651537646557 4.815663391456054 0.10891192991207051 -0.293195748997237 0.37592562119730094
Ni 3.4968378131970965 4.342253610516126 5.006044350812249 -0.9934282387742825 1.1048547075780908 -0.35563396082780047
Ni 4.992990686168839 4.646493736147012 2.4387422474205636 -0.20349484479597857 -0.2914877651671947 0.48527232465394493
Ni 7.211302776999471 6.017110503737313 2.592964339474899 -0.13605866553019147 -0.2928864452869343 -0.4215480470221063
Ni 4.9900083815050005 4.650566248860169 11.320596947343995 0.21084588584441108 -0.8406365767601264 0.024677448142022017
Ni 5.641132886464495 7.875834137970419 12.257535259904119 0.07425757306299469 0.028337413492112492 0.31307783263314465
Ni 1.8523715955986475 6.391340184137671 0.2100101102342546 0.5753491241373834 1.0171582354013708 1.075774759492999
Ni 2.984394980098016 1.7157532100464477 0.3773885807482172 -1.1797861667796585 -1.4040750655028527 0.5974693530751903
Ni 0.47860043265242636 -0.05177136736680997 4.624702189138073 0.6993644853497956 -0.28276169814810653 0.8207033281713092
Ni 8.544915540800094 2.452094142530357 1.3603075440363317 0.6081540864825461 -0.16232274143304304 1.5427639695670399
Ni 6.83757765569632 0.6780111978518193 4.738413591677155 -0.8788007465346737 0.10321359397571256 -0.7893183861021245
Ni 0.8014524819814713 7.334108857265678 2.4905010008099433 -0.13501145521259972 -0.061178885502165596 0.10735024185190543
Ni 7.796041720740961 3.7351158468522754 3.7327318051179805 -0.8027588278777464 -0.6628100832645294 -0.12966741729186698
Ni 7.628546120436576 3.7274663705392888 12.669352791049489 -0.41376068976720354 0.5383141828712729 -1.2989495992164082
Ni 8.034031434912022 8.760425345193886 6.703899227883728 -0.5016795623673748 0.8312605348618652 0.6684683099915713
Ni 6.924055480963748 0.7067079965053678 0.4759316754275658 -0.3958465284909441 -0.0629190081217239 -0.9334590573095022
Ni 1.9439130318058855 6.434182657480723 9.338719447466968 -0.8961459226813406 -0.08428847493643549 -0.9116028806663591
Ni 0.11123726096599998 5.043473625840999 1.2979800795572778 -0.3453204947169343 -1.0645665494820051 0.2795992412597249
Ni 6.310034089616596 1.8231792478317725 6.867484495184772 0.18260720271369196 0.2882304345721617 0.40056116035779404
Ni 3.3117547243615566 4.269777300196144 0.5629609117083683 -0.10612279720270755 0.3753954597254438 -0.6656346971975181
Ni 5.9481210571783745 5.497288493841606 4.772422676825564 -0.21369801058122548 0.19905223564359267 0.17664532870330224
Ni 5.431218282059354 2.947904545389422 9.060816405711806 -1.1010733861587876 -0.5041462787403125 0.0446844873915682
P 0.19012687781081633 5.445544156426432 12.30045882310208 0.06661059804069817 0.5918175541060517 -0.02583778699871034
P 4.030805497782309 6.03225628663735 12.571201630668863 -0.7018903370954428 1.1425342244067356 0.7791599575118839
P 2.374220851867055 8.492405354755233 1.403956410936525 0.921822244401522 -0.6561933492789602 -0.48906958691284796
P 6.28233739917358 7.740873589451894 5.768979151712426 -0.3765282877783064 -0.32014708077510023 0.12641677156505324
P 4.75437928311015 0.9309565842630769 12.387980905501044 0.2784964951138494 0.6432275331469115 2.024549878334281
P 3.9816380157564324 6.0577905809494865 8.383227776103896 0.4700621925724098 1.2303553950867778 -0.8274205922904847
P 4.726015853860111 0.9969186762387845 3.692682426777314 0.24034672351700545 -0.7589467157888026 0.7028498727952347
P 0.1256964830944818 5.4414626337293965 3.6069803611218387 1.1728560153187284 0.7226522522331424 -0.24987446050178255
Ni 1.5431669688506169 1.005649350617211 2.7259553055175485 -0.6347796594898746 1.2153892606952488 -1.1184447875576995
Ni 1.6096966898106804 6.367544816714116 5.018479930561583 1.1230354922521755 0.6858978183219285 -1.5313896662918274
Ni 6.061322494629923 5.665928362098581 9.089458243463694 -0.013779056061963365 0.5346189934078728 0.5456845071934151
Ni 8.50896570512422 2.1535483267107876 10.246579839055475 0.4424896822707799 1.9880273579282148 0.35164078050800734
Ni 2.392691318818318 5.2925996800860915 7.121057877472373 -1.0436727367521315 -1.418291980433183 -0.19581907341827567
Ni 0.5321566778255999 9.240008767087476 9.21764959109418 0.7557647185163952 -0.5346429046672728 0.045851511116475875
Ni 1.470564518756333 1.1402945496999832 11.475425411313365 0.36326499501049697 -0.21588499093021532 -0.46446824342440013
Ni 4.085000550812479 6.838532713987457 1.6429579462971606 -0.2496484605339055 0.4695783109574558 -1.0630596259191756
Ni 5.682128313112421 7.8955299627291815 8.006949225369532 -0.6740105799660392 0.11052221182198385 -0.33237447607922754
Ni 5.139150644648545 2.8659317120613266 4.811113349597328 1.3262955953295288 -0.866522957608585 -0.18501915458929427
Ni 0.8568404568771775 7.426992781070837 7.038072321956316 0.3188245053089348 0.49271284009239014 0.36771454614141835
Ni 5.0737111317378 4.563628914414929 7.1239329633280555 -0.18037188562527 -0.26936059425085224 -0.3068051122505555
Ni 8.21007750991726 7.373176147363569 8.978502994993097 -0.027423643428591476 -1.070340732961621 0.14898205846007892
Ni 4.734854648045082 0.37236911872941275 10.363087039592104 -0.6921659107188273 -1.315668968853618 -0.7572011938526056
Ni 8.00056835478666 7.090776222654568 4.597246065264616 0.33330598675456147 0.16163934221277323 0.43919095691485005
Ni 7.316692558428218 6.201779133314434 6.9306507891629305 -0.14891829510167903 -0.6419823478859008 0.07603703356092066
Ni 2.2782465035915136 5.26446150043302 2.5101625876299667 0.01277915404253928 -0.11813036318654495 1.0356483237857583
Ni 2.236305028636327 5.190354383030999 11.372645822214269 0.10310406498104178 -0.555737777664359 -0.006976431317833147
Ni 1.2986810563030378 3.3742479725439782 3.8472613141932444 -0.5935286232598874 -0.04548795712947005 -0.04226276532395302
Ni 3.6340058077658948 2.60408356057956 2.7530681490052276 -0.1746658363794282 0.836846770700391 -0.5054976505618842
Ni 0.9908819870400789 3.3476595101180378 8.211360531621583 0.562841735698992 0.6128697467906606 -0.49542381126565
Ni 3.7326921611889143 2.4698077708358133 6.924729427757871 0.062167988888312285 0.45459135063032025 0.37546282262826947
Ni 4.00102750106332 6.707987057569478 6.167688958311117 0.6969988133310964 0.8002232059400863 -0.7283266769101004
Ni 0.6639321970430172 7.405999518633546 11.265581084782479 -0.067072111058149 -0.1565678412271368 0.36867048229678445
P 0.278822060110784 5.566187840561758 7.827460435524254 -0.3312406195851005 -0.5523598623310617 1.6141719889963813
P 8.582649353283943 1.7132664544959362 7.987801207630591 -1.3081698322630955 -0.8708264700799453 -0.26271095014481854
P 1.7251776531835317 3.2444951947073215 10.392085672705589 0.0791886918160249 -0.44381919971548084 -0.25224501761648815
P 3.954364794555713 6.1922916202902005 3.8221658060959984 -1.2317437907938722 -1.2829552806706808 0.08592703898112299
P 6.846245260187596 4.079972979808184 10.387997843019837 0.8426294388204392 -0.46570340138308186 -0.049126325213005716
P 6.410315210186139 7.741990827452849 10.100045966244803 -0.41084403034104083 -0.2167249703330074 0.5344791253958988
P 2.40206170205213 8.458807124871692 5.87199660438592 0.21181750572906102 -0.29776588486642264 -0.7633774978666465
P 6.875626817615922 4.023741670421435 1.4937733362293864 -0.027467609292649468 0.014887715745109845 0.845560239313989
Ni 5.170460338626906 2.879455697863203 0.41931563972919755 0.9178534895617612 -0.13930545460226332 -0.6258178223108964
Ni 1.4892692452884417 1.0728728403359318 6.996651624069316 0.20743814571444275 0.43037721527796197 0.22082202322051647
Ni 6.889907642063606 0.7812557021190554 9.167683824496653 -0.3086730186972297 -0.26261659065879933 -0.9431019797159048
Ni 2.8188185063597864 1.6725953872676418 9.165534042343205 -0.3698722159143694 -0.2735862022964256 0.4063109183573777
Ni 6.194066587114297 2.138789973117534 2.467779623464726 1.0365438390168342 -0.17548241874345263 0.8991515422768837
Ni 4.066989593039027 6.863598489137905 10.467805577221888 0.43895390120337946 0.31319636048887994 -0.3433191480161894
Ni 8.21129385774088 7.2463696342552355 0.2587640340000996 -0.3158782781964173 -0.46365191817069185 -0.05822340241826746
Ni 7.439084179436005 3.697580254013756 8.178156038033539 1.2104064627686766 0.5678052503518544 -0.626856805098372
Ni 3.1186977997933987 8.294230759343995 12.32348293590562 -0.1436624460193784 0.16116985877552242 0.7774956824355835
Ni -0.024418858307958296 4.822170401813226 10.03367572199939 0.15686840318669115 -0.12376390732323846 0.05573765988193626
Ni 8.621239114236266 2.156494591439111 5.830774126144251 -0.07361531149330548 0.904084717912443 -0.6642483583729528
Ni 3.618022096365143 2.60752537442121 11.523492774307655 -0.20638810718337358 0.9104278865216513 -1.2099133251823422
Ni 1.0689174574131979 3.265425387257461 12.598841558213445 0.4158754221173611 0.7067985730303374 0.2701391242880896
Ni 3.0659353341999354 8.29809604242794 8.067991866147487 0.5144540884242237 0.034305458150089306 0.3363072354747305
Ni 5.471042410803054 7.649719582551438 3.585920424803847 1.017768358181544 1.3912871697095652 0.0389666110711845
Ni 3.05071747142887 8.364932102839878 3.6516311382293396 0.41091447856766006 -0.9121677520308935 0.12409506541041208
Ni 3.4504814461413646 4.275390520152553 9.371225667304415 -0.34158828136801167 -0.8258488769279906 -0.027197386350398322
Ni 7.280139053832473 6.094848644642436 11.379042009769732 0.12087707269374666 -0.0721685517444499 -0.5859785788267715
Ni 0.5253856749407831 9.099092619225152 0.42594248287195574 0.4141268148573707 0.3667051310402975 0.08383673211099754
Ni 4.697580344739045 0.3914081156634201 1.4960943080765305 -0.4269476207711228 -1.076422420379327 0.09594508533875734
Ni 6.159504288955738 5.720709064080865 0.29837913111781456 -1.0221202073923366 -0.2369400118283016 0.0997678015189572
Ni 7.888448115400552 8.982115998528442 11.227997739029401 -0.022893359658405735 -0.20711058717169492 0.8138518524671146
Ni -0.021248244981056028 4.773606588707221 5.777273742871126 -0.2704522846531342 -1.279828562116241 0.2695755384751357
Ni 7.778805621581074 8.662405730577888 2.577442840247123 0.34570950262523686 0.43147173389372145 0.30638268000115626
P 8.5159844825657 1.5586641411219209 3.5386315244166724 -0.4208939583778751 0.47527818955571044 -0.1989051685427671
P 1.7800214250529662 3.03513019931878 1.6239820192503038 -0.46823413822473553 0.9654746909841502 0.2490056847435841
P 4.702508805920674 0.958400995157491 8.261524517864439 0.5277762594544265 0.4264771088926074 -1.2307289763761127
P 8.51571418304934 1.6980305717571134 12.479077248504677 -0.39310084742500684 -0.7530648030867289 -0.5550032134911798
P 6.30886279171237 7.670244325827038 1.3276959073875032 -0.4137334360736939 0.2917168504588653 0.16693015829806734
P 1.8426408130096892 3.193922155196374 6.014943602614494 -0.15155084762851964 0.07617690157289461 0.42121483205240356
P 6.778472161452276 3.859814023733001 5.9539009618365375 0.8737199895776565 -0.2977931385599323 -0.18840992543839813
P 2.302258110628156 8.43458828820584 10.237507686288044 0.7080455580635613 0.4625316885233196 -0.0007139953478890929
