# total energy = -340863.75419346406 ev
CRYSTAL
PRIMVEC
9.33867959606471 0.00000000000000 0.00000000000000

0.00000000000000 9.33867959606471 0.00000000000000

0.00000000000000 0.00000000000000 13.66810155703985

PRIMCOORD
 96 1
Ni 5.071145858742166 6.485619634120368 13.894308918529585 0.7486224510446591 -0.8396467020430314 -0.6952728317789252
Ni 2.0938627203338624 8.240450928231956 5.933514091268655 -0.11297195891405705 -0.9848456393115942 -0.14737511898427522
Ni 1.5727550568634732 7.216408671901264 1.8328653013150196 0.6384414246121779 -1.17492266803977 0.7430644973409074
Ni 4.232112185071495 3.1321744791785378 8.140105881462981 -0.14230516066053556 -0.15543064229890005 0.061590004897655204
Ni 8.705265030737499 5.512930777216632 8.521938344283477 -0.710480392757299 0.1800669527903415 0.5128777450760393
Ni 8.928076588643988 6.348126253548791 6.362993431560742 2.5896765534127075 -0.49799877108167784 0.07524487667692847
Ni 6.006097111157024 7.617869171622212 12.071913210976623 0.5430537544387873 1.156391442004802 -0.15875713556897175
Ni 7.9590858488839284 0.6374106460351081 8.56074242598904 -0.8780553837282168 1.6355928778743185 0.13733804646324735
Ni 4.201117107294067 8.289002723762191 1.5882199103733916 0.630003835367786 -0.22971264084192697 -0.26111506641260834
Ni 5.362792824391173 2.5948548678257706 12.347831038481454 1.475410065602414 -1.6041022634652051 1.0395558863702807
Ni 5.842558153025566 2.28836874020378 6.2954729099137525 1.2457226215714674 -1.4454590277662784 0.15679821207038802
Ni 1.6469602054080459 1.4394360660980159 2.2327531673819387 0.04890366767923836 -0.2658734070332002 0.191276962573548
Ni 4.8540495727849935 3.9145223673388196 10.734517162005103 -2.806689487299779 0.7487453497757687 -3.0936515966824785
Ni 2.3256487493895257 9.035237937693696 0.48639298958607746 -0.14573449805705868 0.509426296192329 -1.191437634975658
Ni 8.66975003200669 2.424293222593191 0.14805822886612413 -1.3604362457669796 -0.8944546510218466 0.4658530395870687
Ni 7.108518905838408 8.07491349265417 0.61711302580334 -0.11004732906809434 -0.3995517452566732 0.21144006778498425
Ni 3.095249339819711 5.568720049480071 4.107401589212706 0.31537202798396013 1.236194113255742 -0.37345427683867294
Ni 9.07357321768054 7.993797721164343 4.5281464624227725 3.539487826827988 -0.03163922417183583 -0.9094164145380015
Ni 9.009967470545241 8.216721343226702 12.567764415318042 0.9554543306336707 -0.5367134140430564 2.0434577709823776
Ni 2.4873386489491445 4.795402664546898 9.301115750700632 -0.245812374617267 0.7847377087099776 -1.2321083732221427
Ni 8.508583098507792 2.951928623142948 7.485868802424147 -1.9928798009245094 -0.1082994931390522 -0.12186874718305463
Ni 7.622342399177315 5.693438116282584 4.785188950607405 -0.7111007999501172 -1.262197479298039 -1.7557847515755827
Ni 2.1292749935884583 5.884834355827136 13.558114583186727 0.5468754421777227 0.6869918227170555 -0.8777352813846366
Ni 2.473629467214507 3.513696897834463 6.07910690870566 -2.157146039237169 -0.3904628955815275 2.106779413859159
P 0.9581018392814571 8.432556907430348 8.937653404630957 0.10254510715377824 0.25707149247085403 0.1963219811966232
P 4.131553282538401 2.8453462722318967 5.040686821176979 -0.2774058331528319 -1.911580233413069 -1.9319174023085246
P 7.524482375064733 6.369810667709437 10.668008019364832 2.646575837702913 -0.09249260801378263 0.9968478059787929
P 3.8337708043555674 8.285332622657483 12.59641268289798 0.3759325631758364 0.9838876462736991 0.8152258499965056
P 3.5840918650794915 2.937612427230686 1.185744296173865 -0.3794883988478948 -0.714303366047815 1.913234995407673
P 4.834372974750333 1.6883679110016323 10.315849211150475 -0.564043469316577 -0.434921897225851 0.01035126132733701
P 2.414571657071557 4.564429100621283 11.514609759028522 -1.7052183514819406 -1.463675293663989 0.7286820033669902
P 5.652179829563489 0.6401319372867932 4.103136614213925 2.958153688751764 1.081967261456956 -2.83994953490449
Ni 4.181001591315586 1.2103022220645852 2.6433702425053465 -0.6422497426146746 0.938517702779332 1.6803462708306094
Ni -0.052444157210749125 4.017761470933113 5.355203279434947 1.5185673177161783 -0.04271862191444901 0.7403717810000926
Ni 5.5934675505678015 6.0667518355211065 3.8491833612594135 -0.8283366763468509 0.9832883221268033 -0.9300400043256241
Ni 3.509373089153852 8.509414240997154 3.825605996732547 0.46107927234750906 -1.1753594984668725 -0.13713132976907996
Ni 4.740967500833542 -0.0585759342727132 5.617972245984485 -1.3347316419120239 -1.5547982750237548 4.492855450135959
Ni 4.219785127925907 7.929314138141405 10.371601128695291 -0.5178150344766566 1.2764483327900984 -0.2641181149049903
Ni 4.400339160390137 7.644391021844536 7.753982295340669 -0.03020300594594153 -0.07257735714709436 -0.8699456101368889
Ni 1.5812532553502037 6.707945580684758 10.621195085986498 -1.7520453391378086 0.09043058327843136 -0.8613910356986586
Ni 3.3046972471388254 0.2548675096928097 9.118878888162435 -1.6187668074559154 0.9072993681949987 -0.06053148172615382
Ni 8.756749171679637 8.343596645029693 7.302169502651861 0.5408405488375525 -0.18583110896762836 -0.6024503512295496
Ni 6.519621766746945 2.91599338382763 9.332620720387263 0.18910849416731948 0.07154325945562519 -0.7376456403181811
Ni 2.306962051398374 3.433290865998474 3.8300343986253025 -0.444217463595164 -1.4237542890993349 -1.1814239594933975
Ni 7.29027762797823 5.228269143950124 2.2193166750932485 0.220699124489407 0.28494944982804477 -0.4410208110347373
Ni 0.5752888150971075 2.2400130569463172 11.60924793865987 0.7224406504429687 -1.001255191017869 0.32883586679834975
Ni 7.028019487205862 8.039697331672345 4.709003068107848 -4.103470618109959 1.0413577154657099 0.9710185036205148
Ni 5.202167534312308 0.9168146026554299 8.137850590326117 1.2444445261899921 -0.6269601634454557 -0.7032373380416406
Ni 6.229945262505302 -0.24927457444698228 10.158160935823345 0.02579999178223944 2.737427567679163 0.31146163718596037
Ni 9.235972856893996 8.907372735847193 1.7050822798494898 0.36033265185505037 -0.1681167224070008 -0.555199902883018
Ni 1.09224263385662 1.4311153025247445 9.030542449562784 -0.6429771076990023 -0.13354926884477644 0.6145885292539802
Ni 1.6888815383826985 9.107108416324332 10.911545842899288 -1.1257042973335902 -0.6417208666943981 0.3554753237627491
Ni 7.610921193958335 0.7028178244760009 2.8954912465114004 -1.0919513692528613 0.4004444322742716 0.7412798946366589
Ni 7.6268716588103525 3.2806781630642416 4.008922410638947 -0.6524891609544957 0.1750234768291631 -0.8387900104696909
Ni 6.686578681632406 6.323051898673107 6.8513550148182505 -1.42188046911539 1.0550017886117056 -0.0005720704533861115
Ni 8.528679937126961 8.420958267297909 10.430470297509194 0.15441737054303728 -0.5437523231677087 -1.4202439619532314
P 1.474362728010513 8.769748613760438 3.3723718570001338 -0.5136655310846573 0.3448942058127932 -0.06980493660827979
P 6.490858633407242 8.556976136483877 7.378820451398273 0.23473374820560217 0.6574711875501192 0.11032089444445517
P 7.008053390101873 0.8538429518687563 0.4963732365341753 -1.0599503908662327 1.2072002971265532 2.579182852970235
P 0.1574165197491491 6.145598307854586 0.4791396370974581 -0.13795613966322048 0.7147229700837369 0.8951601617293035
P 1.047342262071784 3.6065980830498434 7.968502973448785 1.350951703315312 0.6340006152320049 0.01512502856689653
P 4.306952363832658 6.082833041888304 9.350566861081713 -0.5134768121126189 -1.2443529949174506 -0.285019898054664
P 7.5729127677594406 7.468889215074065 2.677020306908903 0.41493542680159506 -0.3872585297116169 0.5902278410214287
P 1.5286391341697199 5.906257286957422 5.583692754572131 -0.0698545588992926 -0.07898300356312203 0.3652275180535065
Ni 0.3501435211446466 4.349938306288066 12.84586936159825 0.8347310099089689 0.968647689395493 -0.9569095750229583
Ni 6.719357447224082 2.819384742788918 1.7098935676081313 0.31744099469784687 -1.1531096859297367 0.010655422831317133
Ni 8.119440317252776 1.5582334099987851 5.527571959180913 0.38734594721910065 -0.8918007583387674 -0.5948167459436917
Ni 3.6222030167545984 5.173796625518147 6.991288592383874 -0.0007453628064567808 2.464110559883724 0.9072176071144699
Ni 7.465984885701127 0.7371262657952877 12.208963004264554 0.2517693635316503 -0.09010456739758031 -2.2336088474815985
Ni 3.00702683311186 1.2419977008161935 11.982209589675373 1.1524345142395829 -0.2353004193423496 1.3281550171357708
Ni 5.288634369244879 3.7597804454430763 3.414004624773423 -0.7769323537329458 -0.8064473324729273 -1.281709838299354
Ni 6.083468072104894 5.311420747604903 11.75571579038062 -1.792139378945217 0.2193233271878029 0.1684964743439227
Ni 3.4764168886487177 6.329729054626967 11.731044866466068 2.8893730796429398 -0.6305951890948817 0.48169592015659624
Ni 7.745398181001105 5.701282607193412 13.08456974907103 0.8535892802660526 1.6312690536879841 1.121028746234792
Ni 6.288386719790972 7.081455412196052 9.213544149964786 -0.41567744717394217 -0.85666766208106 -1.5605017531664351
Ni 0.8715378820804672 1.0309248632369792 6.736802100821019 -1.8399367009341538 -0.2339269360335907 0.32695407639460466
Ni 0.1185190512470279 3.4982040282855777 2.1991152432619345 -0.5278117406780524 -0.4306860047676324 0.02177672955545927
Ni 2.24984668662382 4.639969680356629 1.8024809731870783 0.29837292232280227 -0.17928508031899446 0.3618290338949188
Ni 3.9401103495955687 4.26370493834689 13.264605484814366 0.39587609617729885 0.7550250121368932 -0.6982069747065847
Ni 0.2684889078386836 5.541796636032548 3.389415881239839 0.5325528549074634 0.5767478042571228 0.12382998467448351
Ni 2.093050255203812 6.840181284610148 7.9258999168592625 -1.2548441242567616 0.03817573973877297 0.12875081901486857
Ni 2.1654250225358584 1.0076155188162326 4.891991694358332 1.1493471335635108 1.135467290257625 -1.407924778266246
Ni -0.021111953097749304 3.595615795774684 9.83403497619961 0.49846311231260604 1.1504881891464895 0.20561009136676847
Ni 2.6893903219809068 2.7574226032730302 10.23455133540736 0.2662081646647996 -0.9462207278505447 0.3142813660229426
Ni 1.6749388896566666 2.795328303995711 0.19461995176171762 1.1824542005301248 -0.3294886698910003 -0.30935513236591883
Ni 5.326997665270691 4.3179626671467854 5.664689924830329 2.315987764100147 3.9104766728453035 0.8765626012327743
Ni 4.7056205983365365 1.2838630017129113 0.4991262792966898 0.8481339135784361 -1.2817687165617475 -1.5139804696764443
Ni 7.7084356869236546 3.5863051321579036 11.82730891022548 -0.5969831574673912 -0.7816732108520409 -0.28494405051140603
P 9.808788789618262 2.1712430199613895 3.9446685591355393 -1.431725994450902 0.34421029237189105 0.8346407641880077
P 6.296996982433571 4.244103049749475 13.912487592347464 -0.5487225226887904 0.7884493532336099 -1.0845321939706547
P 0.7075693446848456 0.8508769872100908 13.29246089849153 0.27833580116626905 -1.3208646541219446 -0.15975909447092487
P 6.616090327590822 4.411265415587362 7.696904285284738 0.30392110583454107 -1.5632993705162304 -0.2582814536185552
P 2.878601310486015 1.5101672258106504 7.145806385967878 1.2676595308538747 -0.7415084657076971 0.7796466673403153
P 8.134494268857841 1.9042968620018357 10.326715698797903 -0.11536488462626583 -1.1408990027961579 0.49808438881694866
P 4.421201770741078 6.709206302438283 5.54207306095036 0.03900389206702315 1.029427282576711 0.5850393548419537
P 3.8459857973452856 6.106543949534248 1.8481321748162363 -0.7591408340774797 0.5400067400823475 1.6212684908318467
