# total energy = -381168.07787201577 ev
CRYSTAL
PRIMVEC
9.26266770459474 0.00000000000000 0.00000000000000

0.00000000000000 9.26266770459474 0.00000000000000

0.00000000000000 0.00000000000000 13.55685047047231

PRIMCOORD
 96 1
Ni 5.173496250571816 2.366305899473674 11.635871391208465 -1.06241247925348 -0.7846423207826938 0.8198193829044591
Ni 8.017348239964205 3.0848388119041297 3.7577558652876717 0.9278954471787955 1.1000570290791314 0.49335510166207935
Ni 8.11043804917522 8.959889505226421 13.272793163177981 0.541857420137841 -0.7629653500298925 1.8684610336260918
Ni 2.8607007817262047 3.415543832626605 1.703350845075848 -0.5191676918498092 2.0258238599506977 0.39251052213917564
Ni 0.2765369406960059 0.7824351298200951 1.438612690347304 0.27494708719969424 0.3746696373030128 -0.8222745293131709
Ni 4.015922157365946 5.44238222784411 9.64846417189258 0.0343404251530828 -0.5239010927697365 -0.47674757501238546
Ni 2.7799395830684093 6.549993492106276 7.586752759491141 0.30111603228557815 -0.05491182154653124 0.9210766244847491
Ni 3.878908778475464 9.128108811204656 10.64802456626337 1.3831781674491856 0.41260832133031516 -0.5771321841797351
Ni 7.6572064616623665 7.109764282160932 8.028556994006617 0.376601564218403 0.07314351406320951 -0.010507584399543196
Ni 1.8320352332755288 5.838444631033543 11.329324333809694 -0.5195710979358148 0.09884246149121041 -0.9119013857433843
Ni 4.401906778224872 4.166005160216302 3.4768849224294933 -1.4826968290718143 0.47313208974698523 1.1497644236065876
Ni 1.7071652115866038 9.075394969988746 3.964918204585892 1.0173299850925448 -0.3114840057834635 -1.3968993736900202
Ni 8.102888975094924 0.36061046928154816 4.078442384752174 -0.29043721241549336 1.0282018948100422 0.021553043580427395
Ni 5.10567499852773 5.60538665197301 1.9174675951955247 0.490419158962207 1.643528330671311 -0.9742624644791092
Ni 4.642995490080027 6.913719922762809 11.218428898703523 -1.3438870831590466 -0.3766576142673191 -0.640923053383451
Ni 3.8273620333750364 6.741313891036976 3.782890113774646 1.4942647364150718 0.40748719805366596 -0.6065533176543296
Ni 0.31592921339377755 2.4546346975469313 8.892521197627156 1.461914087998508 0.8902760941641248 -1.4493401079882393
Ni 2.536618568325707 2.1034777068007826 7.535331060403085 0.6817323740903292 -0.0922861484299314 0.7461318234123214
Ni 7.287496347747097 2.06936330209191 7.734372819031128 -0.8063444883464757 0.07215903866275315 -2.5112591925450682
Ni 3.1247145958497438 2.296483911231621 3.9368412066077405 -0.34786382996407833 -0.8017861795518321 -0.17636122180398014
Ni 7.22109228384324 2.665332597061654 12.206574907811554 3.3568315160439157 -0.38165249637874915 0.8566730613976988
Ni 1.9334521806438278 4.837807914689586 8.60378717625761 -2.362410060118428 -3.5396248666264847 0.9200373845869574
Ni 2.242482559221649 8.212512645941926 11.899362790880312 -1.5820504258714883 0.5070953340663072 -0.4048862700957091
Ni 5.911804958292373 9.048875952698086 7.423215731976207 -0.25298755220946756 0.8447387718539581 -1.0556592196900465
P 2.3192793361538406 3.4664144029934603 10.175541450445625 -0.231452249240853 0.9152299358959851 0.7201508259675274
Ni 7.457419984560636 6.807875420289746 1.3618261023494536 -1.3683506155180498 0.9655086295458791 -2.6377703235961407
P 6.218251052614485 3.8126621799205207 2.607809578836555 1.727793151458663 -0.6671202806041091 -0.6290959788415359
Ni 6.6586631081922105 7.341812630454897 5.745163084603556 0.37552427199382427 -1.1424041265867744 0.4917839005202176
P 3.6456470207281018 2.452254191978053 13.5370163135889 1.159478822680874 0.12181012603097732 -1.420209252060554
P 7.981955587128853 8.793078124720832 2.08568041730645 1.9042790717659654 -1.5456921989574284 0.1329003224068679
P 0.21329978283883952 6.7029386592398374 6.847687291829037 -0.3162464601691134 0.1627667709489971 -1.847959314128314
Ni 8.595227545143988 4.856129471169127 7.818371320009246 1.660018872127167 -0.7036975655075107 0.24525444523126796
Ni 8.541957943873088 5.093272286633845 5.290967253395292 1.8814692729603015 1.6596146947102126 -0.36931968584500907
Ni 4.2168201545776585 0.07594183271426372 3.3559848800667216 -2.3226160680499417 0.011934546654056865 -0.6782027636705159
Ni 7.6174696177305 2.689258067429023 9.774448492491764 -1.0148103039944845 0.13514823790078018 3.146118299122627
Ni 0.577586604884154 2.769028160655417 11.211311464932603 -1.5070521179877272 0.7499044030808762 0.40369687777329827
Ni 6.674780149786953 5.736175518247591 9.715435111052528 0.18790573210846992 -0.04886612957308359 -0.2675428243158231
Ni 8.643976964634295 5.600227346129175 2.6776676914821826 -0.010620712938639774 -2.4303550606998336 2.9303929736987273
Ni 8.093996814215066 0.08337327091625352 8.872280416424378 0.12333427598498761 0.7702390008731702 2.2233632584941905
Ni 6.327383802079577 4.825998013521025 5.093702074409705 -0.9496624065422419 -0.08530174669229826 -1.0417649782064573
Ni 1.608610428501509 0.8937909195051522 10.288754404981109 0.7260023996522981 -0.8080609568169503 -0.8023587642258504
Ni 7.76674676850112 6.050633820029159 12.294259950487781 0.04073604426678146 1.6929053384425428 -0.42321335053967113
Ni 4.027426390504262 7.717784307656401 1.4982763110508772 0.6148960331920701 0.3986508307089586 0.8644830443604208
Ni 1.700329362910213 8.39989641114977 0.6893768136788627 -0.5128139817176394 -0.4946488807728384 -0.13326310506292535
Ni 3.564135545996068 0.6870583679827914 5.603466500983015 0.0033339494692394196 0.23473760486034412 0.41506166796681426
Ni 4.567300970590234 3.317665224275083 5.615233793880694 -0.9094385260251885 -0.8909458665376399 1.228244519391362
Ni 2.567463251377715 1.1978481718575607 1.40165649922391 0.6889404618029942 -1.3792806321669924 2.105136478939097
Ni 8.391680425003486 9.033750016534745 6.745861860820319 0.5382936140459826 -0.28953784052967557 -2.0990547915213917
Ni 0.679325893084348 7.405141488721137 2.6279003048244847 -0.3065814262755236 1.3721064830160563 -1.0469493506208742
Ni 5.546763228839028 3.3896732020667675 9.139892776903984 -0.6367208423766453 -0.31206044711222386 0.7108971685797435
Ni 7.7397368298285505 4.443635095687124 0.21969009720447927 0.6768819879765633 -1.334877680571585 1.219004745960649
Ni 2.8711861214303713 6.620176724384074 13.439244225914583 0.9120211991507002 -2.196227835729979 -0.6045892519494233
Ni 6.346149966603111 8.27329427062279 11.924090408260383 0.34329060877109907 0.5330832734896368 0.3899072801883736
Ni 5.540723969574791 3.982289411371399 0.277089921950722 -1.238551814854641 -1.078116520252298 -0.06300179764351731
Ni 8.550664851401281 7.450769389235909 10.39607074533314 -0.4378496123956072 -0.02273677947588342 0.6507071293534084
Ni 0.9274060664312911 6.756652868554731 8.869013473567788 -1.7891913520604863 1.4252401296162422 1.3122905392996882
P 2.7648970109133164 7.365145290096942 9.920225281182695 0.6941351186300562 0.02972555208889074 -0.8793324506684276
Ni 3.8145888147778235 4.477240053678921 12.01127434062036 -0.025371903105885336 -0.5104017727317209 -0.21548569860926756
P 6.502513058074867 0.7242451995290066 10.544233597193502 -0.014103786391233775 0.6485196347837863 -0.04977321476838524
Ni 3.837050783667048 2.0791261537245878 9.944532373454493 -1.0113282589831551 -0.6529807558789334 -1.9645673271330617
P 5.320865291820298 6.585061951576217 13.06794926957583 0.4423307880954124 -1.0349343284378694 3.036800392021389
P 1.0327225968521112 0.6025170746842982 8.05237594369678 -0.4002156040929172 -1.0049794339469917 -0.7380382477709095
P 5.499014177447706 6.695899031876616 7.5259766924108265 -0.709888781919887 0.19087432781849065 0.3521426598450903
Ni 2.345233330721926 5.793316914568263 2.145533922695478 0.19070797744395543 -0.02358138686436584 -0.4200925455225023
Ni 6.01609333261146 2.075430349358897 4.320283225215083 -0.35634049997652184 0.0654155492913325 -0.7432755849104489
Ni 1.7599068408052627 8.264679989770427 6.120443766803353 -1.0236741821430178 -0.9562896820507725 1.1681318703701817
Ni 1.7298865351681583 6.381255476743386 4.528896098256831 -0.24753527084564464 -0.6774165203237945 0.9108318068282895
Ni 3.852537963866135 0.042146990037011084 13.28041263353191 0.5625964524574053 0.47954287836933546 -0.5925891421647536
Ni 5.669011915601912 9.1462080636622 4.914195281714601 1.1779002626108552 -0.4027836219304095 0.5705658438161271
Ni 0.34635337133750893 3.572157016123107 1.6330851750565605 -0.06330261671338776 0.5473742361910122 0.32135215682679497
Ni 0.8973737193263285 1.0459496861609003 5.667264976495724 -0.5255661391769852 1.253457271211564 0.14821432705611895
Ni 6.55523616195836 7.0797810271941595 3.418318927834527 -0.4567220238200779 0.4141378706009642 0.7037219909875428
Ni 3.8468877366403915 4.209187716489113 7.6422268756468394 0.7638588083784393 0.04775335612487905 -0.9835428613397705
Ni 5.899800541104564 8.040189978224342 9.4638879212292 0.1689487313899929 -0.09096048763997237 0.5773394150945348
Ni 4.869893795197741 2.063713074866167 1.918253995673337 -0.007817953382522018 0.767163190161324 0.5669662993903268
Ni 0.29151837924505025 5.9309601548544 0.6521547839958315 1.810878864336249 0.63063581252483 -1.6607171837457722
Ni 6.003181174000499 1.064651012011352 0.11054067493773687 -0.03498988581162361 0.1909254927714002 -2.1504902244835478
Ni 1.0538877922796903 3.2897104935090287 6.354746648387065 0.07731512894239588 1.0762720108443915 -0.1267996088257687
Ni 8.937297858991032 4.782463475880053 10.258563666260475 -0.2331347791495985 0.48562662266957013 0.0035779471592454503
Ni 1.4499594581367063 4.126583246982264 3.6560249134883023 0.2162678281909308 0.6119343794605848 1.2481985939157858
Ni 3.258828759786688 9.020865645926532 7.850216371160238 0.06363814567593556 0.0617013336645389 1.3865622534300701
Ni 8.657176265940334 0.5167771922005406 11.305559107591517 -0.1824105133218536 0.6681780324446621 -1.009698693799532
Ni 6.142871463822521 4.613901451201241 11.545691912152087 -0.5867455388997831 -0.18978906517411187 0.0045696216485534204
Ni 1.7163352524939575 4.085290274896423 12.968659030684632 -0.09280268305503372 0.08533259993023368 1.2059913644201163
Ni 6.379375155223998 4.696524446043257 7.541919595855006 -0.6189064399030438 0.4466893221744242 -1.330323228431683
Ni 3.9175155769621814 7.330141669300083 6.047303891033002 2.904365182176398 1.4015427859993024 -2.1546641533555797
Ni 0.8946023291854394 1.944937888446978 3.295114333777059 -0.24671097517213636 -0.4976645276707107 0.8485172650597839
Ni 6.0816452310976645 0.09115205915261278 2.1071957415686735 -1.5307780008497573 -1.2059175737593875 0.8414984105397895
P 0.04000082995798698 2.640221505243638 13.383078188490423 -1.6001257953159602 -0.5599379317886357 -0.5911344119960981
Ni 8.904146771710812 7.552529055304786 4.673955030210067 -0.1354796530982699 -0.31018097070132383 1.1715689210761886
P 4.7103999220828685 1.7058962261277073 7.45146872063844 0.45885269700983555 0.377709195460285 -0.06605189732375076
Ni 7.542025190265454 1.8994952412838695 1.7648040131564928 -0.5086174271377886 1.3000798561661093 -0.3162883691506424
P 8.254416954088258 3.2098848242771356 6.124619377349853 -1.9307984582127327 -0.805682943503077 -0.004311997111792573
P 0.31329861580015284 7.291368142796869 12.394201354910077 -0.12483939977560435 0.27703019498096804 0.31522598932439905
P 2.629736165539472 4.632287846353864 5.700384570706162 0.9149512283133018 0.14916872054958824 -0.47507944328134316
Ni 1.756285137780237 1.4713099069159492 12.770241575851696 0.4366198537535642 -1.3240898459274617 -0.20929293953499442
