# total energy = -381167.38475398626 ev
CRYSTAL
PRIMVEC
9.23085484793386 0.00000000000000 0.00000000000000

0.00000000000000 9.23085484793386 0.00000000000000

0.00000000000000 0.00000000000000 13.51028913905257

PRIMCOORD
 96 1
Ni 1.1455860335057675 8.103176862216921 5.876570933846844 1.209140965792692 0.162616618524378 0.23711381840200454
Ni 0.40095049629950014 1.122665820449018 8.516157008800576 -0.8382354235178016 1.411925157674891 0.09616979975505373
Ni 1.1713678116239716 1.8937283725405725 12.81550897378483 0.9351058488843056 -1.733359589802847 1.1635046560108155
Ni 4.580451808740495 6.079496512466153 3.0680648271444277 0.2516567492131859 -1.7038608090127818 0.2699326647042383
Ni 1.4825583966296638 4.0181081198894395 13.310809885588016 -0.05738625122895278 -0.10228516862417224 1.4679245558586462
Ni 6.11498915008323 2.7529640519450824 11.500417672321037 -0.14532826375757552 0.24206524887000896 1.9806763168797823
Ni 2.999326342026268 3.8677744147576556 6.806875889266344 0.17364845085850736 0.7114039330128329 -0.16567211752125013
Ni 2.9400180984138578 7.3894286890497956 10.47379797544599 1.0892421978518143 -0.7057449349548426 -0.10725948191031205
Ni 0.2331667828058639 8.067988842816064 8.051673306538254 -0.764613941376909 -0.7123117895390829 0.8696242222417281
Ni 6.398348707152515 7.337689746567685 2.7624081397333877 0.877268111940231 -0.3999386962824467 -0.8492572285496018
Ni 6.613003010181773 2.453570499676614 9.435964635872054 -0.7564892553872457 -0.05116341024769253 -0.2622895463366838
Ni 4.856685145721254 7.518845276667849 8.759977121404585 -2.2745279542934633 1.981648965205697 1.262737153851593
Ni 7.748093561510528 4.083656421506829 10.4812694295129 0.29802530917539644 -0.8119703191736853 0.40567585587654004
Ni 0.7924559817251919 1.443345724432696 2.7456559840123287 1.2406639761016376 -2.1702026153108105 -0.4158736223451483
Ni 0.8520909976059102 3.8180201061084897 2.380539666966272 2.731339966724186 0.6108827982676189 -0.9922653288144331
Ni 3.203937474775324 7.285830802970095 13.221709980429349 -0.04614333132528182 0.8797407418504397 -2.4239388727608446
Ni 0.9120057083942481 3.6893604486034666 10.78200791736025 0.011464548996173803 0.13908459684070884 0.11692014492852766
Ni 5.5568085768538396 6.818758768955411 0.3411142477789763 -1.6923792907357436 -0.19330916251222838 0.43949460419819797
Ni 3.3550558025852486 7.416585864568505 1.8666358130071212 0.6055958388370667 0.9036165200267727 2.4400038966435074
Ni 4.031631322518573 1.4468811419118481 11.949823695966003 1.3301715333451671 0.6832542100514942 0.7419236988682448
Ni 2.3642896697592235 3.400508532787196 4.410825616581483 1.4092517246077858 -0.20434613705268032 -0.48301566740928426
Ni 2.403806960172411 0.9387779572579171 4.802326486579656 -1.0518442168193305 -0.7003289061455938 0.7853791989487184
Ni 9.271563107663958 5.47264164062692 12.360509975072977 -1.1702288621085266 1.6111774251444317 -0.12679266684723325
Ni 0.6878297783943745 5.625236905242757 7.469176814970527 0.4397517145143265 0.5232382623747569 0.06598402020029281
P 8.703191670473775 4.54825458637161 0.7992932760510615 0.9129159430508278 -2.2826796368663205 -0.1360787201348495
Ni 8.517743792781427 3.0346435933976426 12.460216132669098 -1.9639613181179467 1.0618398945794616 -0.45637543911393663
P 4.525297449894713 5.397945561667912 12.218638194753565 -1.4247534197878107 -0.28504149532121875 -0.23318928653661777
Ni 5.56667636088834 7.06577644974422 5.109132415442796 -0.2359143987772647 -0.5866570929510349 0.14710232493886277
P 5.450579897088607 1.5821131682031804 7.372389453737088 1.6691421745846737 1.5128245016951298 -3.187179330828995
P 1.2362145682585526 6.240851858512056 9.61690785630637 0.13203128953835327 -0.43722920520278896 -0.7701513262553704
P 0.949347286275226 7.6688097475981545 13.211508962528015 -0.646525487171893 0.2457103018217639 -0.1872562714499291
Ni 7.257335153471027 4.9943633485973775 8.085962240658512 -1.1688214402380386 0.37491157811048975 0.12044872690707643
Ni 2.9787415352938673 6.694382228187534 5.453009458134332 -0.30294254397135567 1.143323038856618 0.1001904908786726
Ni 0.832140350614548 7.875442437600303 3.4554588897366614 0.6960984130040141 1.3836183403103977 1.1575222131751353
Ni 4.7353824796806805 5.882851607613985 7.26548230612664 0.010222963279588845 -0.4203326865577664 -1.7291427235080223
Ni 8.241362762120078 6.160146492923994 10.095928309080882 3.031240124324792 -0.4451147785984528 0.12189805775909328
Ni 7.211577805052861 2.4800907461977744 4.884834638156435 1.62870514961555 -2.875400933733564 -0.43632340555906796
Ni 3.9306549992693656 8.79959872047969 6.274435555307492 -0.41795827278831893 -0.013930236927846977 0.30086149307261084
Ni 7.1994669232443815 0.546940161050895 8.36505806578623 0.21586622187713791 -2.215787245919145 -0.39406475400017293
Ni 5.402625605171647 7.266316775421981 11.38497198380141 -1.2335803297819787 0.9921658271220912 1.5071112533604367
Ni 4.269731997341687 0.31477307984553293 0.712196466435414 0.8906401623717629 0.23167310700240745 -0.16829438563544566
Ni 2.056468346842019 5.6649018893365355 3.471077496459182 0.742713798869708 -0.24251210659944042 0.4172262797183008
Ni 7.675622118615425 6.253267358536756 0.8794632520469811 -0.05735976886639153 0.4957683390892623 0.3601040807840121
Ni 4.906734841731602 3.8939715813525226 8.418923797268853 0.7863644456801231 -2.66253827456944 -0.5063319735377215
Ni 6.5370423040827035 5.09774892501123 12.460202286386542 1.5580826022019811 -0.8976399907283638 -0.06044457843930235
Ni 2.257802526052957 3.1405307315265074 8.923032790948296 0.4303515042463492 -0.8502848984831679 -0.03328601574663945
Ni 6.299643174242398 2.0694838524441197 0.5080477995237094 0.7419928615432835 -0.493318334886873 -0.9073011679672115
Ni 5.9262089337225445 4.45963837801688 1.496508064761504 -0.25581730834877875 0.49996463655879697 -0.8891574071786492
Ni 5.696803724344239 3.401597773681556 3.5627712718832316 -1.4311536668871998 1.4846112724857077 -1.0668679439216724
Ni 8.27269228411549 7.117783087022403 5.841646916900045 -1.2602164443122683 0.1300991055126469 0.40683310940943485
Ni 4.441527440434382 0.7869867001157985 8.871004922703529 0.7211466142218934 0.8138058297205275 0.14191743830381365
Ni 9.123195574655044 3.773148919773871 8.572683995790353 0.7037572151008525 -1.2228608864819457 0.3567439060625275
Ni 0.7102330635690546 7.971886411026367 10.85700399910796 -1.8672636708838808 0.28721022083776343 0.26305007865179214
Ni 0.16719109260026396 2.697486613173007 4.40531387303892 -0.5669189910921592 0.5289934196909793 0.8142940822108556
Ni 7.4786449029819275 2.582497851977709 7.371538368902681 1.3693068087837321 -0.03779418802963814 -1.2987066299676666
Ni 4.257787270923872 4.979077052656186 5.137165599104513 0.6731135220730666 -2.0710678193901617 -0.930399958768204
P 3.958513719770884 8.350582238917283 3.973187086937621 -0.37201085952392704 0.1500513802648577 0.12836258243751444
Ni 2.323286211685087 5.412447234930962 11.712664568356658 1.037253206379033 0.394762551398146 -1.0272269324912824
P 8.31262496300534 0.4619766020342869 3.8649968504770373 1.8336161580327648 -1.2613346170771116 2.290368006649514
Ni 6.9033503245140295 7.738899629893725 9.7578602434641 0.7381716880249803 2.834729424156131 -0.06480722628337227
P 6.83983281100477 5.351246666035978 4.355528179482628 -1.3224047449155547 -0.6929881495098065 0.8349472396848331
P 3.702274414800161 4.148752411227407 2.3834178475667938 0.06335763832103927 -1.4039817344580983 0.5999628089210054
P 1.3172614754829821 5.134238494972297 5.395482769544054 -0.1750517589639372 -0.5323481950958251 0.8344543592088145
Ni 8.512740669351402 8.153125018821864 1.7771297502268293 0.4194813943010647 1.848412599615649 -0.08838192827951875
Ni 7.1941684124531715 1.4071238492677 2.510144564027079 1.1509201344775855 2.523996951826711 -1.8077827419094283
Ni 4.8235556069936365 2.0129079419226468 5.092352567156627 -0.8014915311295487 -1.0639245450226322 1.8938979856419575
Ni 1.1618508000808752 6.463555467133536 1.6291785287800824 -1.305029743972217 -0.1412440663858729 -2.8308144053724407
Ni 3.64499695929588 1.5037432089394662 3.082061572636956 0.6803403788388089 0.006416702159621208 -1.3368538304613493
Ni 0.983076830580245 2.5759531757565104 6.476656819687481 0.3514988556135043 -0.028789927648498807 1.4585099474129655
Ni 7.991557363110109 3.7028005735372673 2.8135719999466953 -2.752039918275699 0.4896023194878665 0.1977646271804207
Ni 2.51198335035044 7.1547434305903534 7.844019683969019 0.6213669856283943 0.38632136260932826 0.2594633897417983
Ni 7.663308157996132 7.5184760424663715 12.33967685834008 0.4695723974201848 -1.0883122298383772 -0.8989317129565938
Ni 6.089235064530137 3.848103462673913 6.096666825920385 -1.973179751392421 1.8648735733851498 0.9617676744462081
Ni 8.78100777843527 2.226279156101769 1.0157605190095775 0.03219098291024779 0.08248561739974182 0.1019151868792632
Ni 4.486961708926255 3.179004935320519 13.35898756419687 -0.45258897548831084 1.7484033715098468 -0.020539771824564627
Ni 2.077883930527745 -0.13978560708106014 1.1842042386383556 -2.2773857354572327 0.9250854885338261 -0.39586658309560213
Ni 3.617692090096579 5.453293768469471 9.243145920432704 -2.2685874204393124 0.029978291529645144 0.7854979839147698
Ni 3.3169046787175303 5.295492301612793 0.5719003930708105 0.5345068933100408 -1.7343016420011423 1.2815843684650832
Ni 8.780186232336982 0.24922939365566232 13.04780528696071 0.4489400658818139 -0.26821953866787357 0.12357570257183234
Ni 2.472373751386883 9.055256481583084 12.066782321626187 -1.4717945803370136 1.0800908703698495 0.2579477244282203
Ni 8.753444445294935 0.44309211879969257 6.2056139924939995 -1.002236323984216 0.8273822828533817 -0.8807740682109606
Ni 2.373308215130325 0.17742811083624266 9.276583769718556 -1.1859375310930351 -0.18837367288382398 0.19788572613931726
Ni 5.915131907678203 5.521620557452982 10.056437788147301 -0.7542156288617204 -1.5460812068657308 -0.39674847147992315
Ni 6.244950358148462 9.070552008379313 5.900578541626946 1.3343130663173666 1.4956114802509533 0.6909562066814423
Ni 2.702609737718515 2.328104718014376 1.162199726401272 -0.15145905924566172 0.4390881127883986 0.14698174020059848
Ni 6.692600673165402 0.3966101482611258 11.859305008388159 -1.0016917643346555 1.0278733078260298 -1.2213251665637095
Ni 5.752336548246536 0.19385164811798586 3.2479409607364693 -2.7514511356517644 -1.3267753631794246 1.8536879890819753
Ni 3.9642553116038672 3.4946724850191324 10.740436761701341 -0.32513116425325295 0.7240936126653593 0.10232013562716571
P 6.55739633943918 7.027643787586576 7.722981020382503 1.810055597104005 0.5157972327156795 -1.9920999853356918
Ni 8.310529558911952 4.652821712230191 6.056743377885573 1.0640369022307805 -0.6796402674479908 -1.6195605070018042
P 4.33160641865437 9.05024412729802 10.682518684857497 0.8394081036696641 -1.4825914138422016 0.9482866092406378
Ni 8.442669248765906 6.078194961905942 3.2893228838671207 1.329993098785774 0.10694863553811258 -0.23391125230430682
P 2.1365367834325317 0.7065831834874441 6.949800910145471 -1.1377332034736665 -0.34264757587046146 1.092302581944693
P 8.283206228002577 0.2688532683787165 10.35100268014594 -0.032426753070137704 -0.4023028256392491 -0.47985166785900585
P 2.0713854085817314 1.8517925981077041 11.034313031914225 1.1818109105191712 0.450627737996882 -2.9613290011559514
Ni 6.607815269651007 8.822278931305478 0.44868232461007007 -0.31264074509572604 0.7130633229931268 1.872912384529226
