# total energy = -340893.0896404021 ev
CRYSTAL
PRIMVEC
9.08108828173684 0.00000000000000 0.00000000000000
0.00000000000000 9.08108828173684 0.00000000000000
0.00000000000000 0.00000000000000 13.29109063079580
PRIMCOORD
 96 1
Ni 6.57160224172144 1.9447695592090415 11.460163696235702 -1.2013492376624149 -0.13548582374585702 0.6716942731280366
Ni 4.566561499055149 0.18532231074337638 5.816579668818388 0.07447945926581367 0.10292717308354532 0.22032348631754314
Ni 2.7196497480328348 1.6268406556625215 4.892583468549703 0.12993198380716334 -0.12096783263534004 -0.091747502317642
Ni 3.411592356848334 4.385166759028251 4.894005566987161 0.20533035534282057 -0.6896631989016316 0.14751652965814593
Ni 5.2510303721488905 4.633988580141494 2.828676386795736 -0.4576751317619666 -0.7903038899438454 -0.11961491815187142
Ni 7.323806952905826 6.313127223679605 2.592241170207984 0.17694949020728237 -0.7926788179339253 0.038842426788494394
Ni 5.174322418756789 4.328618821799339 11.909827408102633 -0.15789607312025714 -0.1463065685104448 -0.4349195832330058
Ni 5.427702946227655 7.932067332467363 12.527637460185437 1.5269863950178089 0.2184712636001528 0.6059727625605112
Ni 1.9651384404045527 6.445229816078669 0.4580201293774569 0.6611620061381451 -0.013122910535203208 -1.212200835664938
Ni 2.7734551965764833 1.752332215734197 0.28931076168315234 -0.5654457489807423 -0.7358672082615197 1.8501468086979362
Ni 0.8362883245439384 0.055932239437981326 4.544954865515926 -0.8096203308842701 -0.1313599745029415 0.7290051910343638
Ni 8.484633397106 2.554655453587342 1.0679123805176103 0.3034642208027806 -0.02054054315551301 1.3697819486479377
Ni 6.878715569029058 0.5143310502001252 4.776192975234221 0.1828774256559431 0.03803407195458611 0.04698639605186747
Ni 0.8190696729011347 7.37203661319533 2.3645383281889365 0.21960871963870562 -0.36476549081542337 0.7466743261793527
Ni 7.5645920108188776 3.676841866808069 3.819673765106596 0.147678509157307 1.1870986412806717 -0.28351708825689237
Ni 7.630920280213444 4.055931900471293 12.494382514604537 0.580095380573117 -1.0671880462652523 0.9078981781212622
Ni 8.146925883107485 8.866765595370426 6.718034791555419 -0.24795898864662458 0.22140514941749614 0.5969119379098236
Ni 7.1391611832454025 0.6203409514092372 0.2847575039785472 -1.7254670744286476 -0.012864257557177846 -0.3971577911031999
Ni 1.792089220582145 6.548300168985067 9.409852819977019 -0.00869110001609471 -0.4000279135621433 -0.4900633182846851
Ni 0.21690179552152616 4.98419167172584 1.5331011210478698 -0.8041130279127958 -0.30801327362604375 -0.28552846225996636
Ni 6.218774715600532 1.8493999692334473 6.946614866710217 0.9580897113739887 -0.03676986053018183 0.5313881451754009
Ni 3.747265707053806 4.427112306171392 0.7527977062544111 -1.0452138559870063 -0.06906343045656493 -0.5626067368700504
Ni 6.171262461291609 5.803442058285376 4.804822014403623 0.2751124091329649 -0.9512585473847681 0.3103110685212849
Ni 4.976363773557972 2.7346789492716095 9.434428061301714 0.755150481971164 -0.08521304363323388 0.30526784967042264
P 0.1616015998335259 5.654666587654051 12.36936680356302 0.4318170330482821 0.644979739951328 0.2737013877180512
P 4.107321779510703 6.209357626969349 12.487524476673707 -0.6601903862534952 -0.6297251277851026 1.3140735993420403
P 2.3780192038620243 8.591372509710563 1.2697540990999319 -0.48656636087502014 -0.2232753698570155 0.015651333384011756
P 6.528948369686077 7.688794056343179 5.822986376657636 -0.9164057013716411 1.0589306913524668 -1.0524643669018325
P 4.789311515481674 1.0965959062171828 12.777257508965684 0.9207313253301886 0.5672781742037908 0.2888739816934315
P 4.111335620566618 6.155697475839489 8.350234197460237 -1.358988971797492 0.1994813527612113 -0.12768149721008978
P 4.854259459445246 0.9457953528811786 3.683865180547083 -0.7936967176754783 0.8056801152895995 1.6745301783694644
P 0.2643840822388552 5.653585938138998 3.8569952220559105 0.507572530813042 -0.6530869424394946 -1.5137156460508319
Ni 1.4967631459681383 1.2233860619245953 2.5988067970935633 -0.7936972318961105 0.21253458640074366 -1.3133380067275964
Ni 2.1510192380821795 6.615727250071411 4.931553143036683 -0.8231132231643825 -0.19064627096808456 -0.5423747260938917
Ni 5.981458633441687 5.797030809901947 9.292971039781163 0.009226146583958305 -0.7188012539181685 -0.7805545238665653
Ni 8.54092706386078 2.345799502354368 10.086980541239082 0.42767421452450216 0.24717171685863887 0.012137149583166194
Ni 2.4444836895820177 5.33298719461411 6.917042302460024 -0.03644178776680176 -0.6906610440385267 1.5543958973790133
Ni 0.20001278738625575 9.088171610719403 9.030790937687716 2.2101619293125676 1.2718596849781514 0.5780647232963335
Ni 1.2884248167717869 1.112487810850328 11.479900533681231 0.9700378848748005 0.7401856331312155 -0.7431652845848299
Ni 4.221343924981429 6.731129720973131 1.6108533996015775 -0.11191574973540082 0.8329626051546366 0.02227655201001325
Ni 5.811823902843314 8.019381997066043 7.886919793567853 -0.33729736730214166 -0.13889819186151564 0.6040884010536048
Ni 5.2912595935916515 2.8764801440410728 4.911071656345486 -0.5735426670562638 -0.7422088342088314 -1.0165596825854233
Ni 0.9600344994324765 7.3813538098545335 6.999340573847647 -0.9293843730194962 -0.45794586892485 0.6890083389264522
Ni 4.97038841741591 4.3472168907643 7.374681026126286 -0.2153473732591904 0.20327784368916604 -0.4894956187066731
Ni 8.301086439137354 7.216468488469382 9.197421644256005 -0.6842330290249958 -1.6401005359366851 1.0027286902396022
Ni 4.724527031108612 0.4267539421477891 10.720793287233045 0.023570331120772312 0.3755687520785145 -1.458389105564385
Ni 8.402912682938187 7.371764180544476 4.599196206300941 -0.6026704376601557 0.17027670617279708 0.5352769387068459
Ni 7.565182281562394 6.386220903903711 7.113750481791421 -0.3317352998333319 -1.644898471545961 -0.40803510013733596
Ni 2.348151504240073 5.237009171718276 2.7666334829991013 0.528115130851084 0.7494547171379673 -0.9322436968451623
Ni 2.593240998036618 5.095680193543626 11.338071187537848 -0.12192454012165453 0.6850257001296203 0.3352389421112162
Ni 1.2401134266870257 3.492250583677817 3.701794881408615 -1.5035482185995268 -0.7240100518126177 1.3168563042934998
Ni 3.528120882706916 2.5856492081661555 2.7973230211177946 0.7173416386535065 0.796307415825448 -0.4959115495353459
Ni 0.8793463050113998 3.4228165820635157 8.2440780907285 0.28731460762611166 -0.0705523562972656 -0.4168989782858691
Ni 3.709797136473031 2.2643966262792175 7.000577418082524 -0.15031697522141854 0.4285746148515845 0.41393732455438387
Ni 4.471491584995495 6.846868192144236 6.26724139229628 -1.1397988277534434 -0.6655107700251441 -0.5812698604971924
Ni 1.0072016723836512 7.63049346906044 11.639061136963107 -0.3325667945956918 -1.207915578026023 -0.2248005482522903
P 0.11940995519577993 5.4976364077018545 8.235479208158715 0.9184880378219664 0.07099355759974225 -0.7721079357611089
P 8.443968283421873 1.6428596955327315 7.974322544723641 -1.6697736375210857 0.7543994627377525 -0.2926740721658121
P 1.7716386095913776 3.1594831817481204 10.425558023502656 -0.22592926254009477 -0.24687629710540707 -0.5159730961719113
P 3.9963962851713504 6.197697509512801 3.816257459664888 0.42088470240649445 0.1971128525290347 0.25336910391860235
P 6.677723840317401 3.838158320467034 10.423750886918658 0.6361626558803302 0.9662935873410197 -0.9739091949047486
P 6.460077395550208 7.789476083010424 10.176283964188995 -0.780119750321992 0.17470825958158945 1.2254854685889862
P 2.4746147407664614 8.504003358581713 5.975966391200471 0.3776027517894078 0.8506366253956319 -0.7206323935896364
P 6.983647545049625 4.185146706771305 1.6065071907116213 0.9196051821455453 0.17713049586983687 0.09096562984629496
Ni 5.49650127165663 2.7830629880632647 0.8493142376901004 -0.4022022955056428 -0.5883316524399803 -0.6669009655044514
Ni 1.1323935565393874 1.0385859137620224 6.951692103213297 1.8392563870376775 0.6094326960846537 -0.574296771613469
Ni 6.745441516231323 0.6803669454807166 9.29218734185554 1.0924311371027575 0.49079222603090955 -0.08779443120716493
Ni 2.5499877741693777 1.427556171562882 9.118180067210963 0.2929226978415084 0.6384524803557713 0.3645963122274108
Ni 6.634234508152754 1.6407165586793475 2.7127381316806707 -0.5070439120030816 1.0032154000680336 -1.396299278212176
Ni 4.105251291364214 7.16456098739335 10.507377721533611 -0.05471976014038318 -0.6201153726094804 -1.166155206259785
Ni 8.06974571312057 7.075039618322752 0.30194527992092074 0.4659222022621073 0.18971784561654423 -0.21449890921596607
Ni 7.343512914650925 3.8235740925579877 8.211475167291976 0.619964705964229 -0.038561662323281974 0.02970138371917466
Ni 3.1587657757675385 8.66896132867376 12.316654718058132 -1.2509959541552647 -0.3240307321002226 1.0344630452284056
Ni -0.012416572117085313 4.745976561819178 10.32922402194304 0.40780087263934284 0.13284941456427443 0.08837472919066715
Ni 8.432816706913584 2.370009683926919 5.700495208180698 0.09644490779331132 0.34487723653192864 1.141021387306635
Ni 3.5229174190756063 2.7158901774510507 11.696479042457078 0.3916826269212416 -0.00821133216619876 -1.3632091805264266
Ni 1.1532437354180738 3.6322900473050916 12.5866363831632 -0.5584636612359543 -0.35722161702989447 0.5071691247270362
Ni 3.0774900349294536 8.232052005410972 8.126000331195396 1.240297079680522 0.053674092484688206 -0.3936924582624187
Ni 5.438400468317852 7.846941210163877 3.675996417481586 0.22784704838809788 0.2822945287037009 -0.047185399436551
Ni 2.8962769166697906 8.507917307665648 3.527362611828706 1.1200730671897419 -0.24781115021485067 -0.1790032874125175
Ni 3.255915259062045 4.201801422826842 9.103945461203846 -0.788351651313481 0.38997207198803807 -0.047168173045370375
Ni 7.10090255797715 5.983492797234729 11.31661984060961 0.5714065945498675 1.1793922737753495 0.6938201584927985
Ni 0.4007892943037386 9.011282035560066 0.22551248350618225 1.2895542740444372 0.7499146874935214 0.32146528536589153
Ni 4.49769052491928 0.2254434672346326 1.7123845080306512 0.24520739404341643 0.22792623836546555 -1.5388270964064787
Ni 6.069427136402416 5.7168538807556395 0.3434222429045933 -0.2724078657176083 0.33973143066493106 0.6158769090481007
Ni 8.168638765380543 9.004698246497764 11.216564409039329 -0.7674899773731234 -0.5306970326456473 0.37906673792944395
Ni 0.17170612685369765 4.869779039455558 5.871631950794111 -0.03103501492893365 -0.4995231781460042 0.5036372003143779
Ni 8.166522871792244 8.900220324895287 2.276776874042856 0.32755442898276493 0.42003855235611537 1.4190226879516208
P 8.58902958891322 1.6843784315228685 3.6609381567600536 0.5860659963342552 -0.6860060617650185 -0.5070544535260428
P 1.612165616869857 3.218137931476969 1.5020392583063424 1.155734010926461 0.24400128955045716 0.20396509956417774
P 4.83507111973677 0.8523754725768621 8.3879007357673 -1.8226208353635256 0.40708559173987313 -1.1188960161625054
P 8.569114762135799 1.8591803013991028 12.334876829964914 -0.287313322074531 -0.7335611858361624 0.48047567459625
P 6.356643799109338 7.979879262692225 1.5384035685423234 -0.48571686839053124 -0.7729209185807075 -0.7616049793472561
P 1.7703945004858115 3.16933616262067 6.147727912693176 0.16332032945962194 0.3938986607359539 -0.404778026652619
P 6.650099169520814 4.037687993952443 6.072951506795629 1.5369306507147142 0.03412959469385735 -0.3070048869661874
P 2.2971521120002203 8.613711987080585 10.134071433048017 -0.3426414052228744 -0.15659149537622064 0.9618836311987822
