# total energy = -381170.7524764869 ev
CRYSTAL
PRIMVEC
9.22023548768964 0.00000000000000 0.00000000000000

0.00000000000000 9.22023548768964 0.00000000000000

0.00000000000000 0.00000000000000 13.49474663191917

PRIMCOORD
 96 1
Ni 7.900211271890386 0.37987923510113636 5.44241827148122 -0.4352587117399794 -1.1008795249804264 0.46464899197663845
Ni 0.3725168770474125 1.55032727938053 7.937488684052197 1.759205090111041 0.19817111859022 0.18147000378545522
Ni 3.0261734963215092 4.426791811746729 11.609328534367355 1.951109144745627 1.2436883647502581 -0.9939619997905655
Ni 8.89740740286647 4.00372130542848 1.3949792193880783 -0.253778423541879 0.17720402942024965 -3.5539999044012345
Ni 3.099704874503661 1.0082972945285984 7.854050162815911 0.01776323752069199 1.7922735905302358 -0.21616241296131805
Ni 4.047240817029704 4.71550504623171 3.012621594170772 0.5791846958333896 0.04044473827860776 -0.35058611399124784
Ni 7.009333676565513 1.844148524337349 3.438043260543748 0.2876107987102917 0.8282173771601673 0.17717163352041745
Ni 1.4331934074775763 6.491497589688499 6.759073434269707 1.168894459567819 1.6567805676955274 -2.026161188685459
Ni 6.031260314034544 6.454238617997705 10.32230720850394 -0.16973240363355285 0.3534043001663333 0.0490767029219929
Ni 8.956407689886857 3.801115850359565 3.42132328547221 0.04012566437629218 0.43022552019144616 3.228054728887118
Ni 6.556537130967107 2.3591171179711474 11.425704778140272 -0.3707425343344647 -1.2185360338543465 -0.21688823538374905
Ni 3.7374316837007404 7.784017864009324 5.184398278981264 -0.8685875534470977 1.0439717560497892 0.3417160651951276
Ni 2.900215859036697 4.244286470086853 7.701330791967 1.9052468349958738 -0.9054229771078923 -0.653203670523017
Ni 3.0318255006883628 -0.0991931376500596 3.036574843998912 0.06274134489327905 0.6726108714050352 -0.07019343029595008
Ni 8.332474353010843 6.867683198444836 9.447915394268682 0.9335359332940245 -1.5201068942891562 0.42645911117047847
Ni 6.167627597208717 1.933289761235787 5.672786777690484 -0.023348444917953334 2.6272815082496757 -0.910069217630652
Ni 6.057842253006224 3.84134373788417 9.922551911716628 -0.4992457561149014 1.2404346336996508 -1.6677018425937213
Ni 2.5545492298142682 0.6136417100011652 10.139790802561455 -1.4332912820554928 1.94284587629557 0.6602688048999145
Ni 0.8413713848078297 7.567646597325869 12.886363423151264 0.7112100718344719 -0.6885385983788851 -1.3756918863744696
Ni 5.22251657662147 4.974768848501793 6.7571842080139675 0.9507571822683175 -0.6569232854664493 0.5139033581270762
Ni 1.3715930140437262 5.5785928517332595 8.685555895629395 -0.13504307978148358 -0.5400208811497345 2.095442391579785
Ni 5.583866826444256 1.0644577490122957 1.7204452346344226 0.6278615922138026 0.6120961018494298 -0.339461464832996
Ni 5.163617712191678 6.189175287592627 4.551359959540375 1.358229725033964 0.47714121090637823 0.13589025827312726
Ni 4.153135221847511 2.222740614561466 3.1944363401910443 -0.743507498415597 0.2732946391979358 1.12211272332759
P 6.245805974087269 8.286806526536084 1.128738464908535 1.6152261412925084 -0.9967246501373673 -0.1461031942503871
Ni 8.677071434914259 2.518645632743259 5.3110197732227045 0.19835958045194227 0.45907535454360293 0.7938656391531748
P 5.15035901353012 5.434517451673786 11.994130453206605 0.4536719241398445 -0.8410867769236675 0.7365346666421896
Ni 8.280638188980742 1.598705855094856 1.489118745955801 0.21052861171430837 0.7350753084878437 1.4811279419227974
P 1.318576659868507 2.8204055004730977 13.861398718082105 -0.0073608112404453885 0.03028553835741881 -0.5353239898946973
P 9.51933994863709 5.9146335550845714 11.384695014644524 -0.895713206019296 -0.09012385067128995 -0.40548842245608224
P 6.7253596431320215 5.391763219619788 8.580729194083501 0.41497502179027884 0.2835019187482408 -1.7912626327672183
Ni 8.71143525265531 8.88902620878903 0.6350575510173011 -0.8074343789765449 -1.954906921225162 -0.19508039548003822
Ni 5.315991324209013 0.8753350443278014 9.065973592484243 -0.5440220318893275 0.3082714123834368 2.2992550247264982
Ni 2.271985892413613 6.730956326085823 1.1452436084927191 0.1021985224476369 0.6644352775727783 1.4835920871925738
Ni 9.384263498434139 6.361593691605949 2.621624599093205 -0.5121760910233244 -1.3973323474623807 -0.45835441721717834
Ni 5.141369283909104 2.898878924887931 12.989732405463227 -0.5877374704994072 -0.286865435903835 0.9747656293677728
Ni 5.31929216852114 0.3393839607467776 6.846006424763803 0.22376696478145333 -2.0253068111049637 0.24140781779166812
Ni 7.376335930755151 1.6783225887127722 7.656905853238818 -0.9610081705723642 0.8837328937289682 0.09275228943307252
Ni 2.038750814984684 3.0547285656920575 4.637955489414852 0.09635877583740825 0.030280396151096234 0.128583697309385
Ni 5.771166690568673 7.8519248985311485 12.352065527796954 -2.7501673838433343 -1.1460252682791296 0.15491153657063644
Ni 5.0247056440170965 6.316681924442906 0.9530026201591711 1.8858915703977135 -1.3582425805497704 -2.9225498235052245
Ni 1.0773568584890143 3.3847392350206564 11.284105011314892 -1.7514056486712806 -0.2744683477910628 -0.8759928447722333
Ni 7.7541074200189914 7.976112250598283 2.6930657498855264 -2.057454856592418 0.09974800402461531 -0.13182431573386974
Ni 6.817239289976554 4.534244436365513 0.020856172720755777 -1.2971752809248047 -0.6775972688760331 -0.4064412732876549
Ni 7.834194385647853 7.4388767882108935 11.940502797417157 2.2698513747534004 0.10619170276743001 -0.856819614277892
Ni 6.84202328302403 5.294379092176541 2.498012589721814 -0.2674124693855459 -0.44132163010460773 -0.5520063356463848
Ni 3.8370378879015914 5.531929239823558 9.533350096492608 0.25361927225619546 0.32203169939232285 0.2872904392563955
Ni 2.9039684948887516 2.362132134982503 12.2408418268551 0.1162182337654966 -2.091471065636863 0.09769652081222528
Ni 3.879395649828714 3.081688534319595 9.785566872763368 -0.9977307228043785 -1.3698248860707312 0.8566465790351376
Ni 1.752997276098007 0.14373240729854891 0.6379656132967558 1.0167414595789266 -0.41516374076231727 0.44972348101505777
Ni 8.66716890197788 4.288027267340286 8.670873592605288 -1.0179537347194727 -0.5053295004151361 0.8684636262747237
Ni 1.9838719732367005 6.86263050938605 3.7855059916432783 1.178725843835944 -0.03135768837567503 0.4405749817465703
Ni 8.378778375735704 6.417975431741856 6.9615350536646865 -1.0533007467601987 -0.2977599713291517 0.42581196450478276
Ni 8.429277605617038 2.2970372722908428 10.052358075302783 0.6590033079239296 -1.4617035146495987 -0.5885324555968768
Ni 7.601466421171904 5.682504905916689 4.717345405239253 -0.057606080549242725 0.7854077381938086 -0.17940643638820714
Ni 1.3332183938563762 5.1189364509163555 13.134436625584398 -0.869214131287503 -0.8901215708641316 0.8622891220328955
P 0.513499810117257 5.6332135268869985 5.01023540640969 0.565309223402878 -1.552435688328849 -0.6570490124110362
Ni 8.202966925055168 2.452702508384795 12.937804961101591 1.3895521892963294 1.5793273705133704 -0.2523188082772171
P 4.227551742638501 3.2850684891712447 5.663434692813976 -0.7995971423203132 -0.501722242679852 -0.3206792991294864
Ni 3.36337594934692 1.7068038961992509 0.9119375352503726 0.7964704237658734 0.7274460740773601 0.9731167809104403
P 6.546238127903851 7.895896201672299 4.547770521856825 2.712188076386084 -3.217373337913872 1.0727477997412171
P 7.145230727728739 0.44304706857147136 10.71632659678127 -0.15708617562445207 -0.4784018227863568 0.688962059069549
P 2.781569868510311 8.678638874950744 12.072724662706603 -0.6290700106996069 0.4854828980028542 1.2099855731811742
Ni 4.161783802754703 7.0823210608526495 2.6313814523085464 -1.0926877331982536 1.4538243690118382 2.9217970044996
Ni 1.6915444064322966 9.022120308357602 6.184142883051961 -0.8890532775006172 0.5679361195027639 -2.780125363658006
Ni 1.8653735064784542 7.000638994480777 10.352427873863872 -1.2837132418826278 0.22716570605035719 1.1779200601051973
Ni 3.640988020279385 4.300373162686481 0.6550009204226923 -0.6113090871717601 0.06886519840282979 -0.14975236096720015
Ni 3.549080712728327 1.0904311524403987 5.498717951521099 -0.6115173465278243 1.076127000626095 -1.039690869286248
Ni 1.4708857302372802 2.0550706318351426 2.4536955277490855 -0.1953321064795281 -0.06889245209633942 0.08071232754940294
Ni 1.6743302267374907 8.525131173965836 8.275733945713647 4.128476910346309 -1.4914887163318313 4.340870857404131
Ni 0.008290835769453402 9.038228059791361 10.099455038281397 0.06660417028279497 0.3250388616497628 0.17180394145060088
Ni 3.7055665497825565 6.5613593141381745 7.280037947054835 -0.7312585058449148 0.7419614940847158 0.6227764643814113
Ni 4.840927909857014 2.642980508578534 7.715783511126939 0.7821678911002723 1.0317659580122165 -1.2604280461024422
Ni 4.696465259906174 0.6441551573937688 11.399970178811845 0.3588894916506207 1.127003475760988 1.2761398004107443
Ni 1.8537375692664322 4.571189920049009 2.347856444344331 -0.3921708794115698 -0.12268995753276936 -0.047913792962143285
Ni 0.7317031375962976 0.9170630641696776 12.173003944099593 0.2344750952275768 0.2474774210245157 -0.5417000686243703
Ni 0.8251806512544931 4.139977945776548 6.794672763568928 -0.9389604467437054 -0.4394326406120109 -1.7083003328413742
Ni -0.15594184315921417 7.675643215839668 4.749543389659302 0.2287698173126834 0.5077828470516352 0.38791056147331904
Ni 5.934217335305121 4.031547976193839 4.482847155545627 0.4428792043997146 -1.3649112508191976 -0.3496728581483591
Ni 3.8478071229757926 8.004344611726026 10.282524658354406 2.728419964863914 -2.147792623046727 0.2363535431972123
Ni 6.0326986707739065 7.247206532455335 7.348753596230775 -0.03198452332639653 -0.6325217166936332 -0.3115799079313795
Ni 0.6367494642331538 8.920181384573043 2.7435760440494716 0.8408787746779196 0.11144523785688547 0.6836501599383323
Ni 7.969713407155222 4.258467192299285 11.183798069215378 0.5462578631983818 1.9605895734322363 0.7586284132174353
Ni 7.151518928345697 8.810082552363253 8.768319495626443 0.8713689728469768 -0.5791474148375511 -0.9493770140913393
Ni 3.1602172801474806 5.216541864011811 5.338859352317775 -0.9842208612434017 -0.35802482965748017 -0.04565405039368912
Ni 5.369228964036442 0.1628985108505538 4.271452049966236 -1.5899087455736425 2.1714012636046025 -1.2827727323462295
Ni 7.539921349151106 4.158621261975207 6.568486556186426 -0.6081024073090043 -0.7185919661208398 0.22673196094704823
Ni 8.199057545199466 6.139616521733183 0.6143157092168537 0.7680656473709353 1.852555675249745 -0.3663210082280014
P 5.70339795957948 3.380673111161305 2.148404309819402 0.22925138493479225 0.24066425475742426 -0.4671020815028214
Ni 4.267908713460229 8.641472105615037 0.6875197690384455 -2.6524590359565674 0.05852987791509275 -1.1255451460479067
P 9.141227310659424 8.31137845416686 7.66602835425116 -5.044217467330125 0.24861359151148799 -1.4541249309713924
Ni 6.870329406035843 0.5165480199764443 13.070458333412844 -0.5229202169137058 0.6704609149415679 -0.5764698680053878
P 1.7838574043457391 3.062870033646269 9.135794747897679 -1.2589452909093286 -0.5326757536385729 -0.018754912009999958
P 0.8543304258153549 1.0993286797063269 4.495370079413589 0.5485026933685004 -0.5636130666473776 -0.06375204554598052
P 4.061642824894346 8.37968195881556 8.252766339061392 0.8214142381954047 -0.062250264189473443 -0.6636480057847924
Ni 3.3024855140472424 6.433483867867546 12.558211553301225 0.28336950693543456 2.2155396486847136 -0.049615349034282295
