# total energy = -381172.0085758713 ev
CRYSTAL
PRIMVEC
9.20415402472780 0.00000000000000 0.00000000000000
0.00000000000000 9.20415402472780 0.00000000000000
0.00000000000000 0.00000000000000 13.47120978533428
PRIMCOORD
 96 1
Ni 5.196159014570038 6.335789727280308 3.1705033208308633 0.010245074766775905 0.6244430534505568 0.3878773942425384
Ni 4.365401295528905 3.7085376544838056 9.16311709359498 -0.4743600486168153 0.7928734504432345 0.21713454706660024
Ni 6.664635734724459 4.976998908119841 4.40438456859006 0.5612206551558012 0.3868363545725338 -0.4669007641252927
Ni 7.197639077903012 2.5827499891088483 1.884352603980909 -2.781750300855938 1.0677076662141483 -0.13100541937700017
Ni 2.036428235362346 5.913328271400351 2.0848310394361063 1.514741773322501 -0.29548505925204593 -1.1676531309615503
Ni 8.734235740430197 3.936598177671535 3.0580589349390426 -0.6157897486509329 -0.10480047884685822 1.9631017983311287
Ni 0.8101928781759175 0.22857135372437107 13.145152496981607 -0.6147057715581349 -0.6358692930096275 0.41699462332346887
Ni 9.162523425674017 8.538767125895617 9.611411847982929 0.8583625332849799 -0.8046547593488786 -0.13442318680929755
Ni 6.46373666943999 7.72623363140496 13.050233740365828 0.1716854135948656 0.19915507977004412 1.3550068472212922
Ni 1.4789970679631037 2.3548919573050138 12.399884799389833 -0.9759527076973386 1.0091237951326686 -0.273177139783465
Ni 4.299665228993803 8.449799775135565 3.710631599476348 0.5348203107854015 1.4290934419240615 1.0152821014245805
Ni 7.715271484213234 6.685400305727426 3.154849816440462 -0.6194854523349654 0.5380676140781057 -0.44685464410769493
Ni 6.966255855188655 7.032074759108078 10.333172136735351 0.7018713109320492 0.84799353134583 -0.10804675369829778
Ni 7.684299506631238 0.64616105099091 13.231583182950695 0.8954517248277933 0.8843358174202899 0.903776956864037
Ni 3.1728651066993745 1.9847377075464494 4.145051091990638 0.43253359949933246 -1.306565206780137 -2.0963186235371514
Ni 1.4359860571932168 4.956584094961782 12.163087693402453 -4.091654856421954 0.7707401088793049 -2.328216959176487
Ni 7.616934304871169 8.697575595791536 1.8043611440196565 -1.1031618932567 0.23417376193707412 -0.29779339567024843
Ni 2.584655248948217 1.234212597296478 0.5664493973055842 1.0171263537221709 -0.2818512705186952 1.6737207950942916
Ni 0.4808912651180043 7.806199319735535 7.37207896222018 1.0412170761227875 0.1145138494798802 -0.2573946801382277
Ni 2.8766018037545598 3.0298969855162685 6.016255562249144 -0.617781325159665 0.9248463759398265 1.8293324430557463
Ni 1.168255631069855 3.7949094338684874 9.919767568207751 -0.24204879380977667 -0.46726714632577593 0.12433674910757296
Ni 2.2449575441581 2.944740154434952 2.1496549743283033 -1.082049536758117 -1.7531899942652127 -0.15609321558356343
Ni 4.347683299438163 1.4873820520870855 10.017110698937973 -2.7148044309630084 -1.4950520082030576 2.7801806423759734
Ni 8.693157601961119 3.222558333137769 11.671320800138567 -0.14933095715906541 1.4743307164953061 -0.2528440846530678
P 5.912914084478749 8.937896051858678 11.030967570203895 1.0914073238239332 0.8690953463214517 1.0915893579277525
Ni 8.205613574466808 2.5136912230471196 9.096393421355703 0.6079350284932047 0.6071690968614576 0.13135174697282542
P 6.724757267433404 0.7721649962805901 5.92626839124657 -1.8965670478336887 -1.45214466731657 -0.5052040305808655
Ni 5.6792206191572365 5.732475853121406 8.867100461972365 -0.3592425041146652 0.7639128015448262 -0.11324449584915337
P 9.128449648256915 2.545960986316801 0.43746698784189697 -0.5980326817778281 -0.5575486056208526 0.1370480260266543
P 1.503185584184645 0.7147504052081575 3.3211246959097878 0.61007315788213 -0.4044126728934003 0.2619293347837876
P 5.755854403807371 4.479017370201167 11.047362008976274 -1.5388103842359304 0.451199551339952 0.01452030510336209
Ni 4.5176379996020755 1.1546979125027583 2.0590336371279876 -0.4313308374404829 -0.10682059460068055 -0.7737223314360804
Ni 6.160561046981334 0.964742586102389 3.695624226683645 0.9091166239093957 -0.21968045341690554 0.2270770029912928
Ni 4.551877451787819 1.0741155458666873 5.737899860963626 -0.18352354388037423 -0.5768781591874 1.0625652027812604
Ni 1.7034403587021774 0.8946428302443673 6.179203140114937 -0.4366198537535642 2.3603336372053736 1.2252913503003091
Ni 1.694319042273126 5.440050682316768 6.38012613619932 0.15250832644578252 0.91755935536011 -0.5227052726894224
Ni 9.198281563238968 4.702715124481358 1.095345847052611 0.7188310787148394 0.4283203327489333 -1.7698764537819582
Ni 0.7063663414995571 3.3822227893383316 7.268215608928566 1.2285324829454263 -0.9156266571137714 1.4193445900674138
Ni 8.602395441207458 7.980627238652746 11.94706344215647 0.42743098816544456 -1.1332039481447451 0.04484672400104534
Ni 6.625094689942213 3.918364748967245 7.745392997982875 0.32925084284858136 -0.489743473051421 -0.4381054371601552
Ni 8.406162881906369 3.9928539657788633 5.910950838470356 -1.1827316225612277 1.4523835228002535 -1.6449285534529479
Ni 6.733703704940001 5.199739430403441 1.577074690167632 -0.09681463242790422 -0.6907286640516686 -0.6314356827183062
Ni 8.44143319931921 0.5867500789563571 4.608796859385092 -1.1318631178461345 0.7190383096296391 0.16532501859447657
Ni 5.206716178993976 8.172754745353071 6.98887690401578 -0.5191419808181963 1.2996209142518198 0.5979632619924734
Ni 8.348250346112632 5.711646853041745 7.875942874840979 -0.10453025590460707 -0.5977819992196027 -0.2961257781598384
Ni 0.8543857022954412 2.6707601078723107 4.61204408485045 -0.03302941965114312 -0.016685945296113197 0.13534569862356688
Ni 0.581148430945539 6.078616465580883 3.6825570895148005 0.07507209854449005 -1.2253026631542188 1.3937312603746836
Ni 5.026480439020528 4.740903158653038 13.083076922418082 0.40426354891004573 1.5888299106871668 -0.6010503855582294
Ni 7.162258310644411 0.33934242445292057 9.246934720296451 -0.9862512614098693 0.4880162059476692 0.7887314032504029
Ni 1.6582295551708948 0.5328450317329634 10.861351582900316 -0.4329205505251061 0.5209106426828448 0.3617020213987513
Ni 4.350601016197002 6.435498325540565 5.69285197095484 0.7425549046943405 0.6919478811707502 -1.0097457449873837
Ni 5.457354491485907 1.6995101850238679 8.25345952723486 2.1821147933673646 0.5374868018739711 -3.137737017037467
Ni 2.7117554089570692 8.395338797021843 1.891599954693558 0.16157917839879915 0.8962269124309211 0.6575557768441256
Ni 2.5387909504961845 4.150603957986244 0.3117143159513221 0.6174614799264011 0.06605086888248624 0.7392484660289269
Ni 0.7992997621377917 8.431584754738902 5.031766384555548 1.4868327056170587 -2.2258669987526503 -1.243586549065071
Ni 6.41350960208042 7.854180573564643 5.020908244301912 0.7042997178678839 0.4626034223015194 -0.6872687305275261
P 5.561849249729118 8.259236974583514 1.9341157819882853 -0.7905517442885933 0.21097521233342376 0.12007463139710932
Ni 4.265342939423739 6.731034500334123 1.0384798235474553 -0.07411770505102074 0.15648890836008533 -1.144917122816615
P 5.430561199735181 2.979485835080431 3.0736047507298276 -0.30896638156793244 0.46186037348790776 0.5718426536460216
Ni 5.510950279141171 0.9180084951149932 12.933748730949937 -0.40966286554874604 -2.143545674844915 -1.1773911841849205
P 2.283725440020022 4.48281868572609 8.22204482985444 1.9959476412165562 0.22507385651833495 -0.019634743511791994
P 6.519375779241824 6.0032712624646205 6.313133702668693 0.24004667577808333 -0.38054795046066076 1.338260995221521
P 2.047611282245593 4.340678938386188 3.599965456101271 -0.4822610486314469 1.1597732139928414 2.200830881719629
Ni 1.1931436629812127 6.218464378621255 9.180628916640302 -0.14219357478333577 0.33524202743500975 -0.5322180972758641
Ni 4.065723251519329 4.577032404159765 2.0031957176037856 1.4493642763579555 -1.243232765270078 0.12664431419482705
Ni 3.094813882361981 8.358236853000141 12.930892682021648 0.937196155754431 0.4270376093817678 -0.37712066994666665
Ni 4.1619710879457585 4.372046694582159 4.359229910397039 -0.23493018048712447 -0.2821248358950561 0.34435581681081984
Ni 7.360423742246307 7.848234690201204 7.804019776112528 0.10161565336097338 -0.5845850409133545 -0.8130013315413611
Ni 3.172929535776068 3.5928414410497207 11.520699425059643 2.2531741712080358 -0.18240459978458262 -1.3270170468765856
Ni 6.3454356804767205 2.481614747007518 10.570426689167256 0.5055608996996519 0.08702412870004368 0.392985147782749
Ni 3.4518153963212366 6.099970102427906 10.176016732864314 -0.1336675395901956 -1.890031560708016 -0.22769715307379493
Ni 7.640938738016442 5.478422799564715 12.468412485776533 -0.7701209872380672 -0.3136591590579114 0.9340699514206235
Ni 1.2569100406002534 7.133771454592024 0.3646400412089732 -1.1965515591634555 -0.4334465982319052 -1.5071932715512815
Ni 7.615857418875004 4.675590483193351 10.094556289954447 -0.9700479121771294 -1.6904360509664436 -2.279190392766139
Ni 2.8570429769011447 8.256273237055607 6.243245642348378 0.8549632777954438 -1.1767748907571605 0.2963656620847864
Ni 4.44146442264261 4.509980143629351 6.764338810492428 0.40947774612113347 -0.541297690979629 1.5494035863707443
Ni 1.0730110474090826 1.3811385046193336 8.600747897674864 0.35806056799142205 -0.7001648697639038 -0.2007332228904414
Ni 3.5260561009798943 6.68650480418503 8.000510972135773 -0.5758895700218856 -0.95564896314298 -1.2566102150182488
Ni 6.22259704368346 2.988699193047616 5.369758559644046 -0.6807774663762275 -1.3098197091616925 0.4170704708667269
Ni 1.8034526940382767 7.357460004718402 11.158755280502605 -1.4254753855554998 0.09583169968934463 1.0382363962279086
Ni 6.983559664357795 3.0130809964992387 13.194039439545952 -1.0507828654343516 0.6417733171988882 -1.0185836549939877
Ni 4.816202341000233 7.076760925872 11.59840181196751 0.16639536884051986 -0.3574391323573392 0.5842256006914068
Ni 8.829112157938434 1.4724529146017964 2.5347291574183437 2.630140060744393 -0.8815045186190819 -0.3222751828616966
Ni 2.761789189086559 6.90031729726966 4.091111989398134 -0.671108832938212 -0.8471692356723217 0.1961918833766621
Ni 8.61230831486446 6.604909980629489 5.475737027481973 -1.2747532044758627 -0.3430939193792607 1.5837054449764079
Ni 8.174650801038625 1.7783897832044648 6.888583841988373 0.878237932052668 0.14252704686335455 0.4230685974316908
Ni 2.6608840508305627 8.533318266838103 9.24762135017093 -1.3972716694277743 -0.20486215745715042 -1.2336458929125915
Ni 8.401266272077656 1.1142456564929888 11.131354514600197 0.6822242261250832 -1.0055052245434746 -0.710160547524035
P 8.96566498391362 5.893456503317281 10.878379267455053 2.929932489122541 2.3194222437029923 -0.009631352442176961
Ni 0.4587276627354048 8.05013700825133 2.4596674422395326 0.6694149901755567 0.462018753442643 0.5634505729275844
P 3.350947074680494 1.2655251285695694 12.036727547360194 1.0059050310850548 0.33550582261935763 -0.4409341648582019
Ni 4.448956603846695 2.6471974741100786 0.08749376573453194 -0.9374388678928564 0.9339799628099785 1.1507589263093732
P 3.1013672398771015 6.033571336818241 12.57746237974198 1.4203182668345926 1.3359703994151313 0.4767460323504886
P 3.592197150282785 0.7538395260381667 7.889036704055883 -0.8509523568638376 -0.5936263251800163 -0.9062123057784071
P 8.260543964425013 6.74852239257953 0.7489033383480553 -0.14800066838341608 0.5338147523390225 0.3299735799472188
Ni 4.866990861742419 8.230059806995124 9.38240145612166 0.8632921093761131 -0.46517735367628277 -0.7645455500328188
