# total energy = -381168.5725710288 ev
CRYSTAL
PRIMVEC
9.24263533912551 0.00000000000000 0.00000000000000
0.00000000000000 9.24263533912551 0.00000000000000
0.00000000000000 0.00000000000000 13.52753107870499
PRIMCOORD
 96 1
Ni 5.343694153057376 4.106752304210664 1.1317957839819586 0.3935243081156707 -1.3468824183419448 -1.5239069847615367
Ni 6.4309977404318595 8.421149647472289 2.914397851112449 -1.3769743526313187 -0.03286152661471115 -0.8846014123768507
Ni 1.3677066495452348 6.561235710932487 9.913488609359849 1.493641501008776 1.532467215626722 0.564017758284964
Ni 9.169451866454038 2.651989275122074 7.7982829258187785 -0.17591076453012286 0.46060104715951 -0.030452145842270135
Ni 7.500093336756295 1.4056106958885088 2.7106874018026064 -0.17045925449724839 -0.26555844689594266 0.9915834722560599
Ni 5.081591508287182 5.395231086100559 5.141557724496682 -0.16758681804545975 -0.08766741871099741 -1.4626566225914874
Ni 5.6139210740372105 2.864847160341679 3.9964516217780863 1.167468268644254 0.33824456170675943 0.553872442320846
Ni 0.7774821421005863 1.6855238984015677 3.295495725107494 0.6689707035492866 0.17691940830029532 1.7290933583273254
Ni 5.043216087556317 3.468252589632254 6.5168876994318055 0.46509404993385706 0.3043695062258694 -0.3509848920915633
Ni 7.3938769747526605 7.229090034432194 12.357615643507268 -2.3456968611288054 -0.9327622883527936 0.22172653731265685
Ni 2.021170190270867 4.737608359602072 11.830136612631891 0.8511598448889534 1.3248143827983119 -0.07289848793193897
Ni 3.9769025243821683 5.737661472097135 10.832670513687543 -1.0183018620875106 1.0077006895328968 0.9612740226392412
Ni 3.872220439796964 0.29430953086816347 9.700862714280019 -0.08490502547451184 0.6733469782401114 -0.9655199423997888
Ni 1.0955480178397854 5.469181409141899 0.20608395799088416 -1.2499186619306861 0.8587371430155791 1.124057762869103
Ni 5.9614811224869735 6.413427491200315 1.4628133642178243 -0.8126686307922908 1.0458628024249148 -0.9830952322793908
Ni 8.728384079195472 2.204239062721789 5.145845382896742 -0.7452298804233423 0.528944825841231 -0.8146262687392938
Ni 5.046441767189042 8.29866624777927 12.97709586367817 0.19648730312989388 0.4923464578919069 0.7213535880263771
Ni 3.354632876952939 2.9382706531851244 5.020215790232436 -0.7869565707381674 0.07654174111148107 -0.41366170229549404
Ni 3.540548480999503 5.803764797980358 0.11353190764633182 0.84191544347255 -0.27958561441297014 -0.8704881129039203
Ni 7.48181140462584 8.389262556547076 0.7309667326804948 0.4645525756080902 1.2321996473843682 1.0345345218962891
Ni 0.5657592524652175 6.069490555690461 3.6235787687147356 -1.0157572412887863 -0.31895383179794745 -0.8429677959964643
Ni 1.119865390658404 4.107408531299269 5.169316130344709 -1.2169879726409363 -0.7869030917924126 -0.45364775577012845
Ni 4.898476422661006 4.546285814050799 8.587533715129531 0.10550316134083765 0.3848064686266986 0.7265410457645874
Ni 2.2908795236878583 8.726655706440974 13.480847201851168 0.7303640190551035 -1.3962298584268211 -0.8398871001886116
P 1.396090781786199 2.1618523383788832 6.024607395620338 0.5281737520031613 -0.5541524354551101 0.6464090161986867
Ni 6.680761467409254 0.3118742345186775 9.187033206847643 0.9030840445620704 -1.5062969849892573 0.318972857961341
P 0.7618805741348592 7.903404959832399 1.167494537602115 -0.3695935083316861 -0.7516445257004345 0.39619491296929826
Ni 4.790559415808026 8.866718598000588 7.474718606487867 0.20347196197784312 -1.3719987537935985 0.9416382506861848
P 3.062223631851218 7.991200750179818 11.115788137772709 0.5669621856252687 -0.4036845364781241 0.2575134651042791
P 9.471944826396168 1.7811389580019505 10.331759437265651 -2.615328706763173 -0.42765698813332154 1.575373528071945
P 5.969864192478036 7.178255541652869 8.685675711152799 0.5883257389027094 0.1603064823339626 -0.914497942825967
Ni 7.219329811818564 8.490432439812981 6.906251261952769 -0.794691991709212 -2.25826572679833 0.24851691803262366
Ni 6.951163998455054 0.33092145683133756 4.849727992612645 0.19676318249909983 0.5668256600474044 -1.5023745100063997
Ni 0.28063967362805076 4.5905765212141665 9.701498607571514 -2.0231522266558057 -1.2715326406560359 0.3578430526639773
Ni 0.3214819536539697 3.306682086309461 11.805042858469006 -2.3702688940412147 1.0919128027054419 -0.23447175279346713
Ni 8.766288125538745 8.424634120886434 2.9063355005576477 -0.23707679451648198 0.5937692785157838 -0.37287295041390617
Ni 6.984391271462631 3.7657267987418064 11.806233309863547 0.8552301583035852 0.6953160263120347 0.034973944972023635
Ni 7.495518232406156 4.780429487792365 0.4325451534782365 0.3710058152981804 1.1960540507017468 -2.100027439847306
Ni 3.2998610216419806 5.49835116536218 6.746396191695402 0.4954513220694758 0.1872110200342905 0.8060652665431602
Ni 6.068557049550331 1.6515110014146748 11.1407737531055 -0.2788934734419519 -1.1694112513032375 0.3782229018719099
Ni 0.5787691855627041 7.466172866119909 11.994090791534282 1.0652147245889654 0.1549310769546622 2.028542287323126
Ni 8.954468175172751 4.93908856107416 6.843848687143881 0.7870936105366638 -0.05738985077337858 0.4041262520012331
Ni 7.388821253379881 1.449208205423067 6.765699434998969 -1.317844379238382 1.348048156515272 1.1195740160661363
Ni 7.0533782994816985 3.024180945982182 9.393044148021627 0.7301616732363102 -0.3405076467093232 0.49110050129994776
Ni 2.513395962535535 6.48637960965617 1.969824579773235 -1.2447165489044563 0.2356413476215361 0.7626994979630155
Ni 2.5446268263721414 2.6866583991975728 10.955689986213509 -0.2374516613573975 -1.422568239211034 1.3418507694553083
Ni 8.288591775573913 6.324356217215889 1.716386905363153 1.9226552602803082 1.4636364700062534 0.8160938544237558
Ni 4.43778652118962 0.7054376504067184 3.746341295986287 -0.39215133902754395 -0.9889390926546776 -1.3002004409043737
Ni 2.320908844967863 3.5940448526734534 7.500934416545917 -0.349242712589476 -1.1665994928860552 -1.4634323244152472
Ni 3.2276483139901884 3.0973918582194586 0.1801315630317817 -2.0127019778567594 -0.664062724724708 1.2576378849518146
Ni 3.5617048726307523 0.9864294684302041 11.901047957268533 0.8018363160634772 -1.2092543514421046 1.9881530848728017
Ni 2.341501435861014 1.1724652267324278 1.623993828341474 -0.7548134103467194 0.33310158405323925 2.0107255708566787
Ni 1.987591697131361 3.967595190886027 2.8425400606466065 -1.48649126311724 0.5435013834991672 -0.6114970348128501
Ni 4.3490849526072255 5.202161682524687 2.723389555152902 -0.7317218186345785 0.37589502506968164 1.9440684358487619
Ni 8.254421753791156 9.304560705626429 11.789242573849688 1.0650193207487078 1.0336454344231165 -1.8155564723175763
Ni 3.081291187960989 7.7575469360959435 6.171611506103091 0.2220849490933401 -0.44485304029663386 0.14418360863017105
P 6.808540896986373 0.7816570403530264 13.053228372855001 -0.8488003435178414 1.023820477912895 0.9726786649317571
Ni 1.0881539097991566 1.3502103413940965 12.699767826188815 0.8853976830259009 -0.3382715582899529 -1.0661531772428348
P 4.559632179064135 2.820131291965976 10.00613863163594 -0.05959380040323284 -0.03998708191589888 -0.455610535923454
Ni 4.97611455708761 1.1808575393585417 5.7961950798737645 0.8176298314523079 0.4732310772186947 0.3665706623449622
P 4.035870536006184 0.9035341231867131 0.6656536520941143 1.9724690984786417 0.15659612336191095 -1.853717299658014
P 7.126145565236538 3.629610512348879 7.219995281542221 -0.24704419014183907 -0.4093383923297918 -0.6293587455846192
P 0.7491978303181706 3.3781553831571904 0.42064433658684425 -0.018834101987367565 -1.3649960972235202 1.3315349893515973
Ni 6.785822500031541 6.027630661545451 6.507540622604946 -0.508724385029298 1.2255502603886506 0.62664108954314
Ni 5.3890570058866345 7.870122231014519 10.697868529998837 -0.7093604202202429 1.9256490528013095 -0.40580749635839786
Ni 8.425724751822427 3.741612763894305 2.7140286143734658 0.7144959416745953 0.30699126011943256 0.1740469718485067
Ni 4.191405598640814 8.277796377834596 1.7285076969687538 0.039189525715267993 -0.4755630677859809 1.0645248976107924
Ni 9.409741892504378 1.3280002893670575 1.2323242283753393 -1.8299687910881643 -0.7745378853588403 -0.7549982726640159
Ni 7.59455306697533 4.32961996319027 4.990914788594433 -0.3384685047921074 0.23335126603577874 -0.48861424454298436
Ni 7.445330724080387 5.234936066414774 8.557109733332858 -0.6683459254810941 0.991741337990163 1.8216430448312886
Ni 2.608826169434902 5.553991828367914 4.593475935829598 2.440512203738494 1.4240304255788572 -1.729434286606512
Ni 2.0825412870080875 8.701987113490427 8.157682789768598 -0.5248734839853347 -0.18504152318679742 -0.588944860543947
Ni 2.2553046213773826 0.34821719980187377 5.197615230343206 1.0370315772865302 1.6608377684840365 0.05005912143992024
Ni 3.6221332205927927 7.029560028955822 8.777027143204254 0.7882086979777135 -0.5265765827193705 -0.20555172732500732
Ni 0.051723634271209525 9.132952700638484 5.067250635742382 -0.6113458539469665 -0.7290710112752928 0.8644164527885436
Ni -0.22032593434064057 0.26170613572651524 7.940957786043744 0.887591091132794 0.1517951024288418 0.8483619704288422
Ni 8.147013091865972 7.212499504516033 10.096015863396795 0.1402135682388295 0.5509629819835351 -0.039026260664526344
Ni -0.33103514124246225 7.16050043972031 7.920409559798837 0.9602270694319657 -0.4834219017087674 -0.6131093736052925
Ni 2.600415371538687 4.289294346463691 9.584674473320092 1.260208216782152 1.8417578133032926 -0.911950750924081
Ni 5.288506379169131 7.917185728693122 5.247545793414563 0.4825742089964914 -0.29753371425095854 -0.0840277650758811
Ni 5.356846422734644 1.8104658390180952 8.1879302372358 -0.8778568945641655 1.0147902493898266 0.3330067103465878
Ni 1.7656760295619855 8.278729883974725 3.4049876769731275 -0.27718240428811625 0.7322962030808098 -0.6891026984124713
Ni 1.6989811750355126 1.7235203710953497 9.03955587345029 1.9021383712738789 -0.4461514473930833 -1.9024661869269428
Ni 3.2043753589323085 1.4188091787410315 7.225000168422221 -0.5353412162858779 -0.431455021723173 -0.158039797786973
Ni 6.228066445256799 5.853573358269045 10.536282314196459 1.432683730378481 -2.2875529057982216 0.031242760064365546
Ni 4.643509092150019 3.4961468622155265 12.1144992196584 0.5479133965239338 0.400945026059774 -1.0971519396171945
Ni 1.2603996566056073 8.97031929428485 10.424058239409812 -0.20053653349860304 1.2327948577662058 -0.3817795088749167
Ni 0.9015922455625429 6.679735534918617 5.776255943278703 -0.10782075373042076 0.9395003784075754 0.7243561222981267
P 1.51531153130629 5.524387668300245 8.0924935604919 -0.3298607085184384 1.0342517005485479 -1.2670496651840177
Ni 7.487162890320246 7.0877978724108255 4.495293272212107 0.6384038865060232 -0.7269686202203093 0.3828380320464181
P 6.9462007034327815 5.335292597796211 3.0869689386726873 -0.7605539123749224 -0.25975058196491396 0.8199726206528717
Ni 7.571557390968974 2.6845788063111455 0.8051638340776909 -1.023666983054166 -2.3096229982243837 -1.4131181495417275
P 3.6513954031635816 7.553682134780754 3.938500300009657 0.6596113738215736 -0.6889787712400973 -0.4071002470278924
P 8.720823603723929 5.7258771124073835 11.835777392803386 0.501540208576033 -3.0052030768310822 -0.9195784426726679
P 5.4049450955389355 5.471963442292186 12.591655799736264 1.2694798718920652 0.251518938083741 0.6460572892862229
Ni 3.8216077702588596 2.799880678569703 2.633444852156176 0.8029388050990365 -0.7538657017214694 -1.0704687738990533
