# total energy = -381162.57901229925 ev
CRYSTAL
PRIMVEC
9.27448475028033 0.00000000000000 0.00000000000000

0.00000000000000 9.27448475028033 0.00000000000000

0.00000000000000 0.00000000000000 13.57414591132107

PRIMCOORD
 96 1
Ni 6.448623365669553 8.195964095191204 4.4962321278063815 2.656437303878025 0.4840271393929341 -0.04758006377180837
Ni 4.243215839806683 7.191240625232979 2.510063216886424 0.5728754657859102 -0.39253109096446587 -0.2287513053699222
Ni 6.969218737449775 2.564311532439351 0.24339771998015067 1.8712666213956868 2.4972276541526672 0.38519933318974303
Ni 3.226157305278022 3.9351731069928095 9.511784385755066 -0.47452202811597627 -0.9843758987640274 -0.39104653599913947
Ni 2.876258823286422 6.407611594594013 10.617669296917823 -0.9173058445884072 0.7384210850316251 0.47671389356097255
Ni 9.12999744322773 0.17821385958887756 9.553552027328719 1.475252714088943 1.660023243002541 -1.8935308321105262
Ni 0.727174315190319 7.363987176126914 9.536611253686344 0.3834512401503848 0.8036193761058288 1.1100624770312753
Ni 7.700929203077237 0.20974525246599585 6.967514087173049 1.6688598674575648 -2.3667259138849626 0.26688205080337263
Ni 8.623619856399745 1.523760728319025 5.245932311288937 0.025955543523497233 -0.09205912002078985 0.541487438392932
Ni 7.095880374170407 5.459592323721234 3.9097749308077434 -0.312958533446461 0.07910564518391537 0.9073538755820181
Ni 1.095112597254065 5.0616520112974115 9.644186001019037 -0.18060817000579218 -0.8771526694082894 -0.3691751898473449
Ni 7.95474402420439 2.014547906468135 2.3763984168145624 0.18713337271881966 3.064212465485755 -2.137586371937686
Ni 3.6402815933976416 0.7456583630766936 6.835342479128134 0.6813317962178008 2.1069848450017457 1.4671784217212411
Ni 2.309355949701548 8.4381208891266 7.911175277713762 1.3099953155076085 0.7276759306999789 0.9015236420534861
Ni 6.460494706008016 7.957433624749823 2.3246263886603624 1.6566481558827209 -0.49247244194680984 -1.6388316965265903
Ni 2.4297944072291258 3.0040055747098666 0.2596067367844743 -0.549179407720551 0.45883649905991947 -0.6292276193233938
Ni 4.858772659809982 6.654618943995828 11.723161897380331 2.868902984714046 0.668725677418016 0.41992516670670266
Ni 4.693325128327274 3.4245292572306902 1.0437699777386702 -0.6289085454210782 -0.8083180671330789 -1.156617699082995
Ni 1.9116567738783503 1.1185863178764504 10.503565312398973 0.5518862651287528 -0.4515625911063255 -0.387346718550049
Ni 6.257049610957583 3.3446388465466805 10.750574516697716 -0.17218497893910348 2.390090299642516 -0.7632538278045887
Ni 4.922052468504781 1.5478651138968915 10.508030976752856 -0.84906542425377 -0.8288735226869273 -0.23265783951317995
Ni 4.231196107713988 4.746792532273561 3.357701030712847 0.20119499301820834 0.9089039936779573 -0.9932554606418441
Ni 3.265351277364233 6.33405565691873 8.334362592223028 -1.0159408180545022 -0.29468518905856994 -0.8214620607142046
Ni 5.00404818720194 5.2514265159893325 9.646059446916201 1.9423632802321966 0.9720955387347774 0.7161681871706956
P 5.2732308293766215 2.5528668183942997 12.492164138294461 -0.4127798139111729 -0.04378203018195685 0.907235861946915
Ni 7.50995828986683 6.843280510531018 8.132569282886875 -0.5930002615602433 0.4083210068088709 1.284914718389897
P 3.370403364875004 6.547331705686956 6.0079573574088245 0.2548374609340127 -0.30005365245933485 0.6147517943047219
Ni 5.3647885417370285 5.873123044823932 7.384159180217664 -0.09771220454150913 0.625107169397117 -0.5680075961706477
P 8.880958981689881 8.553050302778358 5.197146667188632 -1.8108397835681975 1.887502880748891 0.9652474054646925
P 3.7028843647137633 0.16220238930737366 9.352260467611558 -1.1916201833001092 0.926418862633269 -1.4460714645392967
P 1.7122739030999845 8.313666579750151 11.579832156865725 -0.993693062399895 -0.9874478528211316 0.13341608570102184
Ni 8.627385297163352 5.964217032952367 2.3709014297687747 0.3498880594829587 2.183912765808052 -0.01661652551075848
Ni 3.2364241597738657 1.5455093947984777 2.1372493382477322 0.08517421997549848 0.6470911298673759 -0.9343399172525586
Ni 8.387834633411634 0.18879511911399793 3.2097692909201574 1.6768937935056347 -4.968607494004295 -0.016117474387152886
Ni 5.200648712588479 7.310770183265893 0.40522449265962757 1.2521434374961469 -0.15209257906460258 -1.4010347360146322
Ni 0.010694408237721355 6.287469920574897 11.559932822623374 -1.1883710802351921 0.9397076093223752 0.35706143730294637
Ni 8.862790266281246 3.7616474993891615 5.681079073740742 3.770439996503971 1.835122824485278 -1.57655932084993
Ni 5.656925533394286 3.130871250092566 8.410147188557165 0.6810188929630723 -0.08485180363907321 0.2543756908062458
Ni 8.108876684427 6.2874142736670615 5.828805847422901 0.6994814705436341 1.6160373243398942 -0.5454129986995833
Ni 2.5316653465085737 8.943691595790954 3.2721559667441795 -0.8531750755467693 -0.2392025826102332 0.7536325026647407
Ni 5.662026499945971 -0.004640952113568439 12.513705983766453 1.1303955321616725 1.012697628526856 1.0381096408420574
Ni 2.7694074857556026 1.9663576842816812 4.436560093636319 1.5200271900911564 -1.103879488149015 1.075371096296677
Ni 5.64655665956741 1.4092208430221222 1.4116572501368994 -1.8881335723543549 -2.021766144941557 1.9805475046114018
Ni 3.5008489913285215 8.727670299569459 0.6858703978486383 -0.48749170090276694 1.2954855519272077 0.5573120641300143
Ni 8.761494345049442 7.696625842204544 0.690055045317947 1.660032498973922 -0.6476601149969684 0.4731115209216948
Ni 7.874566104496558 4.515783668874755 9.384947461274749 -0.36015498862660555 1.2884574414358325 -0.01885184259918044
Ni 2.178891774278752 3.730086428161197 2.495090488884536 0.18824923149081774 -0.48750095687414746 1.5654819799898458
Ni 9.30852199805203 1.6583335004370867 13.25524833056017 -0.5619369644965354 2.2132415966791563 0.7277787748264305
Ni 5.008843095760523 7.906043705362768 9.658533628756228 0.8136996431599665 -2.6385272563668236 -0.2854510720548116
Ni 7.251626794720276 4.493645474040446 6.871599221929039 -2.438599302986497 -0.34387553474029164 1.6465416635763386
Ni 4.778381426955443 4.140380354124735 5.7754729235038855 0.4326768099454161 -0.4048764999036963 -0.7189418932610908
Ni 2.713834773796166 6.739888555770706 13.233827980836953 -0.5352982788630847 1.4074259842529568 -2.5906278615823837
Ni 5.212993051643554 6.383841090463166 4.740105628848535 -1.396117244108357 -0.9803981450632018 0.6978897005764819
Ni 5.008843095760523 2.7105516062338095 3.596782405541809 -0.16102279167469688 -0.7747140059253883 0.18225753268375708
Ni 2.3431150737890567 1.034169958688401 12.704083329959936 0.41282172289270197 -1.030790738583141 0.8213353053283532
Ni 9.128476427746865 4.0841584282405385 3.35506707707525 0.1319155898960954 -1.0258706755737044 0.10188613341354066
P 1.343427648990039 2.674826291402743 6.4104718456568115 0.7315161303816756 -1.064857855470179 -1.5011817752498793
Ni 1.6170063968838075 0.1566710866684204 5.703788576828839 -0.10845170244620031 0.6465506839828736 -0.4289001165118033
P 5.370677839483063 5.44835164833825 1.3317946629068076 0.1317582383826247 0.5857782898905073 0.5381293205539764
Ni 1.7539163391310044 2.0152527673007317 8.434499202874903 0.9434457362085688 0.21829719991613375 -1.3494969731466566
P 0.4723272439227978 3.286942277604816 1.331808574633767 -1.2733416688403167 -0.775396890925026 -0.43977511155309423
P 6.990698443874684 6.310322250726442 10.610258056242458 -0.09036064927244437 -0.12204178242580915 -0.2194482828014414
P 0.36254887903977584 6.098576491923721 7.902528675684426 -0.7529141364414775 -2.398282605645321 0.11357513971569473
Ni 7.576252306069442 5.491978824082108 0.3749562845903991 -0.6464326703477706 -0.019825519366359404 -0.15847200022838515
Ni 1.492181108121782 4.696821609036337 12.083066620849408 0.12876598852352017 -0.8984547733201753 0.35381361978961
Ni 6.293266473474538 1.7166792833037117 6.5639543645061975 -1.6218531596907229 2.4463925737786703 -1.5636158733153844
Ni 4.215550052127277 8.48314851205101 5.330037975241566 -0.7909206975922378 -0.28056366205552324 0.0038152599810321397
Ni 0.7650782064631865 7.269897529459945 4.263136505363705 -1.6310821344881585 -0.10361571451013768 -1.6767613816928286
Ni 2.3227019330976812 4.124873415807616 4.845616803348957 -0.2092970533000524 0.2857351789541337 0.6951753869691124
Ni 1.8700699847551674 7.194802027334517 1.8565765370532672 -1.232569372018961 1.0902585549314707 -0.8153430923006603
Ni 0.7921541369195247 1.7709906653521865 3.4602258211593746 0.9403920369839095 0.15257466090734367 -1.2308459615699512
Ni 8.07610993019591 4.014998596284344 12.142928781954579 1.0540967602989328 0.6377510834133727 -0.41885584490192385
Ni 1.210487186168516 0.37136149434415777 1.091494620796225 0.15292793048170436 -0.7674580956939234 1.4033441008740992
Ni 7.381404658279755 0.15224344770155873 0.689457768507168 0.6233783596314683 0.4184038449661697 -0.5523657758683326
Ni 0.9538714706802565 5.449306920256112 0.7870466782285933 -2.007883473422193 -1.054964764726183 -1.1727516285303803
Ni 8.846346605015546 2.7919444834294063 7.6901605989624 -1.2722134687731443 -1.0562030080086584 1.7888740779303836
Ni 2.6284074957824193 6.445358747076474 3.7847975404976313 1.6075431708259542 -2.153737270665936 2.1035025428800997
Ni 0.16601327504571353 2.878568169961639 10.095458309913411 -0.06336612296147151 -1.0234733789861212 0.9301310213775337
Ni 7.2615041208612645 7.425263696139598 12.543284170178508 -0.6024490656779689 0.07650343167437791 -1.1866967778565627
Ni 6.564572972631648 1.121368663268278 3.9856003348742934 0.18084291172441758 1.9130231365071828 1.4305456009895556
Ni 7.163908719000592 8.992577404325365 10.395053842117697 -1.2593911201974957 -1.6726018509985001 1.925916961750715
Ni 3.9228287679377347 4.677623425832726 11.879264458140355 0.513680957703625 -1.4221229241434992 0.8534704953000011
Ni 7.327788862579237 1.745949556825738 11.861536280752096 1.1391588801765995 -2.2171455597192526 -1.920439997796544
Ni 1.3264460676152512 5.840996230032962 6.019685870683842 -0.16543480469946348 0.2268602589947964 0.4513959836214742
Ni 3.841129832749037 8.725945245426525 11.511092459063695 -2.2077600047392947 0.11824374883595765 -0.3368273696442586
Ni 0.2639499779411172 8.028717313688446 7.239675693813913 -0.7705220793312278 0.9040911456703462 -0.9226326561179593
Ni 8.909311081232604 9.202106561299262 11.850813121611992 1.551456098024399 -1.2866257875437326 1.1152571338583375
Ni 3.1542336768992785 5.1437775727795225 1.0546925382985213 1.9340107945024434 0.6913711827316738 0.5496082677278534
P 7.046771978004649 3.4296209492977345 4.816622909469186 -2.3441554847836144 -1.0867603119702252 -0.9094560095266854
Ni 6.134236885362313 0.2962520804917717 8.561878684706627 -2.7416765727635037 0.6659730543735434 -1.8369927878144814
P 2.7209297545453266 2.992607233088013 11.52769378656827 -1.3912360047566557 -1.5889576945142827 -0.4068310525269058
Ni 4.831004852799543 0.08167667642556317 3.21636623184418 -1.811944843706918 0.1819777966598092 -0.8628128557468495
P 6.192322982659032 7.777341682021463 6.451248972270974 -0.1329059788338227 -0.40331146940942153 2.520607209418872
P 3.8025387021643877 3.2343559496992738 7.4024976186952 -0.9534532410432418 -1.1316466309599542 0.7624817255252545
P 7.44056659579465 1.7250541429331125 9.337722712939259 0.7144756299596211 1.6532399015321206 0.6506238256109828
Ni 6.6194130003045695 4.019951171081797 2.2394894020158294 0.6915352191133639 -0.4068032846127639 0.1978373893998851
