# total energy = -381171.8306966877 ev
CRYSTAL
PRIMVEC
9.16612139482242 0.00000000000000 0.00000000000000
0.00000000000000 9.16612139482242 0.00000000000000
0.00000000000000 0.00000000000000 13.41554518706940
PRIMCOORD
 96 1
Ni 6.5561874324413765 0.2376408612964394 8.771512462583456 2.2601382612306944 0.5535672523756014 0.2706399751839081
Ni 6.5996531797324245 4.9302091718005 4.258456221812013 0.22932337582330828 0.38980237917939314 -0.36391059901429584
Ni 2.5943148150626834 6.243916011371906 12.692755330606959 1.6572053139377716 -0.8734214845006312 0.44289077436394053
Ni 7.1469622836439575 6.932850855771416 12.531473759564168 0.6793415052606494 -0.0006278633919860155 0.29822636944260894
Ni 3.0509893113795545 7.748076519693502 10.698628973340679 -0.2961368339034319 -0.16122847992759975 -0.8705827295002554
Ni 5.881524238934351 7.907383708204344 10.7794576643491 -0.6577031010552673 -2.685849695601871 -1.0838439096543786
Ni 4.27043175931428 6.053334016923261 6.904726445730689 -0.9152361065435722 -0.6800722127790868 2.1266938933948984
Ni 0.2554634675876064 6.6944492064055625 0.38982505693088565 0.6140815077105748 -0.6347709177391262 -0.35277078034739245
Ni 8.624091900198092 4.597964772378605 12.479327695384757 -0.02321526177419873 0.7225728051454589 -1.9013513565962095
Ni 8.958279517339452 4.881271250082467 4.623721573282832 0.1866194091968786 2.1125931923274583 0.0969519293367169
Ni 5.246559516856582 3.1059860392889367 0.2733832347647467 -0.1042417781299108 -0.7399529482951193 0.21476090462810113
Ni 7.546201863780797 2.4445403927228 8.145610284653019 0.13705753910835106 -0.8582931134996251 -0.35525318044961396
Ni 2.817482370797637 1.8522806298666659 12.57648308168521 1.5129144903057752 -0.5161178492798918 -0.3243166387717576
Ni 6.4926203810994485 0.2603710089413869 0.4902591648268671 0.8720855392980271 -0.9788290008038691 0.10113794239360648
Ni 4.074826730383245 5.931846244971436 9.102111543228727 0.19942273160913396 -0.08153148101658862 2.06483649376847
Ni 2.8411951266478987 2.62297727642479 10.06462394416493 -0.8140310583574561 0.07595990046608209 -0.6035932065847411
Ni 8.33995130545427 0.874178489792417 4.838141899443799 1.4439937560746614 -0.007824638250741362 -2.0646416041488442
Ni 2.7776830720338808 2.9992007259315536 1.7168411046563625 1.345157465231038 -0.43910328229705026 -1.7345394690435612
Ni 1.9472691450874864 5.04995538070186 5.918857851063503 -0.10105875241623885 0.6599042224716442 -4.166030700230367
Ni 4.659341120725475 0.6668169936586196 4.996619553975342 -0.06251148827066008 1.5353743619711882 -2.0979864981578773
Ni 6.744450398196508 0.9136212264368939 6.270774580058585 -0.733654259770601 0.02035902327232623 2.3453273936045287
Ni 6.45485596126834 5.1866589140419475 6.594223169463505 0.43665893452161575 0.09816651847010835 0.10020283217384678
Ni 8.365451454961587 0.9890886530862796 1.816022203768142 -0.8698162836478761 -0.2760493191249375 0.2778354644910828
Ni 2.6488807352701085 7.85017794505727 7.878104366877522 2.6621292120564797 -0.6818349611064645 0.08084113981778335
P 4.687398618080578 8.442291049972312 8.851241219033685 -3.0315913370166236 -0.599058037718549 0.9207120420564789
Ni 8.672452356273077 5.921433531153926 2.420097097003475 -1.4598119540538406 -0.7844188919179782 0.660443639914882
P 7.860938971484872 7.783164432099687 1.4034541666224634 -1.4354841759417536 0.3329617160412653 -0.49844537170079317
Ni 2.207486163190727 5.357322926866078 10.271491386359674 0.047613745223221225 0.005642542997758023 1.5596705155143913
P 7.190116382810185 2.5450560790985137 10.647716669090702 0.5021991823162707 1.2683149050496867 -0.5504186794442908
P 8.362243312500206 6.437981131921478 8.109576428526792 -1.0274986980954304 -0.7984596862817603 0.45116766966075206
P 4.558871264956352 4.063231586915684 8.012595198531388 0.1504730411833086 -0.1943147209586073 -0.04725173389811217
Ni 5.1454388664738655 3.1293046519225145 10.002643548423187 0.2470619307536519 -0.1214969656659327 -0.2657188837332069
Ni 4.261861435881735 0.3730428054093377 1.2689560020715425 -1.172618702496942 0.31207587373119156 -0.4972207552650727
Ni 4.860225835535811 8.579278733073263 6.637166447839414 1.2519336354781858 -2.84529305860459 2.7006186263809298
Ni 2.879592008849966 3.0505951681628707 6.612589326748843 -0.061229793344759066 1.8384855703099239 0.7654426079257913
Ni 5.661051522866957 2.779351306113799 4.038549055429954 -0.23954273955847136 -0.6379606283210174 -0.29541666790795573
Ni 0.9660908546988398 2.410598245481393 8.035361094049478 0.19938982148866952 -0.32937605557253596 -1.3475804728502339
Ni 0.6360939882241753 8.079706788987075 2.4072856092369843 1.4334697166148862 0.36763072817836046 -0.7518838954047502
Ni 3.2173452471841166 1.2741458599619244 3.398895862297909 0.11469176981864118 0.7973104031686655 -0.6727044595601059
Ni 6.83503917518458 4.4339003669036 8.793406659964178 -0.2143284450763728 0.8272730109690267 0.3321147946599377
Ni 7.030607539630341 5.03561040083883 0.7228467434405662 -1.4783627204728345 0.4885165426228555 0.24841458812680442
Ni 2.005758165219114 5.37756172273673 7.9442031009275444 -0.1456139133187944 -0.056058276446148615 2.9375614664227085
Ni 1.9982786102234384 0.6113821251502263 8.823752937812445 0.7452746176183487 0.3236448095157136 1.2464646419438143
Ni 8.833986912264248 8.955951322524621 12.935576883672464 -0.7005145397938388 0.2185702510718623 -0.16954856975752092
Ni 2.764768007096494 7.513066335215395 1.2867584428958094 0.41878462534435623 -1.595698355672226 -0.6389181071382803
Ni 4.635674195481804 8.081072541063492 12.653112772517746 -1.4133600903492045 -0.3022789422454278 0.48881530481019686
Ni 8.192880888903264 8.110999927167514 10.488743127395843 0.14127877627855023 0.5551250837810247 -0.04943614314394066
Ni 7.434915984856163 7.773164193741499 6.385115527218585 -0.645073842327031 -1.6811489692375627 0.44770645058502895
Ni 4.225746917887908 4.457411468084861 5.2010323088810635 1.4056025578909728 -0.8561367292782547 0.08102343103191852
Ni 1.9867567957264227 8.667108507544548 12.77968865841332 0.2939351982664228 0.26554456293887174 -0.4924176774494745
Ni 4.488521283838935 0.5841688275685323 10.71338642866303 -1.2695665180686007 1.6006503003608625 -1.10630918063643
Ni 0.8562669721244631 7.623912240316754 9.18503377634623 0.12159029671068737 -2.017429979460048 0.6179075663248843
Ni 4.54033736765089 1.2884633414610003 8.34024278811219 -0.25308731101212545 1.84919087254257 0.9463482545673444
Ni 3.501055034225982 8.194264973222317 3.3092933599636805 1.0429062908997522 -0.1160840221804775 0.9261573814417662
Ni 6.438971073023847 4.365823583873103 11.907570712693241 -1.1372174401795125 0.0604162963045282 -1.0806169180766485
Ni 0.6777631757368503 2.8770988238514072 5.16761446377906 1.5109663654404686 -1.5173501574796255 0.09370796847812247
P 6.5967658515171825 2.5448452583081944 1.942490846044293 0.5181909297588365 0.20637576588819942 0.1514945404692875
Ni 7.775648212618739 5.880928441048667 10.362005917765066 0.3380229326142566 -0.3596878191821999 -0.3746012459589226
P 2.0808286988154205 0.36772278859623686 1.7122259625726337 -0.1297340088637443 1.0102519951998408 -0.34757046709337563
Ni 6.038466568145091 6.86108929197099 2.986273745036453 0.8190742772083183 0.6824761942348891 1.5205303549798201
P 1.398337637702627 3.232121034749104 11.605680840628798 -0.06967406745737033 0.32521832465042055 -1.7119857521127613
P 0.8798119879546014 0.9678232516279852 6.1954730602050585 0.4121753475579547 0.23290337986508278 1.427365403489361
P 6.433416403504999 8.617180644724145 4.70515339507399 -0.623159815862759 -1.0082673606696442 -0.5724779732371754
Ni 3.136848369767418 5.903073790153511 3.573686462939507 0.23539117928394301 0.27947737096987996 -0.019753785588159527
Ni 0.9651100797177891 2.0385178828104698 2.8958792898203294 1.3423680754113592 -0.5776001249550892 -0.0012390146134236724
Ni 7.458106271791286 3.040787418352364 5.709534804967605 0.2501079166688273 0.7055310191718237 0.009926000864460324
Ni 0.9694089906160391 1.8043143170083664 0.4238496992641566 -0.8144110674046942 -0.5700835048630698 0.1912221980762126
Ni 5.295451607968023 2.6360664976672226 6.5424529162581395 -0.6798482696937388 0.9541379258150922 0.015242013760735041
Ni 2.9715923685210437 7.545596899773794 5.620992822869896 -2.28389833976477 0.46565429331270125 -0.5996517054384899
Ni 9.160145007130838 4.089959996679643 6.900312041703829 -1.1222847301290801 2.3114531094545874 2.173556876495024
Ni 4.813542779662064 6.635786029968888 5.005836088960822 3.89739695684321 1.3750275133175933 -2.9898019117846637
Ni 8.276695902237163 3.027166562073474 3.4911537899780294 -2.598754861564892 0.06375410242850955 -1.2177258792482253
Ni 7.729450961174858 2.2327663257864065 12.970578634538258 -0.08856679059681521 0.6211492131906334 0.08025030031131986
Ni 8.894281658295567 -0.228630564040619 7.6497588692099 -0.19439956736292974 2.389461150698949 0.2956483243027876
Ni 0.757902574422138 7.112937641310686 6.743002151028229 -0.1992070160539021 -1.0972303582636136 -1.5687804482354597
Ni 0.4926542723273207 4.010086415512585 9.620555614497022 -1.1547824456464693 -0.3520012491712196 0.6742864593352452
Ni 3.134245191313041 0.9450729385161376 6.6802032206527695 -2.5231052932503775 -2.109233531826606 -1.3375914799583222
Ni 8.259197776640661 7.632940869815211 3.972155172273484 -1.7108981754755372 0.4085338941506255 1.0904680998391156
Ni 1.4630687864519698 9.019747526899504 4.481060061085895 0.13647364158042302 0.40708096375418273 -0.23410177104855812
Ni 2.7076997357691925 3.4300542584949696 3.954553469506086 0.14016291750655216 0.03772631090618019 1.1558114011316158
Ni 5.045729798774156 4.401094818705654 2.3771134876937654 -0.1952068937555735 0.6396878954247693 0.06382300799323203
Ni 0.6668344092891243 6.701122142725235 11.574972500988462 -0.6992858095930602 0.4158605097190257 -1.1433443790128566
Ni 3.761886182457544 3.9778491668363687 11.93183985210752 -0.6003155642747339 0.04711006611392532 0.21118578568233307
Ni 5.931488766240025 0.5573414236943357 2.9132124252331026 0.38651959466306335 0.04123612383165157 -0.11072738585425446
Ni 6.904985846963995 0.6107698282461684 11.392548354513043 -0.2144102061569017 0.8272709540864978 0.8045629709660207
Ni 8.725716687253312 3.810521622172074 1.2701512642914397 0.4182110122290733 -1.8014889384809167 1.398800961588107
Ni 1.5430523610748474 4.805348267203566 2.5162066288615157 -2.0132912747013263 -0.15394942976768328 -0.8310152516202785
Ni 8.874977806799375 1.1516956452716856 9.651840503168273 -1.142201523657665 1.2084673367644347 0.5896169469103071
P 0.9947624821822642 6.8373123732715 4.414076796328663 1.4734796813489202 -1.3666405748054786 0.3049058383453136
Ni 5.533651602664874 6.865030724137829 0.9230650812310666 -0.8418758484838661 -0.14072958864329957 -0.8088047769615103
P 4.966332855915645 1.0882110890216223 12.65786173997272 -0.05298118018272165 1.1739955282398102 0.606804257322871
Ni 6.088577753391856 7.010112092362779 8.592723599822845 2.5834853370003312 -1.8798641332567108 -1.4278577697447474
P 1.1007686752275978 9.219743127941971 10.727687411143732 0.7032733334858985 -1.5777461420691796 2.011262160086439
P 4.543334689321952 5.826060038837739 11.344935853937628 0.2929242405034052 1.277495285997374 -0.01685820920791935
P 3.346523394921937 5.163606118926597 1.2188329008670635 -0.27189133109250596 0.2156376508060996 -0.2561440955605782
Ni 1.3895198289944897 4.136899703950301 0.0006150467404532548 2.6761334967553716 1.459966477353834 1.3313555263509393
