# total energy = -340869.27148780477 ev
CRYSTAL
PRIMVEC
9.24389218317630 0.00000000000000 0.00000000000000

0.00000000000000 9.24389218317630 0.00000000000000

0.00000000000000 0.00000000000000 13.52937059701879

PRIMCOORD
 96 1
Ni 8.998254423730195 3.2035540978763817 12.579460349507341 0.1617010486886441 0.9717037026129977 -0.5721270176556598
Ni 5.586158113855015 1.2503011510780724 6.604186132427052 0.007134811272568358 -1.1775385083960623 -1.7524240626334657
Ni 8.736106879843941 5.497472210401272 6.0946572383357 -1.591349334674911 0.04967859817204993 -0.9568249857289522
Ni 4.2299589317193975 -0.1599221112696273 9.81365077508854 1.5607820034110154 2.012772940304011 -1.0952773483023008
Ni 0.13997933785800473 1.6588627063051489 8.731910152705312 1.5440551775746376 0.4607869379180709 -0.21075795411629508
Ni 9.19180304229539 3.6327018014244383 4.642860494416928 0.5603413378746415 -0.04995936263726235 -1.1550099882762432
Ni 0.3906459674134739 9.082836038969068 12.450011653843886 -0.12102619667710125 -1.8368110108209785 -0.45179373328052513
Ni 6.032924676271411 5.085176122654359 1.1067444268706204 -1.1290364470306167 -0.7390492055339272 -1.1019588740875346
Ni 1.9964496558705775 6.928204896763233 11.933338155335251 -0.8390352937112776 0.2937248820278296 0.533399776288791
Ni 3.354571567620369 7.1153382540196 6.8085750635813875 -1.9124695779965577 -1.4197222851218068 0.6336733137995731
Ni 7.71643159965053 7.656124445790595 5.682078287482087 0.025127391195247047 -0.8095092592277027 -0.36599113569240843
Ni 2.1192640099758977 0.4031252221208487 10.743348780063304 -0.28581025516644326 -1.2868692710131064 0.3290796073780397
Ni 1.983138450849378 7.099790027043449 1.074704171506745 0.5173105840364124 -0.339801364670918 0.30927285706475766
Ni 6.3556012274346205 4.719718837575793 7.606482894953896 1.4837214136815866 1.2088828270352987 -1.4254489031929385
Ni 2.786922624605203 2.122055665473399 2.5589183215983264 0.14624460492425784 0.09815674827809547 -1.4282678606989725
Ni 4.495360325721945 2.885397810084954 7.448757132512766 -1.4855168150191125 0.0939779343100575 2.4916208494888505
Ni 1.4109230250005504 7.922561155739236 5.266849112684322 -0.2806875892278972 -0.3728318127633256 -0.4151997362065752
Ni 7.6851132922812075 0.7623271652286884 7.031958344789585 1.8019031432002 -0.9108271788425991 -0.10924051689608283
Ni 1.1474628483969282 0.9634446828712163 6.6065405518151765 -0.3051580635654358 -0.09350022334269058 -0.757288097139457
Ni 7.832876911908902 5.609369527610733 12.414090812460636 0.022599225456754624 0.7196841707437541 1.0303819331804964
Ni 8.338037142463435 4.204787812780004 1.2359500081645916 -1.8665851567596174 -0.7737089616996417 0.5720660825107374
Ni 2.11568662362645 2.597820318272783 10.660737962678956 -2.0575731273378373 2.4446287970100284 0.1366857575912291
Ni 8.67281394874661 9.314608152508335 4.410006845469689 -0.9128984595493309 -0.6330035414260582 -0.47411065161017063
Ni 0.8659317865877894 5.278817180143314 9.926309789029773 -0.2545412698498326 0.9440661434013871 1.2943951470765063
P 1.4612652628793381 8.673239167795899 2.8270022931683405 0.3862318882193155 0.4995198357118946 0.3501942778694679
P 2.012044102308608 3.762236465286989 12.563252108615556 0.12405392775983151 0.08742316391067524 0.47080112762096343
P -0.04871161526369069 8.360213240273058 7.067378167206065 0.5737997773723924 -0.016795731401100106 0.47388747985577095
P 3.3536102028132824 8.550942471663626 12.23461047370222 0.5115070899807578 -0.1744298091092222 -0.8663501794761468
P -0.19506831447178274 3.3787813217526756 10.092856997965159 -0.04096204423465849 -0.1645259197319489 0.4247549839951782
P 5.6139452543367705 5.127716515367944 12.115294932861152 -0.3468878392040542 -0.7486754157697816 1.2308827283451576
P 7.4477948433164425 7.974447123644787 2.893553696328152 -0.22504660282482536 0.05680621035576668 1.461491912859425
P 6.461018576088622 3.621904935129465 2.6534343479735085 0.965292399770015 -1.567775661120029 -1.1710989234183056
Ni 2.1004896645605804 4.315169131639828 3.494121988872135 0.43441590412370984 -1.4950638352775993 -0.5422117181534661
Ni 0.7685196487312591 1.5372500582086872 0.35685769200132833 -1.2365383839690383 1.4781261789819962 2.5640251713931907
Ni 4.930710681054187 7.020403479319794 11.348747930762897 -0.5261783188396874 0.3985521003475652 -0.33021603497532803
Ni 2.010907103546381 4.807859351379363 6.245631261785521 0.33185099947558977 -1.0034272589685234 -0.3417016670174244
Ni 0.7460514439225588 7.888913387491203 9.986637279452934 -1.680320045578364 -0.9882119846806657 1.2196531781779252
Ni 2.9707096928215186 7.433679419658545 9.792531254177476 -0.5822191117843392 -2.504887741801086 0.38826074572388614
Ni 7.193661754120035 4.664523556199693 10.426314700806303 0.12249018281713743 0.46952766022517844 -1.2140813405171025
Ni 6.595914697529157 2.6250528252119874 11.73702653733892 -0.4677926798119428 0.8794365803464597 0.019856372604294837
Ni 7.569315052489146 6.86604896442813 8.344780561951605 0.9969794464606506 -0.581880754608314 -0.3145410474422325
Ni 4.410298028079528 5.053580498513761 6.549175728898469 -0.6611450368572807 0.09719901235051646 -0.9441725870722643
Ni 8.549953375179411 9.179212860879506 1.3555890852388128 0.5497625339175306 -1.3289960249798274 1.03374416478451
Ni 6.003519854623885 0.1930096996396847 3.7575793923080445 1.4751611828164013 -1.2669463068369342 1.1478643783703972
Ni 7.4635094603553584 5.395086858446543 3.4021628231281085 -0.5643044362874475 0.2769939424263939 0.8237256599374008
Ni 3.2700731474128775 6.0842837423115395 4.392756817907147 -0.5435803163662186 1.5266418671941966 0.42732505871519955
Ni 5.342026916209261 7.025838888036783 3.751667923133699 1.91505353667365 0.46478731732671563 0.30282967254257526
Ni 6.68231735956607 2.254206350878311 0.599718778834644 -0.682192087335567 1.6224442563075026 1.54428811952105
Ni 4.599696138967975 3.2751942637890887 13.243305858531617 -0.030236944507670505 0.41482461225534367 -0.29472144161314406
Ni 3.8468827877724943 4.356886817931964 1.8316735767144003 -0.9034797373385924 -0.6832179574969202 -0.4020071487757012
Ni 4.358883498685144 2.309688192918062 10.697890090526668 1.21018509078649 0.5548309495793735 -0.9949300201307898
Ni 5.237922200272627 6.326224137464222 9.042070473591645 -0.664760779232997 -0.22225592745356562 0.1458093171590521
Ni 1.7860586653966137 3.695828342459003 8.412873846359705 1.0425370804857916 -0.49524306271341156 0.29610932309960614
Ni 8.43395176975508 1.4742621755597596 10.936683864714617 0.7448979510052204 -0.6049828878434161 0.435891717338288
Ni 8.033108864661825 -0.19197808125054172 9.315743302492086 0.7974394725473621 -0.08530020403040149 -0.38480338330290503
Ni 0.016541021017315947 6.54730106752465 2.425207267160374 -0.009250829174306648 0.8961919454279276 0.8062987227102049
P 2.8515928956665317 1.518300078838229 8.844866819981043 0.41601349035712226 -0.33886214068610027 -0.5588652675497471
P 8.008483135372606 7.135758012277816 10.453427961533858 0.12420536573603126 -0.8058971163964121 1.4982147222017552
P 7.77466812161828 0.847843337986759 13.159991580937469 0.4470161093862237 -0.15249418537839543 -2.2606049164544677
P 4.213070340348751 6.435237360252424 2.0830769444922232 -1.13445350428113 -0.2313925996475112 -1.3911200480040815
P 6.322887092316547 5.498017600051446 5.375922420772966 0.8865454234770989 0.41233758416743177 0.49793757882643924
P 4.238389361566158 8.164723404308939 5.227884257541709 0.20153797817992386 0.7110154393251626 -0.818707895007835
P -0.06513431445859597 6.840868601596361 13.705523587054216 0.7791635570563097 -0.05713274045724999 -0.45410155547809533
P 5.581166411972066 3.8039541515791244 9.228708358216666 -2.611036250035406 -0.18571180978094468 2.454658927552521
Ni 2.9798796340583453 9.099548996384575 0.7313370160387075 -0.1912404529086577 -0.5503209775241619 0.749587900281722
Ni 3.6948300020824134 -0.0076835233427925646 7.219813650040505 2.0670730964084725 2.5071924786748627 0.23888916513487246
Ni 5.9177088016990265 9.16573526579554 1.29309667522123 1.5796392453268342 -0.2615069025343883 0.22403873038560124
Ni 6.987587661385585 8.124309106841796 12.322672414420596 0.593747681249229 0.045420080006012095 -0.17828414985830587
Ni 0.9843820991024786 1.5509679944944235 3.951536590916252 1.4477036008260808 -0.24713135053900664 0.5947519541440274
Ni 7.689707506791997 3.1817200240846635 6.312479393890596 -0.9211771546183555 0.16391142607640158 0.6997061849599304
Ni 5.77208052121015 7.324361148421941 6.824958938428313 -1.1923804585049014 0.004644954971179097 -0.7871244637745992
Ni 8.625845731585002 4.552995994685266 8.213153080855166 0.45053877782750157 -0.9551776799335164 0.430663121949497
Ni 4.980969723901591 7.41021842080868 0.12596837018395432 -1.4614374054724057 -0.8262016322817191 0.4420641646975871
Ni 1.1635657089156297 4.843919775537488 1.1238752082215144 2.381551923154202 -0.40461553293282576 -1.2569318600237256
Ni 3.8077256596684643 9.3142383968133 2.977557568293536 -0.13229302784017216 -1.7217438599407897 -0.3953243374388869
Ni 4.946499249232109 0.965792631534678 12.572641130101688 0.6166847496613767 -1.8282592645962257 0.5083685443517761
Ni 7.090731012515132 2.5615565284823893 8.58414191113143 0.5155180109123637 -1.0065141254239633 0.8743712500084102
Ni 0.9170514358153846 6.434738190064129 7.700430421947964 0.3881172781674864 0.7681535790990512 0.5552950336999856
Ni 4.927752635493919 4.427805960239356 3.858779677260191 -0.01731432290873147 1.6388916032302487 1.7849806564132487
Ni 6.200460981691012 0.4376659503723871 10.631433899458328 0.9755019933131652 0.4683238697250644 0.07868089894167095
Ni 7.119239176602202 6.993596191429877 1.049903732651622 1.6787462733333414 0.4074208635921048 -0.3442393458376136
Ni 8.184717943517866 1.9520419968970748 2.860717541830717 -1.659730651462787 0.8264122056306284 -0.34674000077228023
Ni 2.6902777298158664 1.5979639433331596 12.96407282836711 0.9554419893384963 2.0963476770028735 -2.3283845951026025
Ni 1.9354584539748303 8.611776527388983 8.245542755350847 -2.238747968480377 1.341637882113554 -0.48878548001352595
Ni 3.3210347260808457 5.378336925461533 13.24183145769767 0.2650082308194275 -0.004797678498959479 -0.49224412798608774
Ni 3.233698430913974 5.279565935425755 10.412555167004875 0.9618471215338918 -2.3859963320788005 2.3301509429744063
Ni 4.8952326221157385 2.1307634120914343 3.665201478239393 0.2628505610464763 0.4277048106521214 0.2695827375639874
Ni 2.9659953077098438 0.6525291359777791 5.05662913421931 0.3339801300034506 1.3947411896964366 0.07300364605123556
P 3.8358733119528767 3.1317382980085333 5.464120246709266 -0.6387252744011839 -0.10462358694936176 -1.3542591704219902
P 3.0319782114885414 5.6654984421167915 8.427593820578982 -0.50853232362315 -0.32923233090582005 -1.6008058521021205
P 0.9767189123229129 5.687378735370389 4.550428041383259 -0.5622681225837091 2.0004329306814195 -0.5997468362554574
P 6.1474010394537295 8.717794729047416 8.478424135975214 -1.753269698463213 0.5929465255041724 -0.24882956417703597
P 0.7845143557091632 3.000243928962306 2.31074846737357 -0.302165299485699 0.07265011936655874 -0.6948036054519904
P 4.461684825796785 1.363058150278486 1.19538226208401 -0.6875813766719384 2.4067713598426232 0.48288171293458126
P 7.17552523727865 1.6307890051597433 4.98236647603958 -0.1188736691104727 -0.4005886711616197 -0.6836247060170356
P 0.5685280371801075 3.072300070031926 6.723258558898635 -0.003202823208013839 -0.13437587851112986 -0.33001343204621875
