# total energy = -381170.2237609311 ev
CRYSTAL
PRIMVEC
9.23892569727179 0.00000000000000 0.00000000000000
0.00000000000000 9.23892569727179 0.00000000000000
0.00000000000000 0.00000000000000 13.52210164287609
PRIMCOORD
 96 1
Ni 8.341567160789335 6.263012175475732 5.036185418684805 0.8335408462556096 0.5596689943979651 -0.011570992667051042
Ni 2.7380294888281016 1.6132457404970681 2.1282031232652168 -1.4054791449392312 1.099572890353861 -0.04917646172465079
Ni 4.113335941520289 6.54709065732028 5.9073329447549305 -0.07707421657618338 -0.9672230411338246 -0.2854127626177084
Ni 6.228338488004593 9.470637770560979 2.9626785822745405 0.2330064811018503 0.4841724067215468 -3.0022491364090813
Ni 2.8226672855035893 5.637361378284666 8.464524324945584 -2.9743318411735227 0.38707932382127536 -0.6235282549457714
Ni 1.260115529326836 0.4643243753562564 0.5109384501675769 1.4211698162016104 0.2746259564148496 -0.04199871302928896
Ni 6.108241695188889 6.710896806764271 1.9465880209916582 -2.764882578566322 -1.1945828654728587 -0.6865935588373724
Ni 8.89763960990016 1.516578862796421 9.043473277532904 1.0824732545590972 -2.0637666577430585 -0.32688388527830153
Ni 7.54799889229852 7.440522471741162 9.289115981435156 -0.8042446683946535 1.3738499480697242 1.1928147178288426
Ni 2.2448002110944922 8.550745673454953 2.456655240482835 -0.9449994538489338 0.05981157284099377 -1.3834265360145659
Ni 3.1103674261514107 3.0964997989480594 4.578272857638425 1.6113278346793671 -1.341702159692586 -2.852015207819772
Ni 7.992114041975488 1.5827110916582419 13.519707746174193 1.9819904077055157 -0.7866809484792774 1.5823890401578296
Ni 0.5130255234422185 4.908511783051333 9.335888965765397 0.22616991779599113 0.2204268446646268 -0.8130656091203933
Ni 0.7400536402096854 7.7119159088487335 8.696766891275724 0.14419337882218392 0.4093116528569144 0.8178116084458109
Ni 3.8224760883451214 5.433236557877698 3.572188052692139 0.9951480496788667 0.3104704769172847 -0.28317950241181555
Ni 1.3170273105211385 4.943444160436991 0.9590198705696606 -1.0501868837215658 -0.3080302429069082 -1.0804374550759908
Ni 2.6570133509558875 6.882990272398406 0.4017482089265274 0.45458260887957197 0.775336984221368 0.9793941292787197
Ni 3.6765934544071284 4.508438591321319 1.0242152723839002 0.4655205959483144 -0.5550356093910118 -0.18019602216903804
Ni 5.125635771662908 7.761704478468229 12.740537419211496 -1.6081574073711853 -0.5921787941002123 0.5329395488229208
Ni 5.888604718836266 5.097401615278201 13.074546750128526 -0.3943264923019919 0.4319203913953658 0.23093520039511842
Ni 7.1286902576388735 7.357030301829976 11.832542286495714 0.4308976065578063 0.5016407387096392 -0.6756224045378493
Ni 0.3176675194598085 6.9156498741065 11.283409194341878 0.2986593432149695 0.22533096683446352 -0.43925214917008865
Ni 4.2539523879127055 9.02409278347263 1.1325749342208313 0.3547590144220148 -0.8188325935111574 0.9334960811950246
Ni 3.3201741857522906 1.4855822676816668 6.446959182550175 1.2094739236520782 0.9315790666779699 0.38907835652917505
P 4.227538299855155 7.718318484233093 3.065000606285096 0.5334889935684877 -0.2774721676143931 0.19909620150765064
Ni 4.905148814162579 2.0797006120779034 1.7334654110221692 -0.16959047873904987 0.393618924712006 -1.6614841438187837
P 0.4149164494681248 4.710225963572093 11.885183836315342 0.08866629228915698 -0.15418237171409577 -0.28111850611772876
Ni 8.927176454782982 8.72794826490085 12.82079134572843 0.3161384738363394 -1.3446810398152518 -0.4779068854278091
P 6.575140035194615 5.576051868543531 8.963598146962232 0.8649905801244586 0.08486491626519578 0.09734659367197429
P 0.6172442988617332 7.374270136847601 1.3143203053442016 -0.4850321836186808 0.20630608899252856 -0.17008310210475225
P 6.948133936229742 2.186428679668258 9.422673888731397 -1.0151000673207615 -0.025927775609355348 -0.7615201329429336
Ni 7.86404405643727 1.3886844168430557 3.757183677812937 -0.56991612604727 0.15150842442635842 1.7405417093735829
Ni 3.479684234830153 4.081886639055125 6.5533648116399315 0.11004398663398467 0.23477257186333764 0.15697047598219419
Ni 5.479976282076071 2.9391701362925757 3.824050401253483 0.2663794001353412 0.22615680516986855 -0.5313662907985299
Ni 1.7497878207358015 3.1350907908390657 10.542979529863587 1.260285606987307 0.28588610270970116 -0.6606038196418301
Ni 8.599360899533592 3.8987896131283906 4.206860660652075 0.3585848159260082 0.3814771471431495 0.16540600834405708
Ni 4.079817119738969 3.4846917324612097 11.907657522639226 -1.1690209578433546 1.012281881145676 0.29285842026247627
Ni 8.245186689779763 4.574256696715509 1.9008562635673596 -1.1236294170824326 0.415181224263814 0.5575005259917366
Ni 1.7590175073288385 4.931867786762242 4.5871163571447875 -0.32830827642965393 0.9473275877614781 1.455679419942706
Ni 5.332790959639961 8.512690539244023 10.548536743562998 -0.48803034701505627 0.6164412661920029 -0.7645116114710898
Ni 2.0345869387707967 8.230330497545925 12.165875328064788 1.102996057102797 0.5193145018403185 -0.5857710908016557
Ni 6.3305210042398175 6.6690906687928075 6.5664000116540615 0.28194871532850796 -0.2549323346406642 -0.37352986727161475
Ni 7.993278146590826 7.198970764058527 2.8741770669471927 1.6723707088243005 0.3895694372329807 -0.9117378635823266
Ni 5.3663282592723185 8.80891820814547 6.090936263800083 -0.24319524870939407 0.021932795517349325 0.2928828457425085
Ni 8.017327069715627 2.3631600859127078 5.87869319953996 0.35851153948591163 -2.22768939667337 -0.06527388150714565
Ni 6.197840794867841 3.874796123556702 10.558394677091297 -0.19342151972037655 -0.20322050808866934 -0.2700542778837672
Ni 5.025532013669357 5.991036686060493 10.813043485589038 -0.23256348002716073 0.6237051468432677 -0.640511162657013
Ni 0.6530516024939992 7.825222091408299 6.32722086004459 -0.1556072770860804 -0.249831265968673 -0.4439950631717128
Ni 7.7587203055257365 9.060697406377148 7.4628474113642005 -0.4188800132716398 -0.06669107356964643 3.1574756331169747
Ni 3.0201123627606417 7.572897796571027 9.654171797664741 0.4077116553596462 0.6610164816992163 0.8590940121343656
Ni 8.674048373425595 2.803903027775403 10.940232077632785 -1.4180883490628093 1.2768000597025624 0.9800592736665443
Ni 7.282712384958714 0.8359139597125628 11.741889949307648 -1.7186557079337694 -1.3128057883732098 -4.148871414842262
Ni 7.287756838291846 4.481294628147803 6.20941624465004 -0.5338654030712999 1.220148886867421 -1.3403320188179368
Ni 8.032127828396353 6.172600050351147 0.16913700946819743 1.114266487810294 1.3096489879117832 0.2503835389277172
Ni 0.24930501397780813 2.4607693340162475 1.3537381810691191 1.323764858487875 1.2856359128266373 1.102273834224792
Ni 0.6815592310740544 2.092043816570694 3.6595808969572596 1.5098916443190513 0.14676422487315371 0.15693833719267808
P 5.680128364510059 0.7321164792966942 13.280082354462175 -1.0411533127643877 -0.897702468535183 0.5297418678212297
Ni 3.0223297048850943 8.44138451209181 6.748988896677276 -0.44286943420770186 -0.6869370582197202 -0.1542564194851408
P 5.332670853608221 4.523110005044785 5.456843860362711 -1.8540880527338712 0.14881853629902111 0.349830723882462
Ni 5.862698771682237 3.1679259321320123 7.561640165826668 0.4784455315400986 -1.0467783722606487 0.8172976449238699
P 3.206794091788576 0.3240266718942303 10.720606187990786 0.2466883494643171 -0.036813569283923694 0.5337247637283776
P 0.956977144137508 5.3181103069909765 6.671548222980743 -0.05811001676885476 0.44810625712660884 0.5182127841357076
P 1.5015563699032495 2.693035921552736 8.445431161468937 -0.17211710181564552 -0.14260803661293503 -0.9746823256253472
Ni 4.275091049499161 0.8476778835753397 3.7278269919777265 0.5505492914848842 -0.5210206858981479 0.6109655877894123
Ni 2.731719302698928 0.5440101079537984 8.581193476393905 -0.30625875282878223 0.5895380140432557 1.1055090533326382
Ni 2.4221413864231667 7.571244028903205 4.452855367616585 0.27107654850069446 -1.3529623059874378 1.2800535336428536
Ni 6.554657337319977 4.991578962388666 3.7804685417973523 0.12160803732250024 1.5161926468364144 -1.1327812587850299
Ni 2.2964365658176993 0.7626132485408945 4.5124602955995465 -1.786029923613369 -0.9262892790339401 1.3436883368846795
Ni 5.636252707222439 1.8226182705985754 5.752153180067616 0.05094975157498967 -0.3599423583951672 0.0012966073242364768
Ni 1.3926201991139604 3.0718318678135157 5.983057026090116 -2.0027839474120994 0.912364441422732 1.3413630311856124
Ni 1.441484876181601 2.9813088755827075 12.862547593502095 -0.07945608654479865 0.4647171262104125 0.5013157512700528
Ni 7.149034371630734 2.478812955553987 1.8416827934061148 -0.04215529321181127 0.29740644464447485 0.6708234404873092
Ni 4.818783338415121 5.048934212007859 8.126160688431659 1.0449199788956713 0.9383372113374099 0.24252521922556297
Ni 5.042503919846944 7.657785044235516 8.21642129517774 -0.4583392477085268 -0.34318647909306704 0.5705308768131335
Ni 7.028207703699063 8.421881140322139 0.6077697807424544 -0.6468309342274537 0.6486957553503344 0.19176675772577295
Ni 0.6041398069062139 5.828062039913172 2.971157144222919 0.20595050542532273 1.1454017757625177 0.05754154585989445
Ni 3.679041769669545 2.874340595928871 8.801711846240996 -0.7603973321924001 0.7046686711715283 -0.8765710858732065
Ni 6.264462686782146 7.798013455756153 4.2481170825551855 -0.30104172740421703 -2.264632292446306 1.4949023699990707
Ni 7.865411417414017 5.447603087059052 10.721119872249618 -0.3826991924757086 -0.8472833926526827 0.5977927978528802
Ni 8.337455838933577 6.259141065683458 7.597244213097525 1.5307484331634025 -1.5273412072540664 -0.6157342128226493
Ni 1.0032826388365086 1.0874030556829575 6.863616245585995 -0.9510885974658071 -1.6754547470662629 0.5471382089208061
Ni 8.116691713667691 3.9279291842139146 13.189985276697774 0.5062574115460442 -0.255012038838664 -0.42777474465810844
Ni 3.2524343838502405 1.4234597324948988 13.254025812822194 0.7908808454932379 0.11483960825041511 -1.4603894238238655
Ni 5.29045820291394 0.8157767976523189 8.126810184895614 0.19531616563992815 0.5007174555644215 0.6077766485384695
Ni 4.958632953989497 1.8800381926963985 10.383513827628214 0.016447346922745867 -1.6832552169472883 0.9863515344331595
Ni 2.196157268239297 5.480798546447223 10.891876465361216 1.6326448509895883 0.5872042237037565 0.42044452954528233
Ni 8.40786569031049 3.5022826466485397 7.797033205758634 1.4366458003500224 -0.01085288355410389 1.9572718219129128
Ni 0.2519621289569447 8.688442619383505 4.016442710144437 0.14987088882293542 -0.0047951073957981935 0.971460733364256
P 1.8895173302784365 3.653542335238332 2.6016518614635986 0.4350694785473088 0.48085645497443635 0.08779931630317138
Ni 1.0749489840839446 1.1004576574406766 11.367881614250583 0.10335089088452523 -1.5833958841557891 0.11870526185340848
P 8.646387030423039 8.84531957468858 10.533432948125263 0.8346808733973238 -0.0946937294301595 -0.22034508358409793
Ni 8.716067006683987 0.18214541659832373 1.9624216915453587 0.010418110009530444 -0.28399582766552384 -0.46665162422896406
P 3.69148660234304 5.673771983753293 12.522303835645143 0.5398866695647153 -0.3524110830151285 0.23238247436460624
P 5.799347459401502 4.211471808378387 1.6525629119338334 0.24771704783914758 0.5398661007394251 0.4883190819000687
P 7.944552053405964 -0.10324129709965145 5.569158706214136 0.2290151005542701 0.2505923125044136 -4.0056879653418305
Ni 6.18032379208466 2.6958075992083024 12.765391052748964 -1.3700837961590726 0.8993505456615671 -0.141744145950743
