# total energy = -381174.43560532155 ev
CRYSTAL
PRIMVEC
9.23799106004241 0.00000000000000 0.00000000000000

0.00000000000000 9.23799106004241 0.00000000000000

0.00000000000000 0.00000000000000 13.52073370681529

PRIMCOORD
 96 1
Ni 5.305405940452101 7.764642284336449 2.2481464021279614 0.351310136641466 0.20453151359060906 0.5345793984191891
Ni 7.908681039877564 2.3310130289208626 7.358213175464361 0.472382098954838 -0.565775107295703 -0.5087709219965173
Ni 7.303084540422855 6.617560942908775 11.473532155025566 -0.08597537572055515 0.5167153736545745 1.2551431435544191
Ni 6.730615476664045 8.710298470183153 4.037912929243442 0.907345905162218 -0.8905447744444792 -1.310420061749853
Ni 0.33831001089818546 2.9561478793228164 4.727551127945183 0.6469798011004921 -0.5040616894463061 1.101028648963781
Ni 0.49033685724974224 6.001876557291234 10.201203979331902 -1.0948646862449143 0.5501019195348203 -0.545214509535532
Ni 3.5124874108102837 3.7470954300331005 12.367820491963448 -0.01328797535815776 -0.13559432429926324 0.4519557127796862
Ni 4.84582512661071 3.387063207117254 5.962143034237238 1.4905299519629878 -0.12265241942661456 -1.5546044138453936
Ni 8.506249725160567 8.492365024700185 12.488682051905723 0.916495689982286 -0.6645833731148683 1.1302569497012793
Ni 8.18803788746372 7.447917763189249 5.786387484224644 0.4862758262177948 0.8911425559294781 0.27200934472760896
Ni 0.9777304905695589 3.1099881433060257 7.474396616768488 -0.1445538474853962 -0.2929075283328568 -0.368765613113752
Ni 1.1167068270472744 0.7442217922747428 6.28016456931966 -0.17146558427457564 0.08076092139915123 1.277529224559103
Ni 4.4432519551785195 5.274015247062624 1.4720295221556008 2.3722563567848884 1.850768501442335 -1.8366806558907012
Ni 2.5554962100168797 8.94191338032469 8.257328362695356 -1.3637694239052707 -2.192293019451947 0.7840404255326368
Ni 1.954241566328226 6.91843307151438 12.03161397161405 -0.8402365131082303 1.7685618487355927 -0.7221897107744272
Ni 8.24821416078304 3.264641350496496 12.97736253737067 -0.46802587886867136 -0.6973163445715151 1.1688587212338772
Ni 3.261066247982744 1.9105366309469394 1.3727192713976417 -1.7673416031752465 0.29773348896659046 -1.1056106119075086
Ni 4.365190931299452 0.6306896543852069 9.880587492579938 1.4051284464680316 -1.3412252200561674 -0.37167790166454057
Ni 5.642195378033067 5.647802838564972 5.777058037122221 -0.1817448547133967 0.7494526602554382 2.300187820953413
Ni 3.2913760964262027 7.4340515387108494 9.789281961016204 1.793139280964641 -0.09107721572349477 1.182752448496834
Ni 4.989873120142818 3.163162019453708 0.8434304251317942 1.093530540814523 -1.4518554182109253 0.23009599232327468
Ni 8.360834508961702 4.3867708782558426 3.4344688816897775 -0.41389644401411946 0.7574783587733922 -0.9241678618155633
Ni 1.0823599765404845 5.039093136146093 6.159857288836879 -0.005756957088435246 0.5360045609014897 -0.5683768065846082
Ni 1.2111560469454505 5.611294298166147 3.75904754277804 0.2010227291064022 0.5869679393232342 0.4057180219683851
P 1.915109436487784 3.3461666209974155 9.570867216202574 0.7565938992859099 0.012862972005597202 -1.0813190863499957
Ni 3.336651490276062 7.986917585585473 0.8861459716778796 0.20295722712495368 -0.9564370062619141 0.8242388521283934
P 8.329490005527186 0.6356929503062605 5.816754608212249 -0.2492082876726934 0.02477515006215088 -0.40649578067467407
Ni 3.424338500768383 0.05039693605560547 6.234450370897699 0.8891838895412106 0.44720431413762984 -1.385214224042608
P 6.396717530263451 3.6012737422306054 2.616681271952482 -0.7511727282703385 0.4493648121240584 -0.4581464149714303
P 2.953145532250545 2.2500235618974553 5.993348967806882 -0.13972942951355938 -0.40125278710817996 0.843979010869798
P 3.9211299423239594 1.6049069369806581 12.441656982562055 0.7987059979646116 -0.7307149746366189 1.2562091229250882
Ni 7.830130402475942 4.520333752012477 5.662023801897449 0.6084384504921844 -1.1981335589385946 2.312613191200959
Ni 7.287721761403815 4.291905948763044 11.008905550504561 0.34784043292531064 -1.1717591827101237 0.33635737198637555
Ni 1.3491439183870642 3.2935377863182382 0.5049181022308926 -0.006331084424350387 -0.721345360496261 -0.6476140922503815
Ni 2.655543652455969 4.464222194729464 2.3653035276826033 -1.047898344797705 -1.7471422454092362 0.7752038010776133
Ni 2.104894723419331 1.2679789295348167 4.205650826874422 0.8177195629526369 1.954780680059943 -0.5100564735771603
Ni 8.461445468851279 1.7517909937471878 11.006999752962994 -2.404587979038059 -0.7843957519895265 -1.1976599617362857
Ni 1.9304906914888076 8.54044876781149 3.3186771312036947 -0.15494958889742347 -2.6801163926625198 -0.5723393907767821
Ni 5.745513069283185 7.32503400701891 13.431443051375659 0.5428740343278134 -1.3759703368468368 -0.31234378268059754
Ni 4.284035180438196 2.9515381218180057 9.579791115500464 0.8645758611845433 2.1843261991963865 1.9591597829642453
Ni 8.818576962595763 5.584384030407599 7.814740833283026 -0.21814267661614042 -0.47947037326018715 0.08280391997110902
Ni 5.046871524561025 0.23592812813551756 0.42131151235956393 -0.020667298541364405 1.7890805375142351 -0.3585961287799179
Ni 3.9634399410655137 0.4461524701359916 2.7715608099222466 -0.19455563332481976 -1.70493681568578 -0.4063921652172743
Ni 8.012423678713295 8.58542854594962 1.632344694024826 -0.9269469672225972 -0.3731776261385186 -0.4975395720570722
Ni 0.25597179719000435 7.905115175354804 7.842079743823583 0.09743658228261928 0.5232264353002151 0.6695245191702276
Ni 7.018535941899418 7.292664086584325 7.623165223697306 0.5441549579227661 -0.038816972867197666 0.857875309235916
Ni 6.823050814526051 0.49433413595181 8.669886878590374 0.5111818454308551 0.7244275989660105 0.21232658415499564
Ni 4.493090916578232 7.63766609815683 4.701267195975866 -0.5587590809891861 -0.06584106686452532 -0.03273348567727911
Ni 7.291989713241938 0.9771577351280792 13.467786231735733 0.46172333368941126 1.25017011581986 0.8626457340413659
Ni 4.44412032633173 2.842576018072017 3.333645448007393 0.005184115304100749 0.73266875592888 -0.026914307892340745
Ni 2.1859950463346367 0.2964646831035094 13.146100909426043 0.17407191154917118 -0.0907951657067017 -1.1382829053295493
Ni 8.351005286546634 8.588273847175033 10.146904915881443 0.6192715365519464 -0.5808826523611028 -0.3406842814965036
Ni 5.269063683891123 2.1231120416547773 7.69026906646123 0.6878868237274992 -2.07402330247406 0.42410732310885024
Ni 2.913228173175817 4.119986936409263 4.956984948413602 -0.83206580437198 0.33265961141981415 -1.0807321034982742
Ni 4.839617196664351 5.222864490942103 3.7612110802682746 0.13083495523740693 -0.16572533935668876 -0.6155886883837205
Ni 5.067749384202053 0.9972226515618469 4.523578134448729 -0.8089934959335486 0.32551143041080716 1.937957437855017
P 0.31085470167113355 1.2465929803892497 12.694860153851874 0.24026624798805718 0.6167513412332539 1.3341107204985734
Ni 8.819454571739966 7.3177452321265335 3.558562814680016 0.5406595431749979 0.08267613614399309 -1.2209004203214653
P 3.4178811450652504 6.705183287464155 2.8229129542463838 -0.9517645404869093 0.6129409663482283 0.4251177666512356
Ni 1.0474496085832068 7.702193465233195 1.2074118891965526 -1.3938659861803349 -0.48986354356905304 -0.20740574981461055
P 7.249642762536417 6.109610008235339 4.491479810949296 -0.6872689876378422 0.46046709268480696 -2.1955814603952315
P 7.9935966530724025 6.577107780356534 0.36667249084061315 0.5579682096567745 0.49456326303756765 -1.1536966687814583
P 6.179883405708483 8.004756146190264 9.821325780368786 -0.5761981024012399 -1.3435006463539056 -0.2215139070812185
Ni 6.946701323948693 6.011096072300855 2.1796236039477264 -0.41333054420832044 -0.6446056444413608 0.160959028316297
Ni 8.151178303407212 2.4178039542869976 2.1187803476788134 1.8952128477986392 0.5689843582616201 -1.3978195715114443
Ni 2.9235100571494743 1.7970941015700221 8.233302195724388 -0.796799524970518 1.0320793754875772 -1.1683236746660137
Ni 4.008918570717189 8.415227799920277 12.003653344279757 0.0002681660597221188 -0.2040262918194164 -0.32348540111971386
Ni 3.161748606831992 4.207692422883567 7.493623647419317 0.5656378103868904 0.029940496313174244 0.17249273998750939
Ni 5.047961607498034 8.278514771235505 7.803451084492185 -2.780376303326547 0.5993490865964065 1.0047812018932567
Ni 2.747184523092697 5.174087898506426 10.558962732664714 -0.6876762503785898 -0.8490564253927053 -1.1035560433713252
Ni 0.26271922581027307 5.112544402520348 1.2854211803260673 -1.0399670057657704 1.0876689398274237 0.9035360444978245
Ni 5.862031849660307 2.488049637787167 11.953031925043055 0.18881873084104256 -0.2637872139281328 -0.4550119831075066
Ni 0.876804515187168 3.246876693819638 11.432591226548967 1.4675100940290466 0.5035307566435006 1.3439647304745177
Ni 0.477827693648009 1.0916349194960564 9.006268920768612 0.24204056627966056 -0.373920160731498 -0.31479635798614813
Ni 0.9138386972734159 0.8670196351288593 1.4021404251077072 -0.534397621425686 0.8752042874326669 0.48818769852852695
Ni 8.974283300759277 3.628285627890061 9.468177708339887 -1.208417971583738 0.24658987621323983 -1.286586449665365
Ni 4.97561890004277 5.9619314842435305 8.129503205143608 -1.1002999983278727 -0.500978422535292 0.6016509952567058
Ni 0.09653700586227905 5.210587200914259 12.374635357917954 -0.24963226258398943 1.335399871623642 0.8510158631119213
Ni 8.968638888263404 0.6117286778749362 3.421948632498854 0.37033527159371704 -0.5866740622318993 1.7516640445389895
Ni 6.259487174083149 9.215145439883411 11.60736015912366 0.09907874587173258 -0.19932940056437928 -0.2913913487986465
Ni 7.224829518732965 1.9206245171097729 4.425592611598966 0.03609854549477009 1.3245241052514027 0.6295353803717998
Ni 6.2379996070366746 1.2864918634819944 2.2397499921156907 -0.9983750412565967 -1.1432633892632762 0.19059819133896852
Ni 7.007431876727509 5.837874503217258 9.35364324842776 1.0207600938200163 0.6335866676230378 -0.11660955566664434
Ni 2.5106457637526343 1.5167118369837989 10.902267725292061 -1.1239387207927354 -0.15960200006777028 -0.5725347946170397
Ni 6.3336128137997925 0.0153018082784956 6.206665265392247 -0.017097321801918943 0.6486458759490055 0.8445209994161972
Ni 2.082030695715107 6.121961202191115 8.349093946210472 -0.7480472952674795 0.3130503218293189 -1.2377411460278875
Ni 6.480016495034759 4.14056918033856 7.870689801924586 0.19823925282399407 -0.06477097372879813 -0.18266530964513703
Ni 5.1332375023415455 5.457167656462198 10.673929530555247 0.32342909396048164 -0.3376706914811604 -0.2971652751679463
P 3.5120532252336782 6.423313706328283 6.560246599198655 -0.3545787800904087 0.303845001180967 -0.35927464290418126
Ni 2.3734985494912566 5.845227944046576 0.45054236345520254 0.09145336811599089 -1.3786936493152708 -0.40990403502527467
P 1.1635803933386815 2.86986504346122 2.7297552054888343 -0.1518598942285062 -0.5028941515007662 -0.48125574729538406
Ni 6.103947119757484 4.661231590616446 13.193869637044536 0.7400827890047641 1.802266954297522 -1.081405732526531
P 1.2804686933554676 8.1340233541358 10.120336453789584 -0.2837811405515564 0.10218181027708854 -0.7202482707773402
P 6.64624490493771 2.4696383217408964 9.671407967360615 -0.39374285188437996 0.8381608615261242 -0.3971626761992063
P 3.9124092788278837 5.975474379037224 12.25643711077856 0.10107597880741948 1.0911383864332629 1.8460060470566853
Ni 1.2612629100839197 7.431483377215183 5.647515537045133 1.480376922689386 0.18863515407532672 0.08386938512114588
