# total energy = -381171.0629736152 ev
CRYSTAL
PRIMVEC
9.24645741455986 0.00000000000000 0.00000000000000

0.00000000000000 9.24645741455986 0.00000000000000

0.00000000000000 0.00000000000000 13.53312507244322

PRIMCOORD
 96 1
Ni 6.973881516032726 8.003474536138537 0.21593066798317878 0.8281009061869609 0.46128701748294104 0.7422558853966831
Ni 1.8899019000041912 0.5592701203636811 2.868075371077146 -2.731147391097406 -0.0565778963950445 1.473480709790185
Ni 6.299990461714527 3.9764112215306984 8.605254319282949 -0.39922341538297695 -0.5512118647695474 -0.6369684396110772
Ni 1.5288647283557721 1.1059964967572182 5.3159334698630065 0.720951724602268 1.4097014105506949 0.7561565546381752
Ni 1.8401836991141245 4.590662626278332 11.627688199197475 2.8349955333333243 0.03606332138146047 0.8983025640130271
Ni 8.515977924781597 3.827201140116711 0.4866974509707357 0.11839775791531867 0.8010274470089366 0.9902655247755848
Ni 6.758799672829483 8.331677537922602 7.964190037663265 -0.10213501619955313 -1.5509177090224258 -0.9653178536913115
Ni 0.6221525025085718 8.31404454385577 4.669347203945099 -0.45196342608917 -0.8187112374419447 0.2606234714881705
Ni 0.23095431180058265 6.037492785488359 11.572039320596625 -1.4251311148422037 1.3952322704002422 -0.0923347422796797
Ni 5.388354497356269 3.6105751385447404 10.717463244222857 1.8455309071924797 0.9467640019485242 -0.8144082391912167
Ni 1.4745140523595266 4.847344280864208 0.6798531699837966 0.3162354044255199 -0.7893561813185954 0.12481677406778503
Ni 6.339740981637607 1.3536073767339893 1.3260390643007116 -0.05676610114645062 -0.6531432495987267 -0.6290173030848006
Ni 9.014574641648823 3.5567052783279784 11.486564144690382 -1.0548570355037252 -0.8329237814969009 0.22031448745647864
Ni 8.574027183696948 0.24725119278788835 6.795604271457495 1.6105477619802329 0.460369133654362 -0.9503676601393826
Ni 8.888212556217606 2.575415751145678 9.128228396169996 -1.0936030459236712 1.477789364467868 0.5593116110585464
Ni 0.33754747152918413 2.7234792718547425 6.556433557702121 -1.2209749823131426 0.43322445491877004 -1.2839850074867758
Ni 6.282505410964459 1.57085289094491 3.5988913151032884 -0.5758929124559953 0.6345176640777395 -0.08247456165614829
Ni 8.12575893390144 9.088953144152022 11.487281669776689 0.940787215539799 0.6710160161140895 -0.15271118648520796
Ni 5.91229575367666 3.3348087960962833 0.022761079284171187 0.13598873152420451 -0.07621392545841713 -0.5293569736779851
Ni 3.3399960586403283 5.2877253025847235 4.781482690177979 -0.8290033633965722 -0.21977352735134406 0.6272769233549261
Ni 6.8281018702762095 5.907117737589913 3.732043074128252 1.399158602037842 0.008254269588992237 -0.1759866120733808
Ni 1.88870910701278 7.0458004608947205 13.345974927109474 0.9179753598516062 0.10152823585348965 -1.0430191623285325
Ni 3.9860182906630732 4.982499747185597 0.8755877259372035 -0.823856271977994 0.48266933981345905 -1.0064207943792087
Ni 3.5530159418661715 7.749418875425225 1.919957509450567 -0.6229114472973788 -0.16347665253182814 -0.3400119380198273
P 2.8002063745115726 3.864566074056968 2.3644125202564763 -0.7889021245003123 0.7585934462144419 1.5387885298590598
Ni 5.51639019155838 1.0864217466578558 10.057885705801592 -0.5619485344607612 0.7666230013871377 -0.8289555408777722
P 1.0888535649271673 2.4959701900433062 13.289541948929772 -1.0167203765330037 0.4309199751553095 -0.24923322737335787
Ni 2.9585704486503435 3.4795528386354513 6.708397234099381 -0.7173408673225581 0.18949210275898334 -0.7627257232152606
P 8.265426671384137 7.09815390211465 1.8976827938202583 -3.0263408872509623 -1.1487529516229376 0.9122811376803063
P 2.993226170602356 7.366976155132487 11.266407845722126 -0.4258330475507054 -0.9813173144433616 0.035275792483158604
P 0.7435917740744601 9.136942257527407 8.642957673560304 0.11496327831247297 -2.766024405480249 0.4453389787941169
Ni 5.0317463787534775 7.145153644559175 4.675342606856968 -0.04893169270369638 1.1387449325676324 -0.9293455493617606
Ni 2.041839686321018 1.2082160821839782 11.795282087010873 -0.09324928367414909 0.5834810092158983 1.8175760738507665
Ni 1.253847348948434 8.49807678345313 10.962359364337004 -0.9780586982967477 -0.6190074842572824 -0.8163291103630134
Ni 4.240027719089896 2.305335979935345 11.922155501530657 -1.7054821466662886 -1.7533753708031419 0.914016375203858
Ni 4.840372452061695 6.933650180330163 13.488316740042684 -0.31992416613101676 0.6969728451891674 -0.6643656006771074
Ni 7.167493085390568 7.3331341214226775 5.870574813703428 0.26710599388872064 -0.3578903609621449 -0.205431142586743
Ni 2.367361215488733 8.485122496778965 6.90875501870167 -1.227842655967253 -0.36204937743584104 1.7583802802169006
Ni 9.238764245290362 7.283684067794246 7.2054146560601495 0.8553507430418495 -0.8439000780027467 -0.25224270362364304
Ni 3.0679652849401675 2.5756376661208242 0.6275700018393306 -0.3319607855805767 -0.01983863199248196 -0.43029211176332344
Ni 0.9000677216330286 4.814963187407445 7.277952188915363 1.2868990958097772 0.918150966197522 0.4264840508711429
Ni 3.048510738785676 8.761166232946355 4.733602684998707 -0.651608043901123 -1.6337794788146636 -1.2421778416430027
Ni 3.9860552764922637 0.9184718702384943 2.550520589517183 2.25081492694724 -0.447194543945617 -0.5964879629985276
Ni 7.2026666089512545 4.90129735919665 12.3428868768477 -0.34596507027946866 0.8806884504756897 0.41400854411195154
Ni 6.886752148915915 5.428197481852326 10.116755125479255 0.703546384641627 2.2642561400538104 0.12277711792993692
Ni 3.7997761477715484 1.0943459605620378 6.533089026962461 0.28541610505181814 0.9108171515402702 -0.11229935832706467
Ni 8.711947340750367 0.8255385018758767 1.8490307094566234 -0.1923123458165978 -0.40397764223851074 0.18699581869969087
Ni 0.35319802515137627 8.983423327012662 13.219832907361944 0.13830041037651666 0.08038682588918414 0.7003561598391035
Ni 6.486389794380114 8.251556985437494 10.184704566223319 -2.163352682268513 -1.9129647724654217 1.6287108060425046
Ni 4.852670240267719 8.183891410932471 6.690263082047011 -0.47527510423191693 -0.06709602231754896 -0.5799411143834399
Ni 6.210614205474359 0.7533791491241413 12.47716208043434 -1.4598327799894473 0.23795919712143537 0.2420410805002928
Ni 3.9559950438172398 2.7586620418727272 8.719243720204032 0.04731832546998947 -0.1613783752419027 0.4518330711588928
Ni 3.258275869042707 6.024917603563402 7.230639916214175 -0.8887614572918113 0.500856295135131 -1.3755993266606632
Ni 2.424800208222431 0.2667491972916793 0.7187863030817537 0.36140505898362274 -0.244054768496212 -1.5665235338804828
Ni 0.8715969549674892 2.7296466588723494 2.4742881723257835 -0.006127195943660415 0.035455769704448616 -1.4518914136551835
Ni 5.283878776348854 4.031464628281574 4.365217353735757 1.192563778160301 0.23992711948108358 -0.4100757847164486
P 4.216791371900619 4.4665566764277695 12.369235581563403 -0.1998323083427268 0.29248792429693493 -0.3005393338465018
Ni 0.8881980443998914 7.800718220513209 1.838719060278159 -0.09927312127072581 1.961067027289287 -1.05016400090343
P 7.240715780731546 2.054988148598436 10.934710607725236 1.1867798244886723 0.4569922467623291 0.2697040936332
Ni 5.325182701097958 5.474901337663321 6.206385800552092 0.30420546984417934 -0.12527108799638426 0.846396104951723
P 4.913132824537785 0.21394267966415995 4.5587817661613785 1.5474138096342254 -0.21426468171797292 -0.40684622203555737
P 5.63753727507366 1.0221033896946226 7.79935621735325 -0.5587773358216311 0.2261220952771912 0.5647386956113887
P 4.733964221479049 9.121158554920127 0.7429648642696719 0.9224164263420952 0.016347588120087974 -1.4830009905757944
Ni 7.215260283790807 3.4120814397336816 2.572511438908451 1.2617213109925691 0.886709459858789 -0.08745478847955906
Ni 5.833183065037008 8.071445243734386 2.518203296615775 0.20363342725637187 -0.007059992170574938 -0.6668094342319096
Ni 3.657084818752484 2.555147516748983 4.099061779002593 -1.7990872710179595 -0.3228814489871278 1.4386851993775545
Ni 2.948001747959002 0.7230295023356967 9.665209006571692 -0.41124769353736274 0.14047119277559034 0.3506527055631251
Ni 6.4922428018495975 5.56807788785287 1.1965526009485812 0.7654711471708817 -0.04345267186699614 0.2056088058151878
Ni 4.265714377463079 8.31412776197145 8.910087824892651 0.4406881102856668 -0.9579948376673371 0.6501653979173254
Ni 6.619566518839781 0.8936405091653542 5.7460564718573846 -0.5916943982646261 -0.6496411499827393 0.8608094521635756
Ni 1.3661640657443503 3.7444915795882294 4.456999538164802 0.6829212521921078 -0.141468266581537 0.6162219510923452
Ni 4.793594624592317 6.228811233436355 10.984282714589998 0.24759903420404453 0.6466908091051636 1.8202716184050585
Ni 7.507605524174151 8.760167615558197 3.94884383374315 0.8494662592366146 -0.7482398708942598 -0.3428900308985708
Ni 4.274082421317553 5.2700553226887 9.072038599817224 0.9337027978891921 -0.5904291583989574 -0.4568631773836326
Ni 9.08796377322116 4.852605515066635 9.40656340445577 0.701098951542399 0.7475857822500286 -0.24945357091428005
Ni 1.474772953163864 1.7090504417172623 8.150256497866131 2.016328518865753 0.23716601179617863 -1.5956986127825423
Ni 9.133900173076443 5.414078141558643 5.195502062142574 0.9218615822798897 1.5468887903686908 -1.479917209444148
Ni 7.765258056776292 4.780150275681371 6.753543986501435 -0.5052474822242911 -0.8679344932441311 0.3648559936467007
Ni 8.190317698754416 1.788394291789359 13.11568173700568 0.5374194389711454 -0.49790312604407794 -0.37991597330361665
Ni 0.04216846850644406 5.130313613547622 2.6990871175032463 -0.7861986095262201 0.5376994321054095 -0.5211235300245992
Ni 7.970372219012549 0.5694347508711111 9.057734330377587 -0.19349865281521514 0.4875366952080893 1.5817948582172563
Ni 4.565022200191638 5.843622315326181 2.864447985879234 0.1648478218477419 -0.5477262202137921 -0.37442461117174225
Ni 4.867936141266324 3.198996831306754 2.0988931017853996 0.547448026851741 -0.2778948569741085 0.9901194861160239
Ni 1.6366044487892961 2.823544432731124 10.197939945199336 1.2845879311780974 0.09645827752975002 -0.2919693327893036
Ni 2.0851963245902247 6.876793714406225 9.124966246035346 -0.44557500606432293 0.1790678221018658 0.8732628474355799
Ni 8.559796885915691 7.408538980685928 9.534005476099365 0.94481176331816 -0.24380614282051558 0.22301748820993847
Ni 7.356814298562247 2.425817318525185 7.367446799808944 1.4875454154133672 -0.986022947449147 -0.13356366702247965
Ni 4.118251876478369 9.080011819945085 11.75174606747009 0.28510654423119935 -0.3455884036663403 0.46047300622207793
P 7.556334354133357 7.05646162615904 11.919584061756149 -0.3047741978634557 -0.7499553109234697 -0.9917863322954854
Ni 2.055949780157403 6.688230710732962 3.1893379820135115 0.4908819575312385 -2.0172813696973257 2.577766175128367
P 1.8950059444325558 6.718041289060948 5.648306623888362 -1.2501436334572986 -0.1973277967533182 -0.43745366250876916
Ni 8.835738911052806 1.5548657662770793 4.2696200810256535 -1.1167851404670897 0.8111660781048353 -0.11939071795620727
P 6.527323860837306 6.043530722103798 7.888242411356636 -0.0879003606574099 1.4697292131675526 1.106656793783836
P 2.272390852583418 4.592253016933547 9.13453448004707 -0.7348112561931797 -0.006254465550144067 -0.7313556935444113
P 7.2433695139760035 3.428937731387502 4.898071270245461 1.0162064130110626 -0.4013422614981927 0.2885171125746451
Ni 5.346162912706579 3.085977383756208 6.629715430369805 -1.018436330782846 -0.3183082277941486 -1.0604671826016512
