# total energy = -340892.2591623001 ev
CRYSTAL
PRIMVEC
9.08772792211013 0.00000000000000 0.00000000000000

0.00000000000000 9.08772792211013 0.00000000000000

0.00000000000000 0.00000000000000 13.30080841562754

PRIMCOORD
 96 1
Ni 6.435483634267316 2.050055109201558 11.562937869125214 0.01268659432873299 -0.4036359426283759 0.18898919498063582
Ni 4.700409175751424 0.2903629044467048 6.002854166336654 -0.6236691513990098 -0.15415897467532805 -0.5681412935350345
Ni 2.6554159310170307 1.5994492066165011 4.87727362830709 0.764723984592212 -1.4323628567039524 0.08927101575269142
Ni 3.310941011106735 4.424133158397272 4.829643028584825 0.3554097606321363 -0.5738216317492634 0.4835280882693285
Ni 5.32341836524236 4.434047869588791 2.933613094059439 -1.0360185626409835 -0.009596385439183472 -1.4526331769172143
Ni 7.329134449784502 6.409101960033603 2.4600243274933074 0.1459234741394132 -0.4671640450890084 1.2846126137684457
Ni 5.410742343096906 4.351958423032426 12.040357113021527 -0.5245245852863483 0.18570101114766727 -0.5905312311944604
Ni 5.515523846340003 8.019629107018998 12.535732798570745 -0.1875115819938448 -0.010244303435827518 -0.025189611891750164
Ni 1.692289435335623 6.469562614073181 0.39840962834160065 0.7979238683829484 -0.7097008342787972 -1.1790055798598922
Ni 2.60277981074088 1.3838428610447344 0.2029744037237263 1.5775795345843282 0.44784760414858354 1.2460460663491575
Ni 0.7299581158496857 8.886271195074043 4.586610828838094 0.06201089448515773 0.6202734954538994 0.4118349334994004
Ni 8.8382152896838 2.4027861817841734 1.4691802615697973 -0.5952121816098975 0.389278131244807 0.0921082280911704
Ni 6.791113692065417 1.198007912231371 4.876223086956275 -0.11607296643688397 -1.6967550512059362 0.6898943410758313
Ni 0.8814987057048123 7.168881455145407 2.43980685912688 -0.3315866900706096 -0.19189891242826307 1.246841308556943
Ni 7.711436989110659 3.7488240945642697 3.822572824409749 -0.6603598219518241 0.4101511180390742 -0.5947822931613305
Ni 7.589043469103892 3.771934186736619 12.901265753514032 0.5611108690508143 0.5904918933160928 -0.20215607137989702
Ni 8.214324590581885 9.194781383460567 6.871942670755362 -0.48427550795831437 0.7023873313365193 0.13742186442630527
Ni 6.843404478679535 0.7091054152996762 0.4073056052301234 0.33869270498777154 0.6872630741005712 -0.17529087155793682
Ni 1.8844221796171103 6.620637003484562 9.111413293581888 -0.3409457626880064 0.38623523065342513 -0.10972516984198522
Ni 0.06340416912200877 4.949431096988834 1.5860811588046542 -0.10136522791306414 -0.8883562514335926 -0.515588459138983
Ni 6.323759106871771 2.0642955788964352 7.180999940364372 0.9920077042776722 0.18293424703580752 -0.2444923702542628
Ni 3.5983313197415736 4.200965823172577 0.3536834664715899 -1.1912792550209226 0.7138066289170545 0.25885300985130905
Ni 6.179827671627699 5.703994236258353 4.647648553602384 0.28848677355734187 0.1611307780074709 1.5215590533546506
Ni 5.478909390436582 2.9740771115217304 9.388774385653058 -0.04264431703308785 -0.26114077744422126 -0.8630702231732943
P 0.1504237080902891 5.499783901533667 12.339013477993785 0.6712497293914503 0.9666949365444965 0.7133230044124167
P 4.227156655119377 6.081025893374537 12.604697748424275 -0.3747416281915288 0.7618890862465783 0.10983187062317859
P 2.4764603922604773 8.376976745399313 1.3648222464490884 -1.3567693384383537 0.27149666675724854 -0.8493305049896985
P 6.617165491408338 8.071629086338772 5.871110283043952 -1.1231594194245496 -0.10003236803425353 -0.4420217414954259
P 4.530077890817742 1.1804413341074416 12.441589389663847 0.8295360959715907 -0.09342900378512296 1.804792291822537
P 3.850870191694949 6.053090217661677 8.211972686588885 0.0919400779444223 1.0631097624308208 0.32662651785185687
P 4.848430088572202 0.9169426622485006 3.838041046150432 -1.2687836171559892 1.2971313150607469 -0.4816231579371318
P 0.09707692748858693 5.404680828555437 3.7020277482676516 0.7804141416339592 1.1198028442474908 0.10832623261192957
Ni 1.4760105978956874 1.1403008397601078 2.607849854163198 0.7962647355129706 -0.4606815226884582 -0.146966827802263
Ni 1.9463277824004561 6.442308517956437 4.755929740878344 -0.8790779114554603 -0.3484425852856838 0.11958175092109083
Ni 5.681611162321862 5.687827168238452 9.159508276202308 1.2249673913019872 -0.1502095031092768 0.7401187844490221
Ni 8.75389026205217 2.372987521841926 10.35796512219432 -0.11237469164969033 0.7230356037144902 0.815612029691331
Ni 2.270250757387181 5.376190801437734 6.955670634660794 -0.5328909549731726 -0.6345963398344749 -0.010095693673105194
Ni 0.33740916326189885 0.1971609841552433 9.153217750916543 1.0196236662227278 -0.6383084985787394 0.6166127587728607
Ni 1.4915142617753685 0.8077245302210778 11.63427017210926 -1.1308210497348654 1.3661142699883635 -2.153331550587085
Ni 4.067848784186898 6.68032520064854 1.4928692420124496 -0.04612096272777864 0.2813491340712961 0.31068902068599397
Ni 5.882277283146737 8.316461564992048 7.905455436941404 0.05228569677759382 -1.1251180858128171 0.670270910417949
Ni 5.112773919130328 3.000177066189048 4.880266217120441 0.3244765613883896 -1.1938596141535893 0.3747845656143223
Ni 0.6118494595705091 7.415313373917571 6.679346452348515 0.579741339667808 -0.3128960556396418 0.6114471554115211
Ni 4.96866072932729 4.51344734867248 6.937847782608724 0.3435430911015374 -0.4655794742107079 0.49387600716255586
Ni 8.001699019777138 7.3991917445374105 9.160413413905951 0.2671813272113463 0.27233896015288583 0.9047046108846291
Ni 4.453068484184437 0.2948122560501584 10.529944012205018 1.167930810102969 0.40533749870051483 -0.8999226161149533
Ni 8.149201932104866 7.232722743981726 4.699627631147877 0.45088330565111384 -0.3772741648053954 -0.5065376617906244
Ni 7.218009712433541 6.3883455893998455 7.184391480434652 -1.1261786658668476 -0.7171102393689908 -1.6880004449417574
Ni 2.5847588462195388 4.921913456761592 2.5641169809579285 -0.7135433479533388 0.5052827063376008 -0.2506457914501683
Ni 2.625417341059922 5.1110836017319565 11.500703290590144 -0.89857201562433 0.013882671519363187 -0.5091203349161361
Ni 1.0300303488362799 3.2405656458756384 3.9173405602266906 0.3020161755023444 0.6469659171434212 -0.5779153422026628
Ni 3.5500482211526254 2.638103809275652 3.022209353826738 0.512797269547091 -0.26779427820499685 -1.4481663993951124
Ni 1.0961890082993972 3.394429967767128 8.094765532922171 -0.7531807598393028 -0.19713804934001533 0.18612961404465364
Ni 3.549075834262165 2.5144834459958734 7.102818216825746 0.7160185489667088 0.34898894470745706 -0.1392812862325472
Ni 4.362936398393888 6.6748543884237055 6.10755842389219 -0.131548950585296 1.3859472455538904 -0.20411370932690007
Ni 0.8953983856016308 7.488905794842341 11.240778822133242 0.2741204775333408 -1.3919438294569577 0.16911765286768937
P -0.06315243905784279 5.774605882416104 8.06501140284687 1.7562645194254787 -0.3185637954483804 -0.06512295775157817
P 8.410401408792906 1.8480076537285512 8.290473389378493 -0.21560139825152547 0.4911856048145863 -2.1603326644952667
P 1.7077658360314596 3.211793899191541 10.411221025516541 1.6005088896869921 -0.14815133502866742 -0.06957456576502857
P 4.056452773339817 6.1579535104563075 3.9014461240452354 0.4811264208063714 0.8647820636580783 -1.2893210749877086
P 6.948740333327473 4.090695332248749 10.581910366931382 0.6009190021866876 0.21537848360744197 -1.048804144441426
P 6.267478807688381 7.827232818627011 10.457148585021308 -0.008948210332223299 -0.14143201402696287 -0.8001134198350994
P 2.522507909774161 8.379375905577646 5.822814461635877 -0.4691715624373404 0.8130586671418577 -0.11859341886589252
P 6.97890250238765 3.9101312656453593 1.689003312909543 0.05207178099457484 0.4021598723034816 -0.5249416182191088
Ni 5.221117811729131 2.692984598355015 0.7242382998790695 0.30695115091011654 -0.8218958058175135 -0.28022916153423993
Ni 1.4772465288966468 1.1363840290144203 6.915595571954688 -0.6052058024874996 -0.5179075941904628 0.28602159984630093
Ni 6.8802461277816604 0.7404517153115073 9.539712459145218 -0.29891053999382716 -0.02356878845887554 -0.25014545477498207
Ni 2.785906616625671 1.4266642351367962 9.147976858208796 -0.5478568322543855 1.8226791994052867 -0.18798055121046334
Ni 6.4534137215091745 1.8960544713908454 2.616813989011332 0.4448625533783306 -0.1940025890348272 -0.1590193880914229
Ni 4.019084036016693 7.053285555643916 10.428684912314656 0.14584274150014884 -0.7807221597926813 -0.3799321712535328
Ni 8.429049426542674 7.333269366000947 0.44747881539807083 -0.7707365093348791 -0.8024526094912373 -0.7025361982095578
Ni 7.546667393681294 4.08750553973892 8.25019930543032 0.35195265532147124 -0.5280827349512518 0.0893859440640009
Ni 3.0033395955150324 8.138123991735974 12.355705816689094 0.38519264832152367 0.1724395181520708 0.7573693439993537
Ni 0.35430234074486433 4.942433546468696 10.053775239674382 -0.6380580731308302 0.05774671989216506 0.942298509978003
Ni 8.526306291044635 2.5631573168865955 5.757148357027553 1.2344483342092287 -0.5409354225442039 1.8578380066946067
Ni 3.893673390331114 2.786724512141012 11.12281466072844 -1.4862935452841368 -0.17198160467904577 0.47849232561763394
Ni 0.9779485799649713 3.4559084473369066 12.693971952696511 0.570673830148901 -0.33419533133805024 -0.4030427891290672
Ni 3.2884943230746058 8.345496855786644 7.853794429874099 -0.11545255924406568 -0.30526630700852586 0.7485052087405045
Ni 5.536670989275535 7.950480585060912 3.767720207287025 0.332893067586859 -0.1785731418536344 -0.12499700839939118
Ni 2.8308908699694113 8.153809410174619 3.507609440407184 1.9494795795620037 1.0177809565870342 -0.13292783321069362
Ni 3.366321625223251 4.1206030449263755 9.086766466613492 -0.5579808080622649 0.16658640180540343 0.20055967342705458
Ni 7.299172210739186 6.19004227784151 11.595977212853802 0.08129648218764708 -0.6648304561286679 -0.46931168755963043
Ni 0.5195499506643069 0.2375323067924621 0.426252609229389 -0.1256966055695771 -0.5146201816884427 0.3138869587980013
Ni 4.4515144827052895 0.11515060083202758 1.6382210891348314 1.0932312644065494 0.8937655953746221 0.03365368349870333
Ni 6.160389021546433 5.779667746883269 0.5310332036996909 -0.050245783529429586 -0.061081183582036735 -0.3042466074947599
Ni 8.134788795578974 8.734769682449093 11.576637619007172 -1.2783622619833597 1.0389437067075784 0.11570298469197492
Ni 0.007164764714384858 4.976976000399921 5.896421422925363 -0.23299928201299872 -0.29586481118896785 0.1297275811058411
Ni 8.359601009562297 8.857635764309169 2.5618950314745863 -1.2919207173940848 0.2721409852094668 -0.2475393846107027
P 8.585767295009907 1.5637435235079038 3.747037447249647 0.5085279527477758 0.0840143953394424 -0.5988109547047494
P 2.0128045123417615 3.075132646306052 1.4788241584684596 -0.8020360907791091 0.35885272487541425 0.3206178497639317
P 4.776109949560184 1.0200247603652781 8.222612598470672 -0.4111268516887823 0.7217495379132151 0.8513519062951015
P 8.484911690240446 1.7360286699504561 12.528110921140565 0.0710514074208712 -0.7512766008380546 0.07278561650315851
P 6.367334762383536 7.9752991700875295 1.3278978990226333 0.0827031327271866 -0.9907342368818872 1.0236965507405207
P 1.8879209548771794 3.3305886789308095 5.964880186332178 -1.7959839495022876 -0.2064456998941864 0.9208285130296849
P 6.776782345091058 3.9109764243445446 5.920070417365043 0.7098473871589903 0.8209164726233797 0.4181662750340669
P 2.3622094764953245 8.705025548874534 9.996062714566351 -0.6755771531222107 -2.555215543521361 0.8575078985941683
