# total energy = -340896.36926768016 ev
CRYSTAL
PRIMVEC
9.01800839684609 0.00000000000000 0.00000000000000
0.00000000000000 9.01800839684609 0.00000000000000
0.00000000000000 0.00000000000000 13.19876684304924
PRIMCOORD
 96 1
Ni 6.444133476671058 1.7690626924978294 11.339509695142985 0.6493763263571268 1.0293444930549176 1.0750093420818843
Ni 4.549143315966878 0.36966890253187934 6.043187415876496 -0.1614107711417349 0.100407234875169 -0.1418307921272783
Ni 2.5927856086324916 1.6533345917034947 4.5171456188392805 0.6405209328490259 -0.10248957132549445 1.9812288469491428
Ni 3.3070840117897946 4.391400314401032 4.634298564948468 -0.2014425902526402 -0.6543940912866923 0.6048396773973326
Ni 5.0723771768090895 4.476196646651412 2.820760859008926 0.35498964237558217 0.15089547343270784 -0.2693891334959425
Ni 7.33128004533331 6.05185913267879 2.7269573400466793 -0.13976645339908186 -0.4350201133666121 -0.7881865864905264
Ni 5.146234664965062 4.497425038241054 11.549132396783618 0.1284307166712885 -0.12364203703339349 -0.18097943730228186
Ni 5.6613883903508935 7.885265314553038 12.407896587854502 -0.3864290918317861 0.686167012822915 -0.17661601812726357
Ni 1.8260655231002598 6.592678109748614 0.2525430104476574 0.47851160889134364 0.4320363481479398 0.09192670820798361
Ni 2.453430326034903 1.6467153735952547 0.23991238799207068 1.7075747675292592 -0.7648612815010247 0.8671474785664615
Ni 0.5708597663915792 -0.08919351310811556 4.660062112923169 -0.13754990536373732 0.6431205752554021 -0.005032420217584882
Ni 8.392645516765432 2.4706637399379634 1.4936914957842342 1.1890130846945652 -0.11681318703701818 -0.028735163151163413
Ni 6.773534266643368 0.6949637933152506 4.919325343172271 -0.2213046192838898 0.11803471814894509 -0.8103420395416432
Ni 0.8650253942487474 7.288408433771222 2.4792696252795077 0.6183477391860963 -0.28335947963310554 -0.213033123303717
Ni 7.663774012160015 3.837694603439281 3.8359442080240096 -0.20871521265465345 -0.5481512235663527 -0.40096353800253526
Ni 7.514525974433355 3.989990727978728 12.678801165046284 0.563103731111127 -0.3848879725969114 -0.33717678256387734
Ni 8.082398976468737 8.693711724590482 6.732110045416938 -0.1149679062981633 0.17717986105053357 0.7469239802963136
Ni 6.891643121634672 0.6942396472470059 0.48987985526300704 0.09753891218843846 -0.26626704292719305 -0.34935069892224996
Ni 2.035382514258781 6.40150535133366 9.113497306570226 -0.16647250193535845 0.40967726372644925 0.38854125307878246
Ni 0.17438212872049638 4.938829491570774 1.2658109344951793 -0.38941619948456807 -0.24860433554010733 4.010920931605995e-05
Ni 6.355477436858925 1.963175321625707 6.966084976729902 1.0252775220743955 -0.21929761615619006 1.112470829362452
Ni 3.3213414829466434 4.009884454336735 0.17013825400423255 -0.45246299143340785 0.1499084269290902 0.9125850420739702
Ni 6.111197627436581 5.695034579399726 4.883794390384172 -1.0484899556351168 0.9488427388544238 -0.5085757752665758
Ni 5.445848973450294 2.9009580070151615 9.385101681207784 -0.8662573626520242 -0.18866549309262992 -0.1732090493282436
P 0.20545367639343962 5.599741285462709 12.259977804554483 0.09722395205118094 -0.46282402295275776 0.5431475997041744
P 3.903976964604898 5.920241301221352 12.737614811719741 0.053980825091829616 1.7954699859803467 0.15838998203754012
P 2.5270894180077956 8.676631616828894 1.2225623701852384 -0.3523406347885093 -0.6812505493579042 0.5343623973123764
P 6.327088746661732 7.709269864143763 5.872711888361027 -0.02528757092219516 0.18701433064245213 -0.9496976306555515
P 4.646637003934427 1.0768493917207438 12.435073257733238 0.19113015258303856 -0.5316588823382844 1.3914931150727843
P 4.201363825034632 6.2153466055456565 8.146014712573582 -1.152868516453208 -0.7644787013506253 -0.017554978164627835
P 4.641190126908028 1.105788180425569 3.7991994313157886 -0.07606917235043674 -0.08461886169266072 0.3009255135413269
P 0.3660598956014739 5.366833184534221 3.4968156924749163 -0.24882365063976503 1.406024990140372 0.5910161412506789
Ni 1.370376544588725 1.0298926223888571 2.5150512786989543 -0.8935989878897707 0.831794038767832 -0.26727414403546873
Ni 1.8562307609368567 6.5287945387966095 4.7387397265271725 -0.0720130000031921 -0.6550777476172783 -0.08314150581618585
Ni 5.981383397643513 5.460061354565533 9.33429963312746 -0.8086857348851428 1.2314056907281632 0.011928890227102036
Ni 8.773521098238879 2.206481186149291 10.069127532229459 -1.4841672429697537 0.7170745010350489 0.4040838287990718
Ni 2.5230493502796056 5.063070592220938 7.053645328530929 -0.21116161731261698 0.19618314162591374 -0.6241754016114669
Ni 0.5808598358196816 0.11149865489138586 9.232550347032827 -0.072462685946101 -0.8570343013918595 -0.3688049509921197
Ni 1.4134194983089274 1.1661186560987629 11.415956253488163 0.5293253491091012 -0.7744239854887953 -1.1594243152938548
Ni 4.1273349947205435 7.1429659955563825 1.6053921540620295 -0.3733272643425054 -1.571372634442668 -0.47952102399246455
Ni 5.679226010811519 7.855370616966097 7.988883131971957 -0.9510001515170591 0.9435719773737878 0.3213680976663949
Ni 5.12320267171105 2.81099435599636 5.189953067508572 -0.24409822013963764 0.40278182215819663 -1.5756728044799186
Ni 0.9647194762468282 7.295469534287233 6.98763801661913 -0.4551937601010096 -0.47108652007186613 0.28445399824886497
Ni 5.292380507829005 4.334902492264626 7.3312286426858755 -1.1471637527589469 0.3176273996770401 -0.5243332952111486
Ni 8.079188565506158 7.156817656338749 9.236536306711086 0.923099568452049 0.7112998033348008 -0.48257446610680754
Ni 4.501636448127359 0.48172937934171656 10.362550076200908 0.26824756369233155 -1.3004765773838955 -0.6148289273995605
Ni 8.33110662797711 6.932882473690504 4.797131330411168 -0.37959792784256563 0.2682236524329316 0.3362856382081757
Ni 7.073491259444831 6.1283949693063535 7.246769583946732 1.2222610481144176 -1.049862153392295 -1.3341536579213666
Ni 2.4786266412861595 5.354262080933559 2.3005714777761725 -0.0027647072293307223 -0.7706436925107567 0.8500334445939941
Ni 2.298807555348418 5.125303867650042 11.42557846836758 -0.2593633738288243 0.2724536313538791 -0.7823157295320463
Ni 1.1271608601483596 3.3693263052272213 3.776866333706721 -0.4376354395022721 -0.18685903601151044 -0.5332768775576816
Ni 3.6165459853624893 2.6158266198948255 2.4879539672934516 -0.23099459287814414 0.074844041694084 -0.5529805266341961
Ni 0.9347075445517027 3.369461575352049 8.208115423280356 0.5565016524135771 -0.001278095381475218 -1.063306451822659
Ni 3.570779593129087 2.6486792242113344 7.055677987606675 -0.4593620325460863 0.4605565670748197 -0.5781487983697075
Ni 3.9413025010490457 6.964382376758736 5.935775722356574 1.1794352111981428 -0.6896277176780058 0.019596948295321086
Ni 0.8104448006815665 7.356602612701073 11.153406861006577 0.3587784199940531 0.209238175037659 -0.09784898722968954
P 0.09577936458556455 5.592256338555572 8.141513824620144 0.5263492971999129 -0.1360121285629722 -1.52890829463087
P 8.401041282513077 1.4807659844565229 7.943373752975728 -0.13689581671950615 0.6605999629870881 0.057216301309991786
P 1.721240194367045 3.221629364931919 10.319495399069886 0.8051237285654973 0.026824576392011867 -0.028407090387783336
P 4.121689721511064 6.201251458538601 3.781935356184434 -0.8649928941173038 0.23492323850858898 -0.6011869111360936
P 7.01410767464543 3.914365710191672 10.505729896127793 0.32012316951570025 -0.33489055763286196 -0.0671106776055683
P 6.2274668087302265 7.665198857474868 10.171471105072499 -0.7561064181265301 0.8328541046012301 0.8117003533417504
P 2.3815117096681284 8.479993945370897 5.812248847965502 -0.04549592754927004 0.7541647210191269 -0.6608431893461457
P 6.815720509572995 4.00469909955167 1.585251334276004 -0.1931654378455125 0.6482337281122513 0.3285684720695761
Ni 5.310326344389493 2.8654180362187405 0.26980528197734777 0.5119218089206732 -0.5027231731405406 0.5731377183083614
Ni 1.4127431476847885 1.0956339030551627 6.93040883400782 0.3108232322710131 -0.06429891918838604 0.23593651026445175
Ni 6.7688449023160056 0.682835473923191 9.291932128230561 0.3952847424502031 -0.446550739714031 -0.9707495662298442
Ni 2.718415482564221 1.7037632942392946 9.134641830682474 -0.41198894257876145 -0.774121366646712 -0.010871909717497406
Ni 6.186588177007269 2.047331375285236 2.5598211810127918 0.7714926707746134 0.4275284329752573 0.7656668081214555
Ni 4.0586718793579575 6.696673781716219 10.673011245095662 0.7353666144760174 0.26657994618192155 -1.1066179701261005
Ni 8.060836918571187 7.180976900632992 0.2024245273981293 0.5599430739949582 -0.04222985520348856 0.30314926066552306
Ni 7.531678226261518 3.8042648465901734 8.308689662890648 0.5299501271772937 -0.186440203306537 -0.5590802117740307
Ni 3.1222689492417466 8.34493123473451 12.179070037492485 0.06392328101652216 0.43593439765076536 1.083411192992334
Ni 0.16464358153372774 4.759028441649677 10.083686204864257 -0.6488430795614761 0.3870356150675335 1.5409451711907463
Ni 8.70314456129514 2.3694636505501334 5.842473604657023 -1.0959777168034348 -0.35420982678676416 -0.6489585220934179
Ni 3.6156351665219817 2.6691861751352275 11.298289280904628 -0.05586852903284572 0.10079135768746511 -0.02659780509318645
Ni 1.0344647526080364 3.3137032298980342 12.475435157579353 -1.439297893260889 0.919238799945062 0.2507149541252069
Ni 3.0984704252803774 8.327174776348782 7.923101270268203 0.583242410842531 0.3721481564327397 0.5311575172218336
Ni 5.495168460962506 7.969980484728522 3.6580648956762984 0.2758521155124668 -0.41621095107990896 0.5124303731259755
Ni 2.9061704158251924 8.451650345215313 3.5618986585337264 1.055252471169931 -0.5593782026304238 -0.32477043847972453
Ni 3.468731810959003 4.353479589407642 9.254078136498753 0.13291266370204205 -0.220205215572124 0.38328951776153986
Ni 7.232830448483644 6.125509206643361 11.276300671213455 0.5192592231223508 -0.7217847620265246 1.273317757580917
Ni 0.6130270715037299 -0.016515580440640897 0.19506853800999413 -0.4494864253035872 -0.5313531781724076 0.5755357862268927
Ni 4.812487194981619 0.29606031140558947 1.6668065943355101 -0.6368488833140774 1.259245852868883 -0.7797855069110249
Ni 5.909410673226807 5.773680629974603 0.3806005322196291 0.2806454231360521 -0.7581969821069716 0.9108842573327798
Ni 7.941781172706089 8.783161349134938 11.434988760051432 -0.16479717111546457 0.01245699481643016 -0.59586087093749
Ni 8.956649793230739 4.788896085211652 5.913799737877052 0.532902010716766 0.6947123312897648 0.5099685418490443
Ni 8.08733182702079 8.633236960784139 2.5352326795224283 -0.6868722664200557 1.1014626511774062 0.4161153060423092
P 8.292680894517696 1.5545964185875303 3.610469651355225 0.7869506572008963 0.4173664048405909 -0.15615826449354397
P 1.7224756615071388 3.3129096451657114 1.51057230556191 -0.0894983012721491 -0.5875844898613106 0.25520230047259923
P 4.695586753105443 1.189186721386062 8.216047663400257 0.4860511118014983 -0.9099221505298264 -0.3767835983222221
P 8.483204356333477 1.6539478162693808 12.446806588360799 -0.32527308914775593 0.2597523817371269 0.07870763841454832
P 6.435782800965023 7.660266006922815 1.550208255738117 -1.2825865844773525 0.46405763824954277 -0.6431393443084795
P 1.6725068773957532 3.2880650322390075 6.016565353509557 1.1698506528335013 -0.539812107573038 -0.45115532836557787
P 6.863723367870217 4.045568713266306 5.912796935351662 0.6594936172967868 -1.453334316749297 0.8275897708784974
P 2.496031397347335 8.54630336056148 10.073047660446969 -0.7287223696866224 -0.41880390861806577 0.2569946164863316
