# total energy = -340876.6790952127 ev
CRYSTAL
PRIMVEC
9.18078914108532 0.00000000000000 0.00000000000000
0.00000000000000 9.18078914108532 0.00000000000000
0.00000000000000 0.00000000000000 13.43701291636396
PRIMCOORD
 96 1
Ni 7.546590239241082 6.981466769139592 1.918039431816087 -0.9833320308805451 0.4691543360461598 -0.7941224923589871
Ni 0.24149055714730877 3.774194836947646 9.997661693027073 -0.4775011653489583 -0.20523291053300782 0.8028403318479592
Ni 4.330449664824816 1.9458406972236304 6.24169439466345 1.5710335059356944 2.329256199074279 0.7701644388814929
Ni 4.133255496774944 1.0157349583562438 4.278466201054064 -0.4225777738382013 0.03226940155666701 -1.891903066699116
Ni 7.506093778732306 4.257673550008887 0.4914705899310865 -0.5577787193537878 0.14979401283841298 1.121160900937282
Ni 4.246849399716472 4.480179153475376 4.139755495423825 -1.516780915239717 -0.3680534175380758 0.10295005590168077
Ni 1.5490010904469766 2.3931103782634224 3.252644309766287 0.5516121855317596 0.6825715821621728 0.4689656170741214
Ni 2.1644995500772928 4.417235663734236 2.2135736217974373 0.9611727211746867 0.5178608001129275 0.3213470146204724
Ni 6.093675287013296 8.677112603115626 3.1981434736374514 0.5296608780716491 0.9650648571402413 0.9763370876199509
Ni 6.670862313929233 3.4697047872459805 8.866211151379364 0.32031291692900316 -0.5699053274139927 0.7589999376242412
Ni 0.6231809439091064 2.2191986912496535 11.934633748026384 -0.3733881994874279 -0.46996963285860344 0.5106614541510108
Ni 0.1596429046690081 5.63467255756493 1.4535218023841305 -1.0872843027944952 -1.399414683912706 0.5877302714105554
Ni 6.386744435134158 3.322389846116121 4.336957008104939 -0.6854892700296 -0.5610602183185369 2.4483720661025443
Ni 3.5649371120833253 4.921527225576569 13.113422274184488 1.1807626717603148 1.062406565716209 0.33568991360570577
Ni 8.732050444803342 1.07840302442582 4.034073596487389 0.2597215284991914 -0.762914442187299 0.16672729825864188
Ni 0.10382278915338677 1.6901832644900394 6.294998973978799 1.3464090782499523 0.8869727408225047 0.1009307114788068
Ni 2.497312334004661 2.862303783559609 0.18482856327561065 -0.5183989320045848 -1.124841949333295 0.1089857205727994
Ni 3.3366108883578103 5.229212189868362 6.332608994409597 -0.377765245509201 -0.8029694012266558 1.2240441081567692
Ni 7.8938076811911815 8.201960865724633 9.011035344439392 0.05918113834584646 -0.13194207225865665 -1.1795401122071234
Ni 2.5938575116764544 8.198811855079764 0.6693704117090837 2.5283709125246907 -0.24054958355643088 0.46151481722303095
Ni 7.1293692807687865 7.170728735448458 4.818325057763103 -0.0770428491176157 0.3260901857324126 1.3739664190429304
Ni 4.539184084713168 3.8417746251600913 10.159416179178063 0.12732077143656137 -0.6299621834965731 -0.9728833247433956
Ni 1.796056123838758 6.818452678730656 2.846456823576794 0.1901934997013821 0.9106042641985157 -0.4073380740703114
Ni 8.929510855735725 5.748606149701385 4.050023381307588 -0.6530401483619592 0.3376776334596959 -0.8856704770713134
P 2.0462693486644588 5.137037067785364 10.464759124182667 0.18677984603414283 -0.445241276873988 0.8833050621629304
P 5.381291960516258 5.800633681259588 5.423850426246133 0.8962989033194371 -0.09900521232131981 0.620798257609118
P 8.741726996464246 7.969888880065864 3.604478770530683 0.7560310848039045 0.5679433185916155 -1.281102543732658
P 1.1919602042111395 0.7082877765008995 9.726139856811468 0.5053420988206264 0.22438402954016196 0.6747196902179218
P 1.3869693444666145 0.8626003150462632 0.38577032941654704 -0.8397935120335408 0.5554693544943208 0.21194914621091887
P 4.4132144781294205 8.245725687135952 11.445741123661126 -1.60851504782092 0.8539075828374196 0.7516100729180732
P 1.7646211021243967 5.345560329525517 4.402556500118848 1.9475257982697427 -1.4330943355533383 1.169154398097425
P 6.5278348012867005 0.6514577741895481 9.00439763395473 -0.4776623735171709 0.912978420857647 0.1447212263011959
Ni 2.5411506017283974 2.524560915911268 10.51651857670055 0.14934741221929765 -0.041818992918315076 0.17551352909170417
Ni 8.107885320307851 0.6805801551416873 12.953279934591047 1.4726067918256638 -0.7204642434428883 0.6482041604258966
Ni 1.8358640251686267 4.5264778726650725 8.43864527980317 0.7758368066759219 0.27921100468237076 -0.9265996111855075
Ni 6.384871554167532 5.419282065613812 3.365192520834782 0.7917439648244816 -0.24020634128439922 -0.8417609201725568
Ni 8.706004546262559 1.719965744175024 8.540860512793536 -0.46128110394567 -0.5855630885559077 0.8239172071229166
Ni 5.632138659786553 6.93984107157741 12.788192822014148 0.6617621016159893 1.0859684121965492 -0.29724266537310096
Ni 4.951429055519231 8.26932949578888 1.2744780542902427 0.8809396472545473 -1.7224529701926723 -1.7327026729451385
Ni 7.970669247135292 6.674901861112154 10.796652911125921 -1.041355658583181 -1.514954403553939 1.4167670591482244
Ni 0.478633092599547 4.640080956395653 12.619921811793983 1.1164377844299997 0.19615023150544927 -0.530506513901396
Ni 0.6455003601736459 5.262308934401152 6.445775072581297 -0.29163148983391063 0.4109471315778084 -0.2736368530287029
Ni 0.5724212793189978 7.737247685485865 0.12236614688080114 -0.31718774103646014 1.0398489921306673 0.5022377488636899
Ni 4.425222950209556 1.197330965806613 8.537071601151737 0.5197757577474532 -0.16128581552809643 0.19191922414323723
Ni 6.532021241094454 2.2505878090187545 12.599228313270569 -1.708082046182981 0.4188615013288786 1.2429635707690916
Ni 1.9335017167376196 7.1932767533603945 7.2865967198381885 2.4508099861200763 -2.38168022120195 0.22120614603281258
Ni 7.074073388308039 2.168685989885047 2.59280631132999 -0.8119248106477307 -1.1819284099336418 -0.8827692442641183
Ni 7.446482915417077 5.0110582804125645 6.223554073575422 0.647483223099472 0.3773962922055565 -0.703836147967904
Ni 1.577030039423012 0.12962815102100547 2.663229389911868 -0.6750796446605019 -0.5411529378716488 0.48668257473791016
Ni 5.033698106215023 3.0948807126162423 0.9941738752674069 0.6227970332067015 0.06662139667397558 0.2786610457161717
Ni 2.897007166176515 8.100173457504093 9.45977762404314 1.1473493864071918 1.2182763524350568 0.12359627139712262
Ni 7.847922097508829 9.143267167235571 6.317613093571911 -0.4074476030649822 -2.232933932901761 0.26558390081723937
Ni 5.548694468092093 7.650773833404217 9.76092862076656 0.08504617903806642 0.26670721578840517 -1.8469105611488255
Ni 6.256909716359481 6.849511288093882 7.275229066833889 0.6199449084698871 0.6083407485720556 -0.12521118129272626
Ni 6.907543055692152 1.974411312753739 6.81585726966563 -1.0217988194971759 0.7695651147345973 0.24790036749454727
Ni 4.216038671657652 0.6883516930742828 13.098763308305012 0.790343227822213 0.1597261843504604 -2.52956904659785
P 4.069623447854897 7.816174928966696 7.458374791476251 -0.006644759010027266 0.06458791118371457 0.3676888351098055
P 5.665703624560999 5.571830056503364 0.9339332098232035 -0.03936513206118382 -0.5821741174790167 1.0955308590740036
P 3.8419949640973416 2.9265601261351972 2.792385648375596 -0.843634740156502 -0.5847935573797348 -0.08637183982802545
P 8.536104864064553 3.609564927665542 7.597891570385264 0.5476472873467407 0.1505576304773149 -0.7588446429932996
P -0.5777094138130026 7.103341743806107 6.797274434545292 -0.6574822432937129 -0.7134366471721454 0.9710226173855728
P 6.592596087260154 0.9238719831010165 4.856875190992836 -0.36670127438555555 1.741183199612324 -0.8114018482647251
P 7.982943962097938 3.620407439536062 11.73172178455487 0.08965411012372303 0.6239997952655512 0.5057815003508903
P 1.8634522962701614 1.1425124743765749 5.000315839142713 -1.1278144016980578 1.2407992161279213 -1.778123267171783
Ni 0.6498777603936831 8.878548295707565 7.741412091399895 -0.6230006645770755 1.4203498914034764 2.841076706530397
Ni 8.086613432074154 5.4435285295003855 8.755436668755735 0.4531505044187357 1.0818086243919045 -1.3198123015980303
Ni 2.0694783833881463 1.8645907141126208 8.132039976303902 -1.9555792647018384 0.44857522634322744 0.4737352705486228
Ni 6.076626561743561 4.815608462282589 12.088930679230359 -0.024407739420403127 -1.7006975807934517 -0.8232173528424146
Ni 1.0245301542681473 6.770868649073666 9.514681496811363 -1.7047797212826252 -0.4502721544296761 -0.707637009771233
Ni 0.9470810178247038 8.33490787198797 5.630376866367457 -0.6899570759929665 -0.15682983663927183 -4.097245206025537
Ni 2.036344915699148 6.984432164003418 11.66047886151064 -0.025443122663452958 -0.4380833256729681 1.2813313719140127
Ni 2.1489013894777895 0.24141252044036599 11.807627630358654 0.8225293256364544 0.2736042000185546 -0.37366305041536935
Ni 4.888329492364207 1.3362271233757048 10.895818285993181 0.3283013344511184 -0.05651978946359943 -0.5840407383741103
Ni 5.542782039942546 3.972206095223155 6.915708449475082 -2.1825295123072803 0.2374902279048168 -0.4700015145378034
Ni 2.7797501284032027 0.4280579618693855 6.615861124797059 1.1593338124625774 -3.240791459727496 1.0792454916504188
Ni 9.09669302437431 2.595436607393414 1.3558887012096639 1.4858847398814925 -0.28584933593449485 -0.8363878287861014
Ni 5.36405043867643 8.641518683960667 5.789659884105623 -1.1973971949932025 -0.308985664841642 0.285893816019185
Ni 1.9360356145159967 3.314283209383124 5.9192724277852395 0.3910311093801717 -0.6445776194169028 -0.71626486064956
Ni -0.38433169977208426 3.4281066320509543 4.7924453315041635 0.5002191757717643 0.07916452344630882 0.1762745756274448
Ni 3.4901871276211964 6.845655356692004 4.767801339451634 -0.41215914960803857 1.8718595177846795 -0.41255304261234754
Ni 6.69358476683316 8.744866826320061 11.478393518003795 -0.0017648052099066378 0.4798305848130833 -0.012748043694287723
Ni 8.267282179830262 0.20415045191464237 1.8157571790656413 0.15540904503234526 -0.5725823600255235 0.0062164132233570365
Ni 4.111001264112674 5.98233067738953 11.01683210264661 -0.034075344417154214 0.7774211204439063 -0.3705628142234908
Ni 3.6383283397657444 1.014770975505774 1.700212358450544 -0.6970839168457349 1.7646601996883418 2.2051385079560473
Ni 4.462212349300433 5.865954995365218 8.440607214423602 -0.7301824991719167 -0.7590199922288993 0.5919975313273418
Ni 4.39192422831762 6.387735960351784 2.5745044083546453 -0.3640155000232763 -0.4914481144473536 -0.5302398905035707
Ni 0.08826777826242821 8.547911358785543 10.961350758247011 0.18347289314809695 0.7385496401896893 0.9483835398298183
Ni 7.579218763532215 1.8327792800471239 10.603509307205831 0.22918736446607627 -1.2468947875026977 -0.3003357024761279
P 1.90624395404196 6.013049597557828 0.435627522442835 0.9753731810447849 0.46355935845688556 0.1605427667144848
P 3.549660279100645 3.2686363262161255 7.926802518965493 2.1218725607468554 1.464867257089561 -0.2719784914896735
P 7.967529417279476 7.385999877141899 12.942531066768856 -4.109354587694561 0.45309522570076805 -1.3278644824785455
P 8.223599985520412 4.007708206487592 2.7908542927617073 -0.16927834681526976 0.5812402928108377 -0.4516091280735448
P 3.7563841061865886 8.462373947187206 2.995580380149916 -1.3149513739613032 -1.511498583794855 1.083540519481347
P 6.020192251440355 0.8819938138399013 1.103099346975946 1.6223133871565931 1.0483328612319625 -0.7853496312623636
P 4.3449002267928085 3.0600579797416594 12.311125053947983 -0.19928749158285033 -1.202584909841729 -1.5051718702458787
P 6.232066501184522 5.488808181105301 9.93625414929435 -0.8463050878998134 -0.17192581174044586 -0.36146856523170645
