# total energy = -340875.4957137618 ev
CRYSTAL
PRIMVEC
9.16741802557466 0.00000000000000 0.00000000000000
0.00000000000000 9.16741802557466 0.00000000000000
0.00000000000000 0.00000000000000 13.41744293724668
PRIMCOORD
 96 1
Ni 5.497911306703212 1.0145214585193791 1.0760449161330041 1.5418391437599253 -0.9270724370568679 0.776108829390386
Ni 8.734587338268712 7.997471942449678 3.5121633537198047 -1.2029538631453736 0.1017658057855925 -1.9977111608748823
Ni 0.7103098661648432 3.1888312780548222 4.114230767666479 0.7147522806597755 -1.1649817547769743 -0.10552630126928923
Ni 0.8446143704534288 2.2488225914332753 1.378132417782726 -0.015761633709630917 -0.25335444863058304 0.031115747568198023
Ni 3.8871776639875453 1.1495300204951884 6.5955986627841 0.09569877365590615 0.14390181572369412 -0.8684253168376205
Ni 4.043298789162261 6.10374927959201 9.455701006313673 -0.5155720040787508 -0.49187131802770123 -0.17177180266108483
Ni 7.865048592294143 7.689125844666263 5.647375053069831 0.9394479279030853 -0.5610185664473241 1.9154379165962623
Ni 6.555070425421511 8.457364623924414 9.66930642481828 0.24396580832683148 -0.3048279339195267 0.16423847039851716
Ni 4.939047182633865 2.7519854849352963 13.109499131596854 1.4337666790300145 0.7177895248242026 -1.4344624195454587
Ni 2.6914713600217146 0.2909747577896639 8.902687528285812 -1.6639500888607732 -0.029841508841464737 0.35242959495788984
Ni 3.872207270716241 8.22011185119854 7.444144938732975 0.34249176701888756 -0.8156693652918274 -0.6780096738231032
Ni 6.031335846370925 6.345109055493355 5.08228533557088 -0.24326261161221974 0.9938946368877399 0.7205215790433849
Ni 8.11189965145912 0.30391548475951874 11.391757887841 0.9937989918501402 -0.7366038293172281 -0.4151213175601561
Ni 8.636312619427082 5.204315584163845 11.483787761675641 -1.4529046854110461 1.9248517537109946 -1.122436425215596
Ni 3.599284075321265 6.243259043708793 4.608086898615513 -0.11379368348440402 -0.7112321833216589 0.26884405962574986
Ni 1.419647986042633 7.9286246347537235 6.934590521539127 -0.4425416185546378 0.08468493904390577 1.2961998043854128
Ni 8.520372286480246 4.9749651255836325 4.39909635823263 -0.6897074218760058 0.9484025659932118 -0.13908099729628304
Ni 4.813728581275182 7.852480062487065 3.0071578092395033 0.023688087645559207 -1.3736085214828795 -1.840096623550786
Ni 1.1340370844091479 6.9082726985120235 4.815573982478805 0.037855894505509 -1.8219623758439203 -0.7357103709686814
Ni 6.653500990365781 9.043135119243779 4.087677342001855 1.5732847638637164 0.21273950332269814 -0.874616533249997
Ni 1.8263788116813053 5.7877483879436 10.565779961038054 -0.3657188558676282 2.4179214629221715 1.5104212915702762
Ni 5.597735319153446 6.729893082913104 7.711474175784932 -1.8735353628252056 0.5379781396880929 -0.26503805561609833
Ni 8.072507257162247 3.804670903766028 2.0996549526616737 0.4798557816240639 0.15857767256831398 -0.1294416744343061
Ni 6.297493487427737 1.8042394976885316 10.821435408260447 -1.7699533297664807 0.2651807518415497 0.7401640358646607
P 9.1360102289998 0.9136367758294093 13.20028131986859 0.3298054298004707 -0.38807125542089943 -0.1674567202254987
P 2.963945351944374 8.958510685509909 2.073786333106887 -0.6880148646649312 0.47845761572495665 0.0888886927126082
P 7.715280487656484 1.2678630494884489 9.352991090739247 0.2815640782955796 -0.01457121294595555 -0.6966892525104775
P 4.891431614568247 8.539293836824381 5.035163891324811 -1.0982102056783796 -0.8553985655606494 2.562922168136999
P 2.961470149137728 6.533600332928312 12.610007788924692 0.053586417866888364 0.49198393234616555 -0.5408104669305654
P 7.210815820826524 2.1684060024707033 3.3229368493770957 -0.8948562573356394 1.1282774573774053 1.036896851480879
P 2.667196037680984 2.3622235496488497 7.930312356371144 0.3866190963554051 -0.5067407789403661 -0.500230488625674
P 0.35044013010665204 9.077072899948229 5.12400075353888 0.33198881060503466 -1.095839648563674 2.3357767738016157
Ni 2.396702208003641 4.031610331464212 9.24705974454906 1.2038519494796107 -0.28237500423264916 -0.21245925307811794
Ni 2.3329519846058155 6.860189592138483 2.569587790113588 -0.03256764952337617 0.4938603234332721 -0.21916006213706127
Ni 8.644407449346595 2.571387354228198 10.84400375740637 -0.4640679226621879 1.1368155767554033 0.09144102682081671
Ni 7.005199806936701 3.8609771839083127 9.552293503988563 -2.2161754824964994 -2.085825951535943 -0.5856044833168044
Ni 7.104757964270665 6.134533468572438 2.911987178065764 -1.576607400479046 0.648534804292438 -0.5783100065379202
Ni 4.843596028475371 3.210521388575279 7.907435981987057 -0.7405918674306987 0.6275216923758806 -1.2894771409495986
Ni 3.788499578762611 4.769165763337761 11.630735968597286 -0.48068856193800436 -0.18126354420160393 -1.040820354905001
Ni 1.3689705004310166 1.455419250307562 6.295370313464703 0.0560814163746002 0.07866392966080646 -0.2837366604668662
Ni 3.9824454697899903 8.12654918510734 0.31569653337737114 0.25734402940595036 0.7817518866087763 -0.6697867716926788
Ni 2.6187462345953487 2.9875422853677276 12.666401159536097 -0.4582050361235077 -0.8577786357570518 -0.5109915837969199
Ni 7.460646290777278 2.528951377220931 12.95898204892474 0.0462474610033139 -0.8791840980160214 0.4208687615668945
Ni 7.020701910440543 2.2076517180827384 7.453040084226634 0.1366613321111969 1.1163251701115355 0.6522338504105799
Ni 9.165428472727672 5.711108775115612 6.553696229492933 -0.9789408437913851 1.7830798398461098 0.9091762735027376
Ni 5.301673561225234 1.079500115902725 8.559161464685722 -0.546470236319504 -1.2350772260424794 1.3561224488829742
Ni 7.273575963101692 6.072204194933983 9.642606320468817 -0.13578047216814035 0.9957355467512207 1.6662010896784787
Ni 5.651135527852372 3.6533993426087776 2.108698610323732 -0.6916151804216799 -1.275959308968822 -2.2446656195163923
Ni 5.835006426714924 1.9109482409083602 5.013064913970368 -0.3190098818468635 1.2809073970027167 1.2665992079101607
Ni 8.44718879016376 0.15846248368144578 7.605475907444788 0.7395161178680167 -1.0551707100894019 0.6930709390315999
Ni 0.5419273196794304 7.583388847733489 12.181212822119225 -0.7488016569350007 -0.17430408216463528 1.121806762051397
Ni 2.638722037986758 8.634460801031 4.922698926466861 1.4033775252151959 0.8349780929227685 -0.03518786075504263
Ni 2.6422514938406785 8.320742596415384 11.348566515606818 1.156176240670202 0.33424263963621786 -0.7253459970152217
Ni 5.080023733599031 7.081362714038964 11.493005600275945 -0.3698709303627888 0.13768720227255 0.33379783878931546
Ni 3.165206842378061 5.944630408795914 7.198874342397129 -1.2141692722452186 -0.7216348667122217 -0.3543419814892543
Ni 1.1212943736638248 0.8265600578334004 3.4296455925969247 0.5920718362087029 0.29100285511097623 -1.675445233984566
P 4.690582657935667 4.065914808880759 9.778913905547224 1.1949117095671873 -0.3956333840388735 1.7173166774073714
P 6.9110687609417525 8.377718098057242 1.9620061743587758 -0.5929840636103272 -1.0444618083123303 -0.8751808903938991
P 3.9636889329662988 0.9436206492356888 12.218365616246974 -0.2948499967712083 0.17523842105344659 0.17785760384384852
P 6.641473338209044 4.379523004482746 0.2818614277523072 0.3782722670526066 0.5153197788586287 0.42547077911528014
P 0.060008083450889635 6.16985552936505 2.498837326481857 2.0680871394952836 -0.6943940287183976 0.11796298437074522
P 4.2926708882228946 8.189410168978334 9.717220850704255 0.5514880012490696 1.1610682786551811 -0.8042582952414083
P 1.8590239864756188 4.793211900233432 5.094119555211986 -0.5313449506422913 0.8312507646698523 -0.06751382658125792
P 2.169716943216445 3.8222906807822237 1.14075496817474 -0.11313290997195356 1.0382762483269086 1.0695436909816225
Ni 0.7043519613350695 1.9177412974999317 8.700849407272353 -0.7764387019259789 -0.03173075544437761 0.7408988571481562
Ni 3.541547678001808 1.9628908301767065 1.3992110615357634 -1.9879767071959378 0.3887592826268595 1.1321657366882178
Ni 8.165703226541352 6.307861836962241 0.6573524437457724 -1.2325449465389289 -0.4695633985591203 -1.491826045066592
Ni 1.448497849866757 1.4409163953441797 11.211601626671978 -0.0839622019452683 -1.037598505533594 -0.06592128528315742
Ni 3.5674364658757596 2.0046667531022013 10.129994838158265 1.1831748807462332 1.0966780853045694 1.2401212162242898
Ni 3.3604820089867875 3.8372977437247373 3.158922577474522 -0.6167600829840023 0.21642800791787886 -0.07465943648710367
Ni 1.1666272546966474 4.010781958217181 7.169302086050178 1.2614503167193696 -2.1540458030452903 -0.7856193399839824
Ni 0.41386857713961367 7.931173176902788 9.897161677554921 0.06345611157211652 0.26735410534378473 -1.4988860372371668
Ni 6.107416246712967 4.76943161845403 11.581761789213353 0.8360857241646504 -0.15678509944426547 0.6211258161518658
Ni 9.133269171076885 4.460086272130155 9.22117737386757 0.5847686176790704 -0.28484094927463843 -0.19451578122581986
Ni 6.516374754877619 8.81529728460096 12.89145209916699 -0.44588816642936757 -0.9559292133875602 0.5349511799363109
Ni 0.2083974084510684 4.1202409267777265 13.148718261697264 0.43131643926277974 -2.40105142663971 1.9761876849808095
Ni 3.4508544136827557 3.382804671335609 5.6737267955428035 0.021550215366949982 0.4066701014690093 0.6192100871863917
Ni 1.3773128506311925 5.902331943055682 0.4507399315408294 0.5128180954826974 0.4455258979939423 1.1059381704502567
Ni 8.070536262334732 1.4421814990009096 5.588995103020647 0.8530560334704018 0.05714482464210804 -1.5720791735913893
Ni 8.003788293315525 1.0547755900896774 1.7641925497605675 0.15823777273039202 -0.5677399443315577 -0.49525283290542454
Ni 0.43182571513093676 8.274538810691336 1.3111470126424367 0.45489062703829397 0.26350747790418494 -0.31716357266674405
Ni 5.810217728977259 4.22002826955675 4.182605953345611 0.13800807594707845 0.19396633648025305 2.071233141323433
Ni 3.9374059461268445 4.922985866644075 0.5215591508060785 -1.3588660730663824 -0.9772482865803105 1.1805006763481798
Ni 5.483875990047752 6.472957864165497 0.6626099578554435 2.941958052828508 0.6964686518592392 0.35949575777605186
Ni 2.125374143306281 0.4126703956328412 0.04124604617651664 -0.46905457724350186 0.6424857698848805 -0.20817116722572537
Ni 6.999085139262506 5.043354062389468 7.375970519503715 0.4999273555629583 -2.0722214733786313 -0.7453342672116906
Ni 4.581719571532276 0.8986553816567423 3.4070909945777026 -1.6162478976888035 1.6249996757395049 -0.7585499945710161
Ni 6.236658502891071 -0.03431547831790921 6.704159224400012 -0.8337159383808932 -0.3971503349040322 -0.4485608281655242
P 1.2053870971651555 3.843320737220908 11.169001552886048 0.40242752414257144 -1.210431145359025 0.1468022771999407
P 4.88365764427182 4.878129691336978 6.37541837223162 1.5899254577441908 1.204856479484725 -0.3200041274393327
P 2.8768640502394636 1.6990708806595043 4.481640704867137 -0.5078841485161899 0.5573575726559692 -0.4169989941988431
P 7.262712573005858 7.004548920272732 11.795354373333035 0.9303269394384237 0.5894464827707139 -0.3042445506122309
P 1.0167124713741507 6.183139117760714 8.61260292676476 1.0594770507742401 1.1104093188477329 -1.8134147433842251
P 4.765837990675493 5.736841716886923 2.666877928283241 -0.5739692130707211 -1.5201549739182723 0.4375770754605109
P 7.588174239826337 7.163924478767296 7.934887814596316 1.726292912764053 1.7569800574352643 -1.731000088431735
P 8.128877709229148 3.579949991176023 6.067581982878018 0.8026744956940564 0.7845117087421005 0.11148123330114348
