# total energy = -381170.9321714862 ev
CRYSTAL
PRIMVEC
9.23998194660241 0.00000000000000 0.00000000000000
0.00000000000000 9.23998194660241 0.00000000000000
0.00000000000000 0.00000000000000 13.52364757053781
PRIMCOORD
 96 1
Ni 2.8775613184443536 1.072281402850864 0.5552988795988687 -1.6747942306641286 -1.0812866904501635 1.1939444605579115
Ni 3.2286344252735844 8.996314197369053 2.8163538312945127 -1.3919019204754288 1.34497337424469 -0.4472300251692427
Ni 4.496165882616052 6.659476611301239 7.325840995608569 -0.3125553844707714 -0.21454981705855955 0.03724834282849714
Ni 4.594423848612157 0.11935931233288473 6.986992384642876 -1.2705419946079923 -0.7500309013564115 1.746705929202766
Ni 6.054359446065299 0.6294155452603849 10.52642838025919 0.6297271846676316 -1.3837237555400104 -1.2149927965877783
Ni 5.405777406647896 3.299902404559644 4.662601977998923 1.4640383334303624 -0.15756722902592865 1.0807102491214031
Ni 5.573335235815979 6.774800823601162 0.533138631352822 0.7263443563727491 -1.0559674949590845 -0.44089019899414394
Ni 6.681116648574407 4.666634306037357 2.970861110230048 -0.5384401669261759 -0.5334224019966104 -0.39099459971528144
Ni 9.122994347247424 0.861962786111146 13.085941210669375 0.39598253984817605 -0.20672723569034718 0.7638644648053942
Ni 8.364382605076438 8.649935001272004 2.3989330354644323 1.9558294330394317 -0.7288429544248867 -0.04052649935913666
Ni 6.56043324685585 8.781124262247433 1.257220561700653 -3.0753952215754516 1.0009461444178824 0.3271479375729656
Ni 3.828115201638202 2.490212043240032 12.708455615989864 1.1878257492546833 0.8837094966902006 -1.9097766045454272
Ni 4.099299426202779 8.844704576712282 10.821095094459135 -1.365573824103861 -0.7139035595062351 -0.5023125679656834
Ni 6.6760069386631935 0.5343758649099857 8.097202988605025 -0.05712014205175969 1.2176803707222708 -1.4871558932844324
Ni 7.728560980464435 3.061390755485215 12.990314791477452 -0.4624594405244874 0.4308418136192064 0.6700222847422526
Ni 9.184338586127259 4.676419446717239 0.08051258103320182 0.5405122189638563 1.1958133954458503 0.05004498037253317
Ni 7.285670174923214 2.822777466611467 6.965868862349881 0.46099956814950926 0.011815247467373198 -0.03547428164720987
Ni 3.726872721534823 4.450363293050254 6.112607367058609 -0.42723275611170936 -1.6548049320263951 0.3960095364313696
Ni 2.009871591640675 3.8732987124263305 2.082925659400221 -0.9501771413951312 0.4457297864746324 -1.4053418480304185
Ni 1.8254323158039 6.24125655704924 7.307773135282372 1.224687398167723 0.2024314365284707 1.3404852565663494
Ni 8.24132452804652 6.655900738361564 11.270553679032709 2.2728685643131694 0.5211165880460638 0.8364328230914241
Ni 9.076387879268832 4.212045683592706 3.166778291404454 0.3023691879663889 0.5093550766347614 -0.13276071150521007
Ni 8.673552394641014 1.8856954768182506 10.96537925757954 -2.4711420128092088 -1.136462821401675 1.497526437885479
Ni 3.9563291884881138 2.329584200389148 9.640616277236955 -0.6471690342931629 -1.1087360449103678 0.6448195602243797
P 0.9919582414436656 3.8660268467841514 8.293255073513073 0.9629876628962383 -0.790419075365471 -0.463532361873692
Ni 4.591550214285959 8.735266232791098 4.881725373354185 -1.0216743781041695 -1.0671384239742396 -2.0863957079964845
P 7.1746610341034645 5.490748278878496 12.718273096605897 0.8888771569340692 0.68493339752613 1.974768693146096
Ni 5.710946284112011 1.2969700392179229 3.4521006120542896 -0.5391693317827165 -0.7127841011898112 -1.172212982418091
P 0.06271545217246272 2.6322860027243395 1.253855360345022 -0.47353549583299087 0.35855601957060185 1.0699234429185445
P 8.334629863821268 8.942842422945557 11.284699167103375 -0.28477358637181277 0.24210355830711208 4.037612839074884
P 0.696897904020904 6.2926123756505525 2.271661526753659 0.03819296612995358 -0.2544093722576586 0.20906745378774963
Ni 2.2869324446022357 8.704090534345465 12.293495427301476 -0.12972012490667337 0.01739119889325392 1.30679146385833
Ni 1.6299143018413649 5.293825787689009 5.023115574188528 -0.8237308021437233 -0.330085937155367 -0.710432570238499
Ni 0.7504334343185188 8.297568296996896 8.407516687911027 -1.0321367110880741 -1.022833174298961 -1.4760808664171934
Ni 0.7463687663439387 1.1933528838031842 3.2726952782783267 -0.24258024083321447 -0.006651958098878866 -0.35632147381312823
Ni 7.750154817828823 6.886863322341126 7.685718881053344 0.5219051453856302 -0.0006543457545472601 -1.4778089048518936
Ni 4.231458885262615 6.471073383291026 9.695305881255925 -0.8909304399186719 -0.2402816746070249 1.0327177804025247
Ni 6.7649602430307425 6.369969502913991 9.644105294348119 -2.2656764174401047 -0.8158845666264272 0.09527248475176495
Ni 3.541278447978515 2.2632596113426886 2.6312825407056093 0.6314038010391061 -0.3589933642183366 0.36769860530181836
Ni 2.3166667058938915 8.441841372139194 6.451969721009951 0.25051877895400076 0.11604802673621949 -1.769619600576146
Ni 5.962338467754671 7.522805066715961 11.910005692476746 0.592573972656102 0.026334267019154648 -1.617262454996247
Ni 3.6581364972499792 6.567779032352079 12.089234542601167 -0.33544797279822874 0.5404916501385659 -0.5467211759880455
Ni 5.485287449660545 3.266619990273583 1.1175942733835802 0.06736264571537431 0.16587754866383692 -0.10124310051290307
Ni 8.03827592895263 9.060485870666302 4.7022267157624835 2.609703647266912 0.7496465214337992 0.646603648707996
Ni 2.821714868709497 4.514128407150228 10.740845852905988 2.5637302658605914 -1.1398294238810627 0.29694930250239826
Ni 6.242938233728881 7.81386449203826 6.130202140318885 1.4977544947358852 -0.10014729634556299 0.13142682318513496
Ni 1.3643017862758149 2.8560783608610407 13.182810407407514 0.4795595905398838 -0.4874091684912896 -0.6514157253846588
Ni 1.980192770239557 1.2427683062356814 7.888478268718263 -0.018058914384239868 0.5630780200795141 -0.2979108950847192
Ni 0.6618340212522353 3.538561893342174 10.609192744846395 0.517046017521116 2.815657238016028 -0.9262460845008306
Ni 3.125506988891927 4.517916799670296 8.509011419516352 -0.7507358978432361 -0.3206075653512866 -1.3431692311564158
Ni 0.9081331269508433 7.919560643348158 3.8710903567865835 0.41740754249117146 1.3209572138357508 -1.7311574399452059
Ni 1.9222118847190035 7.0792674624518 10.265962534531882 -0.20395918602690682 -0.3292870954031554 0.269859902484774
Ni 4.6855947486012095 9.049231572887173 13.156642779073778 -0.420365853788547 -0.5006434077933765 -0.4760819164039285
Ni 7.547614417731527 4.315348679627732 10.91716688077171 -0.553822048698885 -0.866650998546017 -0.9696987563678268
Ni 6.2989787230806185 1.0428613009389212 5.6943485048832345 -0.12331704959380699 0.4490326255956202 0.5314243977299751
Ni 7.913896534531568 6.669326431853415 4.087183962123966 0.045217477076902775 -0.8993945115256252 -0.20188122045195553
P 4.69817960375324 5.277849859232429 1.7856893062738595 -0.5468026799582583 -0.5138542500566957 0.38288328346205674
Ni 8.078257330011983 7.874959251410673 13.426980621309479 0.5659180606314705 0.7526513696983941 -1.560037926156139
P 6.565533716785307 8.417124420941189 3.610948834418917 -3.5873766800894673 -1.3161847321477718 -1.2635413949204433
Ni 2.723198183224216 6.661952926411916 3.4800672648359723 -1.1709292306096608 -0.41299372969419196 -0.5116801252235124
P 1.7024389186462767 0.9400757438822461 5.27097716080212 -0.7865572784172196 0.7889790004848347 0.14892575130084673
P 4.922276881287899 1.1747620405095822 1.2330958933332248 0.6759702747955714 0.31038460207169766 0.7907024109338446
P 1.9506987484735638 2.05192274861343 11.300724991461436 1.5970816091729978 -1.7259152177096597 -0.6160982810302873
Ni 0.292141427185958 7.279119027858023 5.814478431694592 -1.289203832683554 0.297412615292062 2.101949853680999
Ni 7.876899647579489 6.225613267935886 1.4655978582733802 -0.1322313213643013 -0.40542748731115985 0.40549022222829517
Ni 5.291469592341162 4.830477662539421 12.09963414206784 -0.7594678783995953 -0.8997547230785214 0.1335325566742281
Ni 2.92401070673309 8.426678562077166 8.62808706440932 2.295877623613833 0.018055829060446324 0.9951485638994991
Ni 8.849065848101239 1.2818164691376508 8.859855374798027 0.752509187693575 1.1325228629173203 -1.6228265793475858
Ni 7.931092140579974 8.452605950885241 9.441439230498938 -0.896352896485824 -1.2901723672444103 -1.460394566030188
Ni 2.833357245722389 4.59644740461678 13.419799307488512 0.808732271852362 1.695697556475699 -0.007364667895187317
Ni 1.070248606864486 0.10436928992969849 10.435576259640731 0.7535306869795538 0.9654122131773308 -0.028511734286447668
Ni 7.821191797570976 2.326461086555531 4.307957618220897 0.2824752772559393 0.7469183238693587 0.15217254037291855
Ni 7.482065987152595 1.6894105443699454 1.8656548803870907 0.2761529345823373 0.7129931318768237 -0.4577208973982375
Ni 3.7317976318109114 1.8099738263256713 5.334984362424109 -1.043143603721539 -0.7981511539024061 -1.4134081699783205
Ni 8.655432790416981 0.34531290220237615 6.748651675230937 0.5811701016945345 -0.10428908642807846 0.5313025274401302
Ni 4.728699263494178 2.2963941859206494 7.210538035266684 1.2100778757846644 2.2973320966721724 1.8856277752133652
Ni 3.7610236941059734 4.512252690853706 3.663406982843752 0.04709592504653825 0.31861110374654805 -0.9904899820815651
Ni 5.041851485195704 4.37252568673549 9.744991111155706 2.1892349493519134 -0.19693416085932539 -0.14604508731894203
Ni 1.0315885231962796 6.820982252418968 0.07644514106409463 0.6854779571756904 -1.5736411187618706 -1.0532356978502182
Ni 5.965821940876783 4.814335414411228 6.7396177450678385 0.9878466309214471 -0.06448172462315346 1.162137857570276
Ni 4.634959648576885 7.296305393924674 2.846578735617426 4.072223744280535 -0.24689969414417476 -0.763990191749981
Ni 1.1363791562940637 8.743850175842665 1.076747086033666 0.364054837901644 0.7970296387034531 1.5045805165187829
Ni 5.5882578063523445 5.814544959563237 4.726514931806998 -0.6348938164702356 1.1786319985705571 -0.19860332103163214
Ni 5.347972080780713 8.167072034653186 8.84909079605198 0.9328705317958836 0.5595309261582041 0.5538629292391494
Ni 6.661962166393673 2.4903321630028636 9.358648069964643 0.6632433141472062 1.534630798936944 -1.043425910848648
Ni 0.4199137429079206 2.635917315554551 6.358278153997791 0.4304885440448457 -0.36199307027660876 0.13561077935949548
Ni 0.04597445322646456 5.073378302948075 6.624193740964945 -2.4693131871305862 -1.1285659351521016 0.3905341151390952
Ni 3.360433525044926 7.365937896439875 0.6816362261540836 -1.4799506337852448 0.4642275881685038 1.3679796053318762
P 5.732013442516292 2.614499037843532 11.302145176657374 -0.6224332221093797 1.4284946319977978 0.38912052262102015
Ni 9.201155352923658 5.575026152477375 9.265888817111687 0.25784436608113664 0.07900460082967685 -0.36908751522954497
P 7.309731087416524 4.60940185903906 8.491416646256075 -0.2867085986109965 -0.5489901745278803 0.24824669509037248
Ni 6.676228698225343 1.1272777742641442 12.592747020448881 -0.12214128411815094 -1.375077135608606 1.77073571645846
P 1.3179725177499098 5.474264151425323 11.597758064989161 -2.145456261604066 1.4384376021431227 2.3250131075272087
P 3.380031526349961 6.4088698261078605 5.572526737412306 -0.2143292164073212 1.7675601469439561 -1.010252252310157
P 7.656673922400705 4.483017388576888 5.100092014203608 -0.34779749550251715 -0.3799532542994553 -0.36776134021895374
Ni 1.9115766657175444 3.1059367075321616 4.242273359910146 -0.38607505092647704 -0.7856296243966276 1.3364874482608662
