# total energy = -340859.8979482543 ev
CRYSTAL
PRIMVEC
9.38999879106677 0.00000000000000 0.00000000000000

0.00000000000000 9.38999879106677 0.00000000000000

0.00000000000000 0.00000000000000 13.74321238635096

PRIMCOORD
 96 1
Ni -0.17514507335330104 7.52999022336043 5.934593756758211 2.08070508536961 -0.04687455306435153 0.03957544829977701
Ni 8.657644561113484 0.3739482485124728 6.461302260646205 -0.305550413907848 0.06696258206347822 -1.796952484063144
Ni 6.317055917121203 8.848449335352537 5.850691301086055 -0.3389063636604744 1.0987401100399208 0.2624530684977415
Ni 3.3005188243901205 5.2086886367641645 5.162871076950088 0.5809230186807349 -0.05861472431941518 0.3381080361288951
Ni 0.16343104993483562 6.865535133069888 8.912871299654794 0.07864387505614844 0.33476534490890736 1.145218456107118
Ni 5.099210641545014 9.09442035214348 13.257032143140645 -3.716420347754406 -1.0365646649524407 0.9739552176513355
Ni 5.7133071686345716 6.1275094027122705 3.374522343398752 1.5964606877595473 1.432843652995113 2.119459066209356
Ni 0.7846264160659632 8.784522223983469 13.222646906783066 0.11395694853514567 0.21178639538080946 0.42560756180346054
Ni 7.044949838846737 3.668249954741979 10.048446101338488 1.0896242637815814 -1.2436474842099938 -0.1917032514776892
Ni 0.4013200948169432 1.9034748130079249 7.510802699950979 3.2488960911125013 -0.039802476708918545 -0.10313671799119012
Ni 1.0920099025654824 1.8623935685543886 0.8772681435582118 0.6548468625533949 -1.1141093934071395 -0.5703822670504113
Ni 1.2029527375868605 2.367866590309429 4.77064050090595 0.2592119358526246 0.7394297288017975 0.11927887496869136
Ni 3.913648181610257 2.8362397270734028 9.086833233167832 -0.6291162905565101 -0.11607682309162591 0.476013010839206
Ni 0.3906164352620664 4.993451085823832 4.619285928340644 -0.42638454917880114 -0.37645732533105486 0.9844100944360724
Ni 2.093209127391502 9.379566443645317 2.088254025060501 -0.02154481605031128 -1.0095973923349775 -0.5632199449740172
Ni 2.64883413237542 2.224302899692261 11.33716051434649 0.7838095404687533 -0.6120948162978491 -0.8331559521123652
Ni 0.23831347282480467 3.3331960199783044 2.3930505669092885 1.4603523999383432 0.7709090303570014 2.3748421152341943
Ni 3.0577122371719407 8.642770803121621 11.397300639226845 -0.05735282688785607 1.1474368039146754 0.30436487824017905
Ni 7.372219464661388 7.636294399008084 12.499795414376743 1.0003856439287224 -0.3677574835642118 0.9583154542315495
Ni 8.033463175385506 2.495307653103348 1.0842725436101193 -0.7360209602305646 -1.4257705481984153 -1.5202549898312465
Ni 0.4924631785115267 6.729877821385263 0.8012429578225295 1.006187852432796 -0.38739042730379086 -1.900067347677463
Ni 4.451178659037154 4.025567576499787 11.866494461880016 -0.6503569451028413 -0.3172088240823827 0.27015866467211536
Ni 3.1904023092571796 7.72099218757286 0.29507789316092276 -2.0312422027527917 0.033470363843303645 0.10765337491462106
Ni 1.655015446552938 7.037203089892642 4.509574122153062 1.2998196605261871 0.7003062804377745 0.17739274839228805
P 2.0976975467855117 0.9775082580245864 9.226766750275118 -0.7017903211824689 1.064275757714464 0.49282288330769314
P 1.8937092143263985 6.03007877586658 12.86984493541559 -0.2220309559269531 -0.08206807024634898 1.1391786776709414
P 6.143275210583696 3.889309304896299 3.847398923554706 -0.5970417786194685 0.04417618029658198 0.7656462392961653
P 2.01176027838808 3.820396104200413 6.260665218734628 -0.04975804525973366 0.26092711877151836 -0.3182292949270971
P 8.14519477030039 9.151023264501404 9.486265938239596 0.5089958935231298 -2.9999248591512786 1.2558319420913275
P 8.378451728807887 2.967155089398249 12.256883659172761 -0.9044984084110939 0.8106086629394685 0.5720349721624858
P 5.54614641120329 3.998608890139536 0.06433651531379388 0.3129461921512869 -1.4013594663439026 0.5557568038277525
P 5.933277278935951 7.111571879851958 0.19657586745988517 -1.6519340382365033 -0.4592357913808672 -0.11522758771745317
Ni 0.20040416994301813 7.638641898691143 2.77158019580322 1.3931129100643942 0.33557961328008656 1.455251588376668
Ni 7.622613170855215 1.0589007670356152 11.252914384720732 0.8125084510653426 0.9225874047023208 -0.23749254189766197
Ni 9.203090807471657 5.492426228456164 7.076599768573614 -0.16253100078910718 -1.44159568815613 0.1788744751441371
Ni 0.3611055472463925 4.512110360810639 9.997389861231698 -2.083377747105767 2.3561941611157033 -1.4917286002567793
Ni 1.0402897895483219 3.919676560796353 11.99194202794308 -0.26103767620745366 0.867898497799873 1.6473693016839566
Ni 9.190742959138765 4.478597455335286 0.3707340519464281 -0.25081831247229064 -0.18686880620352334 -0.6485394322781283
Ni 3.958898585500906 3.0396552696098493 3.9232607233124472 -0.2446589777391141 1.9614856028839445 -1.053696953757353
Ni 2.8730203521075746 6.478582675313141 8.8735384729652 1.150491017359967 -0.00019746072278675669 1.297641936148578
Ni 1.2569452302972224 8.829105937964128 7.909369647139629 0.03080952918168887 -0.304650784911714 -0.0817993899659946
Ni 0.6572351202653258 9.163277212846973 10.54878091578725 -0.0162614561641849 -0.5246428560317674 -0.13867681987932892
Ni 0.5489646788831422 1.5745055974227395 12.199643165900918 0.6169192342696859 -1.321729059004769 1.8498706722184142
Ni 3.161847323112447 0.7579099916730029 4.02931700299357 -1.5483538049499914 -0.3585449638270083 1.0795020877459152
Ni 5.244051371989768 1.1871869297154347 3.8073505789617164 1.9392224206103696 0.6564085506135598 0.7459091658785542
Ni 5.548052580945935 1.8986953036532161 12.391196323038931 -0.008660760998791536 0.6474397714560463 -0.7732610755289456
Ni 2.5164257602521487 3.6327088095404627 0.06569806512996822 -0.10061780822407833 0.039992481232537576 0.6241458339251122
Ni 8.178538655798564 2.9607980602565243 4.498771867611496 1.4668295230222546 1.1777809634241716 -2.8092834732792005
Ni 6.0637982613140435 8.808692080720245 11.232011308542901 -1.9933688247457866 0.4137804872615454 -2.6040261372661604
Ni 6.811148260412772 9.211738996304048 3.018765339430242 2.861914212101039 -2.7029233632547065 0.02239148032132273
Ni 6.0438163440118435 8.442932850102157 8.691619454526464 -0.8627789171851206 0.37752330470172396 0.9698221693195685
Ni 4.612001167324174 4.6965674959067 2.3161436602926497 -2.0098966471974804 -1.8036941736623515 -1.4760217310444839
Ni 4.4636861373484935 2.7041318349095627 5.932889471988309 1.266100413896871 0.5490693645052479 2.3576542906009976
Ni 9.194461398636733 6.39596946646692 11.772765372534574 0.1643433714074976 -0.33616608191117586 0.5962953873717473
Ni 7.912304021743454 7.28201913683952 4.198619619135673 -1.873306020423219 -1.2739551340545994 0.04233809864657869
Ni 4.2107759114944265 1.9912525211568748 0.7137384986366876 -0.7540665048783658 0.6215063394197361 0.08884601240013086
P 6.3943356066875126 6.760160567296727 5.8937491402727265 -0.11151594319382084 -1.4215382552846227 -0.19911985565673448
P 4.152539139357094 9.368589535127333 6.32429654514363 0.32885617851332394 -0.35623148520248327 0.022044895615181387
P 1.2779976074548973 9.589160605347574 4.828045319155606 -1.4707447989162608 -1.408548013672542 0.4963730625527968
P 5.536850312458377 1.5267198938743864 10.138052042240606 0.5075771587987322 0.11513322823143397 -0.22567986553345007
P 2.6918121565728677 4.391101447148303 10.652941354724334 0.3001634385643218 0.16980542296333337 -1.8439345092396373
P 8.63500527417006 5.248136021438291 2.794806357667408 0.9842807679470598 1.1073311941430415 -0.3862398586391155
P 4.554684615062601 7.409478979630903 9.99523203952303 0.31855376814605135 -0.8376242722963639 0.8530501199331308
P 7.445329994790584 1.00057009491096 4.666438745974444 0.3299337278482189 -0.7544897084587134 -0.26164522788446554
Ni 5.060373606788484 4.954707951054622 9.76349438281041 -1.3441135973475562 1.471467278904582 0.14497088041815678
Ni 4.487245644167675 6.834886177207868 12.186106543728528 0.8622029900769925 0.04034009437994343 -1.5716276878762674
Ni 4.233236788461937 6.9738299884487756 7.089147623879503 3.06996016660281 1.0535930811896372 -1.0058690356407967
Ni 4.815144399897386 8.018429787415196 1.9951296516334152 -0.012645456678152414 -0.5468988392164904 0.1386901896157676
Ni 2.16385008785412 6.4533611387183525 6.8683906316843615 -3.2489002048775593 -0.5166017308948458 -2.003534966645511
Ni 6.957960890591296 0.527676612757288 -0.020820444188988728 4.067620441180569 0.6400478498673493 1.0225030446530519
Ni 3.994702650666925 5.427813647179642 0.1693382981372858 -0.47083403774142785 0.8492538861154922 0.34112908234340605
Ni 2.157859268662953 4.995066165605776 3.006602474072375 0.31578983224766904 -0.5823546089209389 -0.7140609110197057
Ni 7.779379199689909 1.4962211779920813 8.614176378982213 -2.5397583284260263 1.4752719973626527 -0.6111774466899023
Ni 9.29230518542664 0.8420152713177751 3.091838309564509 -0.4231958670381744 -0.009607955403409259 0.19963639028183683
Ni 2.716967963176531 1.5105878760524034 6.958655750497481 -0.19839069080019378 -0.1625734239912684 0.3033796315087743
Ni 5.35375472717849 1.3749775143614393 7.817083800599332 0.1464451509708381 -0.793096365087318 -0.045462246097857185
Ni 4.3746313893719595 7.940774497899596 4.4564567773245445 -0.37184708025255314 -0.07728453281477658 0.5661139786923605
Ni 7.147713984972338 4.583643371152819 5.854360912590613 -0.37488792396140597 1.909956581766717 -0.48313779480944535
Ni 1.9411193179254622 4.347456733040866 8.38338711214155 0.5121688919344728 -0.3780920327210005 -0.6769280107231503
Ni 1.850909600104863 6.724610032096478 10.76892004606581 -0.06310644154218165 -0.5188889842671257 1.3517528590603687
Ni 6.9370024134209425 4.412839294213431 1.8528458178434504 -0.10286212417356479 0.09215990726471224 -0.6008025312134814
Ni 7.876687756552079 8.018101137459567 7.646819648587048 0.7103880901538089 -1.5943688382275252 0.017258529970131567
Ni 9.65836489600416 2.2927559904502672 10.094677760096657 0.18386627193177368 -1.2304009036127326 -1.4228492607865624
Ni 7.028611241052645 2.388524587520351 6.222417875898481 -1.289917828031443 -1.4603616559097237 2.92921000913422
Ni 3.7827515992828755 9.039197769599195 8.88212844380545 -0.9483033214111861 0.557793117531491 -1.1970133292912224
Ni 7.5275394336913175 6.985830406828574 1.6467118706740211 -0.4189589461386914 -0.43804398779460035 0.29892210995805296
Ni 6.500095162408695 5.12056349866212 11.914485806400606 -0.3832406668014754 0.027240066662875668 2.219435384194694
Ni 6.740854729903247 5.339425589113097 8.15471341201526 1.0972964356148585 1.0352832271368557 -0.2318420284801039
P 5.543179171603904 0.6451614598954156 1.6797505812133964 -0.978884793742469 0.8112401258758802 -1.396909143882033
P 8.640780123390387 8.882140650803802 1.387267144702191 0.26618631028792866 1.330193130611722 -1.807569854567674
P 2.7556265879571495 7.030883620745846 2.5836553341753445 0.6317326451334345 1.1225549530713312 -0.6143170207601484
P 2.61772506657552 2.662346340551109 2.4415780803574885 -1.872223071771685 0.09003180517811592 -1.7867536891532712
P 8.619455436269478 3.397827381252291 8.111587025837842 -1.274684041800824 3.644646460345214 0.8294013701659394
P 7.586903005676517 5.854194709613052 10.38673489066542 1.3974066523437416 0.4442776274091381 -2.2869057591325257
P 2.7602746373296068 0.854940604572699 13.066633955846699 -0.527191333485234 -0.9041983606721719 0.4304124393912716
P 4.931448924194871 4.2259970994393825 7.604902694246344 -0.17255598912527703 -0.29077916913594437 -0.37803649689271673
