# total energy = -381171.6495958122 ev
CRYSTAL
PRIMVEC
9.19740387770845 0.00000000000000 0.00000000000000
0.00000000000000 9.19740387770845 0.00000000000000
0.00000000000000 0.00000000000000 13.46133026286109
PRIMCOORD
 96 1
Ni 0.6783342703616939 7.202146477858998 3.811077555988222 -1.798666124320141 0.2854274179057278 0.5711564262122745
Ni 7.446539887086186 6.019838636170885 6.880610765434756 -1.0088273469381723 0.27154011840067427 -0.7546558017229326
Ni 2.8368195830876903 0.21047062542270795 10.435424743072328 3.4690079756398706 -0.9684150045593967 -1.554775135095303
Ni 7.673044346255159 6.0048376708521465 4.5344763449104475 1.2052853394920273 1.163229805082874 0.21803854693810834
Ni 5.242961543848408 -0.335581067505938 11.869608081839743 0.6748035081809798 1.529418144387753 -0.18572183708327372
Ni 8.917305898787557 5.277874888023721 8.269860188773167 1.8817888610832494 -1.5612149771833759 0.25310299474140924
Ni 8.36637222401269 6.217656393421313 12.905497856457545 -0.32163369262295577 0.4742289223555898 1.0529029971011479
Ni 8.12601647497859 3.140251126208801 9.978722147437017 0.8714839011582862 -0.5958899244032125 -0.9020841425426462
Ni 2.729393908702113 5.952099758444022 7.338524659127996 -0.3646454202977913 0.45741390768077994 -1.3863640213763349
Ni 2.0234287983584713 0.4068517482263007 1.4368487463390682 -0.20244352071332877 0.7677388601591358 0.5143605002691528
Ni 1.5901299159972624 7.063716355840392 12.51991142516163 -0.27950179644991213 0.057337400268888346 -1.3727346035183585
Ni 1.7502015287546753 3.659407771445811 7.259022302159766 -0.34985514936249423 0.08275943988641878 0.8993919404224641
Ni 6.585386985312079 4.070540911061365 4.948572887975234 -0.26464853348716355 -0.6311415485166549 0.6121452099198103
Ni 4.199589681378492 2.461767857908318 1.6123848735581172 0.3817447989822393 -0.2331088110076695 1.4578039224848764
Ni 8.888609999465382 2.0779969940887475 7.280829346163893 0.34372203988156286 0.7293407199969116 0.3381751419214047
Ni 5.485625841193362 0.7803684267400085 0.39442605592365393 -1.1380124252769819 0.04543730639719271 0.8406147223832556
Ni 3.8982643436883997 8.123146885046372 0.5013035650529484 0.22411766325265273 0.13079561735903927 -0.44885727636002054
Ni 7.665594449315748 4.053277384449916 12.057730855924943 -1.0480191866462856 0.3012253041699329 0.5433072652104901
Ni 9.101088418100279 5.288074808648174 10.626467692809708 -0.8045431734716789 1.2557419534806824 0.10551190309158602
Ni 5.8230233959160085 6.659113372801358 12.587420367797773 0.03835468851879846 0.30266332216804004 0.8516781792862688
Ni 3.5317294142693916 5.659429177568726 13.228233830055359 -0.5694497279338129 1.3961943772031955 -0.38968359421334176
Ni 0.7136854109497421 7.088043488438839 6.609553163347019 -1.1207253560617603 0.5509807225953478 0.3304047539473664
Ni 7.989140714173268 0.6471854234916911 9.241311114086159 0.2160261444937699 0.15092581245001102 1.9878990598804667
Ni 2.466973588362277 1.562813627219423 6.741017171857095 0.8078907497876731 -0.2904842636033449 -0.12411023491906367
P 5.6074546496618005 1.352009136044986 9.78552516576975 -0.27612053868250513 0.9455707529713715 0.3844624550237185
Ni 6.066681012852884 7.7317697684257 7.51046644100887 0.016568188771326306 1.3010113668414431 -1.613797122155466
P 3.660125168928865 5.7499960111025255 4.9988109460770245 -0.04544476259636045 0.6467229478946798 1.541294841220681
Ni 2.7229005417401084 8.22637854337717 3.5573984480572944 0.05775469031196505 0.3598711388375996 0.21385613342564458
P 0.8482829748761848 1.8971760387445318 2.8704268959476984 -0.19877224250932862 -0.8519437742428295 -0.874070945159172
P 3.6705734194512982 7.489933237407346 8.889526060866821 -0.6133189185129373 -0.18962271479957665 -0.2784684700893914
P 8.430055046739207 5.98470455430848 1.6220090367154 0.44834588394124075 1.1623468882572885 1.3752481139688315
Ni 8.264934059389526 3.978943968321129 1.0057563211084328 -1.1485056114988221 0.13980219173302375 0.564085635408422
Ni 0.9616621286307502 0.2103161090417424 5.752080142764835 -0.2815067426950829 -0.3869571964211142 -0.9342972369400814
Ni 5.751108896941623 3.802832083634911 9.664063333706105 -0.683677670742158 -1.678322041311729 1.128892722363901
Ni 7.968418963797351 7.804659192184749 11.33903010077636 -1.112577273033329 0.7793036821785999 0.443031927927495
Ni 5.559499387140705 7.099457466342305 5.263298842752636 1.8537306693944526 -0.9674590684040305 3.6911823991232233
Ni 3.123107165844527 3.5219801664227552 5.225432212272084 0.8487823457957123 1.152164805517964 3.274326358260148
Ni 3.1709980465402205 3.162619211834291 13.141892283748678 0.6039133089283213 1.3751532402621802 -1.9678490832081268
Ni 0.8960276168541788 4.750109472990058 12.72990838429745 0.986112678949476 0.41927673448942626 -1.353432817865953
Ni 1.2862017130801913 5.1414130103817 5.5603234745058545 0.9863386789173529 0.7745139740994403 -0.9003234510977979
Ni 0.7918633417954104 8.739676442502569 10.464891384818607 -1.404305179235788 -1.019661461439199 -0.8475464165060822
Ni 6.404032580557386 1.2393869286090795 7.724218700046371 -0.020880700103751135 0.32612515273540604 -0.2713208033010166
Ni 1.964252703410115 1.7618546391524945 11.610840970221306 -1.0514246127834086 0.9012138241225512 1.3423331084083656
Ni 1.253799260095569 3.4036003843151557 0.8938864612893703 2.0561780467625237 -1.1020452631537536 4.04879173850984
Ni 7.388375506537009 1.5496337478192064 5.482072884171518 -0.03718123703598758 -0.6595905478859673 0.06628818170427295
Ni 5.710079279353091 2.7289616307315545 12.286842779022711 -1.0745858813912204 -1.8098617359256444 -1.370826073641736
Ni 3.7519060597416796 7.3518802089375255 11.197511490619169 -0.9103720935830516 -1.9358321639818983 -0.4908356776743353
Ni 8.603748014271025 1.2905704798039197 1.192802998969053 0.2982088859411122 -0.05834424426684791 1.0375283144172907
Ni 7.348504761805718 1.0727115800461147 12.410027284786048 0.3461491612658168 -0.5202316143379493 -0.852916422568744
Ni 8.379239391689524 8.888159326687566 7.1987425187759415 -0.5370170613264041 -0.42318095463983896 -0.4479959568009897
Ni 8.08388316895459 2.755339784339246 3.4895400040832545 -0.7219318291273503 -0.09967652735673156 -0.9626688461042389
Ni 4.205338058646555 0.47391553652680357 8.082424460739045 -0.604708808246423 -0.5143998381475205 -0.2823840030937137
Ni 2.922070317323984 7.894131534686708 6.0809001988631675 0.4838715876516763 0.3825775792961798 -1.0462232710881272
Ni 4.381118836802133 4.3645359180592225 3.443340525914916 1.9134957052682273 -0.07152603306444455 -0.22804245222835565
Ni 0.18789375873484185 4.618043954282652 3.6091301645084175 -0.6593478357475419 1.338828951909849 -1.8849860278643087
Ni 6.999132187558242 3.7672841186092043 7.929154327965206 0.9563693862487722 -0.24668037904451706 -2.717817763868035
P 7.868342014911267 8.170587092964249 5.222470648303577 -0.12854590209291408 -0.7633864967277111 0.02225084097840039
Ni 1.4117646674219633 3.765417045672537 9.584722851041743 -0.7280950205152686 2.806811357589624 0.598274365474989
P 6.764791540497444 5.64791402822534 10.882246567989114 1.3513314552522342 0.6535638820759131 -0.4626995815597515
Ni 6.628127319975587 1.0708261123021898 2.587402551998396 1.1555110962823778 0.19899901380815405 -1.0634288363331363
P 3.315967522538976 1.0454964627081933 13.238167945714936 0.4575118667112249 -0.6076061843988761 -0.13580824008228223
P 5.671201854213721 1.994889254897988 4.193554345117207 -1.369220933938145 0.44648749057626325 0.1555309153221902
P 8.711164491252973 4.115516214806697 6.046600321509902 -1.6842888004181251 -0.08802248805757099 0.6977210362091015
Ni 4.851428071366044 7.024185915043371 3.3954993111988188 -2.5340237399350936 -0.6831269404450107 -2.9861360328973023
Ni 7.180642948174625 7.77977101796494 2.837891080610457 -0.6687058799236741 -0.27167844375075145 0.40758849951822057
Ni 9.14229278635776 8.109074857494152 1.6141075472578106 0.1100082483000428 -0.1697041214987787 -0.2949854939078081
Ni 4.91488095900184 4.70946614635394 11.541461275687046 -1.9281610205898858 0.978721014471095 -0.38379011154704223
Ni 4.889707665269535 4.848576876241085 6.900372306871816 0.1567717297078268 0.5421286715213566 -0.2313640604024209
Ni 1.9182656852656041 8.722937167897967 8.163798489345757 -0.43084489894299993 -0.41774512833624833 -0.3373917267881609
Ni 2.346184086503905 5.7838516538605145 3.1622283221800624 0.9196604608635128 0.18577094515365428 0.35322689404820456
Ni 5.512730589687737 4.376446555758651 0.3510970874278959 0.21909295634455173 0.8158210603783432 1.9989334633177576
Ni 3.4944339425541937 5.058434034841745 9.137860557548992 0.5217616778292304 -0.5775535879878698 1.9578649754122215
Ni 1.4278233341580262 1.7072312590004446 9.100518179075287 -0.2834222145502409 -1.748886996014485 -0.3789682646783667
Ni 8.618675400360733 0.3222420730229413 3.6983256651611476 1.111421819272647 0.14137802086057588 -0.20398129751409388
Ni 3.237826381307823 1.450145432765372 4.314355803600296 0.42457989186989453 -1.382496825111445 -0.1586666327376945
Ni 0.008623485642458649 2.509695528218528 12.828983735928349 0.03662459320156918 0.16032190895293036 -1.0766319652869716
Ni 0.7912112458781213 2.6755339130512623 4.949569886528607 0.03873264068350749 -1.2628505395010057 1.616086175299959
Ni 1.9579340871170592 7.246358397103131 1.3105049324292024 0.2874231081795179 -1.3149909689499868 0.5505613756697422
Ni 4.8971207725944295 0.006210086930234727 5.701061225094952 0.2959761399558516 1.6798821867099971 -0.16153958341011534
Ni 8.190904157580494 7.405537861708541 9.105607102503159 -0.03443966973510843 -0.7676534995341812 -0.8266106947946795
Ni 1.513478754153992 6.568767276954652 9.412243021048578 0.3644690426209271 0.16605264078912046 0.5727772496451491
Ni 4.673798615081057 0.1655689009064077 2.797627606744212 -1.510099389454483 -0.505791013432587 0.18503843786300392
Ni 7.198550293040098 8.386983605545058 0.32722430656871754 -0.1610078792763614 -0.900763881069326 0.10439604431958795
Ni 5.167082963909966 2.6034078737934117 6.221934105849115 -0.2565050784444228 -1.0511551611721057 -0.39912879878664165
Ni 3.3840375067964805 2.977631832646182 10.340509377102785 1.6809764482154406 -0.20447932019643494 1.6384048934018172
Ni 5.530904659258447 8.369251011348537 9.5603708854535 0.8754194887672665 0.9766129669891568 1.9214643252960004
Ni 2.264253614977645 3.382759067692063 3.266095521101617 -0.213632961671245 0.07585937033247579 -2.7272691390889223
Ni 6.5146681488094496 5.284910901799831 2.6223609634514897 0.43431280288694235 0.0929158115941303 -0.8883775915898313
P 5.5824469091948155 7.105720898213589 1.4396622321091492 0.9939794832920622 -0.021220085721040872 -1.3536572751719333
Ni 0.614336896431067 0.030085627010501798 12.742696454303076 -0.6289738514413749 -0.20417078781708062 1.3217503991610076
P 6.634905806450087 2.521026729489335 0.8533700588233306 0.07271054029084897 0.14383650970339742 0.07636330655208785
Ni 5.632204862827177 6.1133670336731925 9.069261722582826 0.7761247702299858 -0.8453733201141633 -0.27454188134147556
P -0.15675594874919366 1.3888815271932546 11.092485418840372 -0.24940677683674464 -0.28183532967909525 -1.8702829173261788
P 3.3518373966916943 4.621980443035822 1.5531545139283502 -0.4900707744838527 -1.4146559263424927 0.2184715207104689
P 2.5068903201117125 5.190425974320119 11.27018845435439 -0.10903945662887028 -0.1243794294200503 -0.68700082157812
Ni 3.963575106857234 2.8386866560243575 8.195526772644381 -0.19331019095349286 0.40307055704320904 -0.737469262641317
