# total energy = -381169.01946576295 ev
CRYSTAL
PRIMVEC
9.25209414819733 0.00000000000000 0.00000000000000

0.00000000000000 9.25209414819733 0.00000000000000

0.00000000000000 0.00000000000000 13.54137500189354

PRIMCOORD
 96 1
Ni 4.360400921083456 6.580588932296797 10.817243094881222 -0.6417375788649464 -0.9221793706306248 -0.12237602583677631
Ni 7.756705881353866 8.620213075183626 13.302207534859068 2.707464959878801 1.8867112380855315 1.0673160872026846
Ni 8.864940216047765 7.753856236373102 6.74049009888455 -0.162166675471153 -0.09248977980030522 0.2367734043434503
Ni 2.933154382049625 5.670506696800934 8.267591713840062 0.132540625074604 -0.409888608406307 0.7335167057514722
Ni 4.08654818801334 2.7597331303632076 2.3753733854416947 -2.8062266887307477 -0.6432671281355954 -2.3646340643529404
Ni 2.0663626948167133 3.228675519486451 0.8894500656676131 1.015317068427574 1.467898330606401 1.6316457203011128
Ni 1.224912493305584 4.322023234784093 4.972785926611729 -2.4960254063144496 -0.2569362524445704 -1.0363324943369765
Ni 2.132533671772606 3.6916595600135533 6.792610845750228 1.2166506439061757 -0.6435818311625369 2.3246071303380416
Ni 4.30307494608084 2.1169623974134386 5.605262779673198 0.033289101070432994 -0.06123956353677195 0.937120051100857
Ni 2.3262817741821915 2.1946059710451293 12.511620720626325 0.9272840388470417 -0.663111159444716 -1.8108706368061327
Ni 2.447336173300047 4.938295970250407 2.872356096133761 -1.0991612567377393 -0.09611272126487319 -1.719565364232232
Ni 0.6592681419276851 4.466096844006292 8.890426959646813 -0.10709930218336394 0.4853394304464545 0.43963395798953964
Ni 1.395345318599838 2.677148938485649 3.132607325677192 -0.4768637888752754 -0.03282810227361443 -0.13280262048673902
Ni 6.137441381505912 2.0480805568881837 8.010156821738658 0.00963546620723502 1.5746484769804623 -0.3888240744265239
Ni 7.987120032655537 5.8130999709681905 12.827487212974507 -1.3905022119144248 0.5424796271028722 -0.33832580856665606
Ni 0.028173551723768123 4.7864228457074836 1.6840458122710198 0.22384049833186612 0.6892135129587227 0.7831860479521415
Ni 5.211047704123411 8.746476403276057 1.2769499713244212 2.074636510578027 -0.02952937691768463 -0.516498115437446
Ni 3.912340508328984 8.92324691302428 5.623434817682016 0.20195372556110383 -1.5356913789909745 0.03741289343081944
Ni 7.9395735211096286 2.8467028148410316 2.0412941458706855 -0.3901247955158184 -2.366894578252343 0.6307270866870557
Ni 5.967757975833222 8.225481732783427 12.431767746925134 -1.0940334485928707 -0.17136942501634359 -1.9931947610617675
Ni 5.18016421403969 4.743539389584643 9.178885973662158 -1.0803801194754943 0.30844547606745587 0.5418638478957442
Ni 5.757781700383839 1.8018545767809158 10.344824694007094 0.8322293265330377 0.2884834311232322 0.1521532570992089
Ni 6.302443227567348 0.24246685427712525 4.377317449923802 -2.9340969049128756 -1.195702838009915 0.4744806333550796
Ni 8.615772070018801 3.353551033464875 11.25437215846436 0.22355613432222787 1.494087587407259 0.2670044353138498
P 3.663440673028728 2.2081140284214724 7.849244401266498 1.6825795310365022 2.597760873082739 -0.27937606950532534
Ni 2.0977828063578503 8.847962623386403 11.507013540615981 0.3320389471166798 2.5673804610186686 -1.203782786804572
P 5.515635893771754 6.02825741910987 12.772346582596747 1.7161077447009347 -0.7834231036636121 -0.9007744225922872
Ni 0.18179717246915933 7.617221310801985 0.8882787505553905 -0.708634854908128 -2.5759556042821896 1.5060571010643093
P 6.352478552424377 8.040874699338108 6.098046890065686 -0.10286803771083573 -0.4659499701762492 0.5167855647708778
P 5.922089639388272 1.630949894687899 1.5006147199849684 0.7280945062946363 -0.07797461690326571 0.593929458242732
P 7.4559110502838095 0.07375584369365036 10.99164229291331 -2.2893542206730184 -0.5289209145818311 -1.099004676555217
Ni 3.5752497121305775 4.773756728893639 12.999070073564567 -0.9057780464544659 -0.48701167594255473 -1.4587745139282617
Ni 2.575551693246183 4.989154731481746 10.675613888918496 -1.940444465942929 0.9221600873569151 -0.4263992044668205
Ni 3.6249982220707113 1.0142700670814766 9.63188515424368 -2.0168008305164817 1.1809812155290242 -1.0908589075196309
Ni 1.3249923951137346 7.655608249195442 9.756899449633504 1.3298146642263808 -1.4723643367975547 0.3544070303992348
Ni 0.25063552815217527 2.405109615857836 13.414925797198784 -2.375536570198057 1.6463609150241 -2.3614726359058236
Ni 1.5740310118253915 2.4627779183419074 10.134080494747959 -0.30835265924333344 -0.008273295752385753 -0.03509067305554602
Ni 3.2396762593634865 8.145728681698444 8.577987442950823 -0.10721474471530568 -1.296358441450464 -0.27383122842769614
Ni 7.272256982530108 3.707462136725056 0.06094724463076751 1.0235440843230565 -0.19568974692926297 0.016265827039559082
Ni 4.748840839500152 2.26396892046324 13.399854135920657 -0.04197377332862449 0.8640518703602732 -1.516185447747563
Ni 7.520944019666216 9.29169305610517 2.2087607497986 0.227709237258653 0.28548526772685673 -0.5402263122923211
Ni 4.30605412037891 6.514269921835409 6.501363250575136 1.60239247986295 0.582954447288467 1.0037630450413875
Ni 7.0170472190581625 4.752227105938331 2.655165962919765 -1.0879242503713393 1.7031195599713829 -0.1611983980206127
Ni 3.3941492223466505 0.6499318537780499 0.9005109441562555 -1.2916823761310334 1.621829248431323 -0.3294968974211164
Ni 5.521760780061576 7.3131419863287785 8.758019315866964 0.1426175496946318 -3.256644367599353 -2.4402178124265266
Ni 0.6097416822457927 2.2223530012311925 7.8686219871356835 0.12925372679321612 0.37891555706356034 -0.4316162298913857
Ni 4.630266001599324 4.178717549371646 6.889730077448495 0.19202952446885638 -0.7958654431920229 1.3254026512016142
Ni 6.748773498726357 6.955650322654457 1.3010960864893386 0.7360561843438743 -0.7493318184068579 -0.9267662186703588
Ni 8.587118334611587 6.958416698788379 9.006381604500396 -0.8871861423848915 -1.382672945677993 -0.09134949554827494
Ni 7.9994715782702075 0.8746309865582377 6.676940240185313 0.7572230482294766 -1.2756543761338934 0.8327245210019013
Ni 1.161406119448586 0.18718004081269096 13.615446432484728 0.11309485764516652 0.27160336753844194 -0.11630899370709001
Ni 7.999499334552487 5.9539816077281715 5.15537785396351 1.71075187970566 -0.19431652073082017 0.22127093783247698
Ni 0.3150920920725639 -0.016419691387531212 8.525081193296616 -0.07862099223801297 0.29189245680478115 0.030971508680849885
Ni 4.032543714790249 7.443652025610073 13.057771834958869 -0.6133896238498726 1.1190970764297177 1.568163897697383
Ni 5.049469132876526 8.71245645329468 10.24235775192285 0.6017967768059507 0.8814646665200819 1.880132556426749
Ni 7.1331795041183375 8.905177573259898 8.801622584910271 0.6243571786049699 1.1544613148616247 0.4459074497030772
P 4.229382016627024 8.432839665604384 3.0777784908703802 -0.6546997954525692 -0.16830261316556175 1.4840407446942183
Ni 1.154929653583216 6.431297142005929 4.201780244318227 -1.5682052924582799 1.9254029982287744 -1.031598322086101
P 0.23172147219706737 1.4722209684217777 1.5998184484824756 0.40392030663801404 -0.6428362112457638 1.361828755239132
Ni 8.066595520917717 3.290451751747986 6.630466971554237 0.7440690273460218 1.037183529483362 0.6117402611719077
P 8.91070107343365 5.530337471286144 7.258258564166815 0.8008446415741691 0.16723689090520877 -0.166815487097074
P 6.535031620980966 2.0739309077851025 5.78403544258323 -1.0930631142598013 0.770732138459505 -1.2048209982610991
P 1.5583949728075701 8.81193496898676 5.480343780852535 -0.2932155464915789 0.19763941445646604 -0.37682010798711235
Ni 3.5367239923257205 6.636906429043234 4.38404742316733 0.5839486928809363 1.7146573854076532 -1.4299665885576343
Ni 6.695888528888567 6.241712481938366 10.527579458214918 0.5124465710758916 -0.10604926365229476 0.5041511638363187
Ni 7.3350972056123815 4.15235833329959 8.886147866128622 1.3221324650907746 -1.1027080935487332 2.1041013528063632
Ni 0.6719111285062963 0.20869393520804025 3.100717207756111 1.4480424722227383 -1.5913575622050269 1.1192426008686467
Ni 6.797198959211138 5.3595808226986215 7.192894369815866 -1.8194617209092538 1.9190960821741403 -0.8018075197080707
Ni 6.14705430726894 4.06717430298179 11.587841685034615 -0.6226715633724309 0.17101846943482804 -0.5424834837576141
Ni 3.111756806428339 0.9114876285886481 3.9555570398391877 -0.8029573170417977 0.14501870293695668 -1.8458468957710017
Ni 8.803608084302713 7.602260674652981 11.442218350051775 0.275868313462383 0.6560719932097475 0.05423485008416466
Ni 0.8194533478041053 5.0116928326932335 13.065761018208509 0.20371853077101046 -2.022834438305071 -1.404975208719619
Ni 2.423475022633206 7.961908076251062 1.5798857369676857 -0.4508953898359719 -0.07450645584900717 0.7094259833508556
Ni 1.921363876185176 6.8626020123572795 6.390879368958974 -0.032158072789783325 -0.04270448084706194 0.3991833061736609
Ni 6.01109478456664 4.88146035623474 4.863790706935192 -1.6444102190556322 -1.1516562413126616 0.164638019829781
Ni 4.998591867457 0.15343487802588612 7.645460552393817 -0.0391509591678487 -0.7896837398613433 -0.4297686351596856
Ni 5.729100208694344 2.368730381882644 3.653598295332184 2.637265358935265 0.7782626425085952 1.0971539964997234
Ni 2.351882318538589 0.7603074858933199 7.336472992004068 -0.8635427919343386 -1.52844472473089 -0.7847166256640549
Ni 4.263762798278045 6.544218950415698 1.833704910697395 0.43037978638112334 -1.191606299343038 0.8542505679991353
Ni 7.02783516077105 1.7062434364198702 12.376613238406236 0.18863078319995255 0.11139021624923397 0.6261345822203669
Ni 3.443296346170714 4.466633465463708 4.953380584460262 0.7160573726244441 -0.8960582480635406 0.6471901173390854
Ni 1.1420692427934103 1.799004931800153 5.369601765811167 -0.2945836304836992 -0.209622040739639 0.22817383559989737
Ni 8.258937305025109 1.9784122883649908 9.37977206666479 -0.8543770662746705 -0.9206109977022403 0.5190273096172029
Ni 5.339503778515975 4.589871358787603 0.8150021653357775 0.41987528730537366 -0.3334389127879999 1.6250667815320143
Ni 8.24268137570303 8.222178735192088 4.532216934444671 1.0459957284583532 0.044863179061277576 -0.5918468646820905
Ni 8.20821732520517 1.3396754684399375 4.291830876129148 1.173219055085102 1.329559353682465 -0.25934691876859206
Ni 3.8356869087652856 3.209264626078528 10.843973319926421 1.0610737058373985 -0.6771704657512595 0.3900168091830445
Ni 6.328978233427178 6.961072049793181 3.6877357469085488 -1.3701516732825305 0.9289364868488003 0.2923925363696513
P 4.52370038183171 4.62066232793039 3.150062326393773 2.4908616027253228 1.4734873946584042 -0.23322271087771446
Ni -0.0272464918956109 0.9081013621504689 11.479659724428886 1.8619263178313676 0.6681986012699525 0.11633573317996738
P 0.2735205828921643 5.646941613145081 10.951248575310997 0.4627057522073386 -0.9167635989316922 -0.5293544025748238
Ni 8.164676970401699 3.7035392488294603 4.342434279563511 0.6359289426029693 -0.4056383177703853 -0.027670983552707185
P 3.8413029298799706 0.7540706492649688 11.774414788474779 1.221764568093973 0.5832115576045956 1.1827308512302792
P 8.399199051480833 6.649443016539771 2.883459534255233 0.4813099975720872 -0.19182897842227606 -0.2989437072246077
P 2.2710190161624 5.921377228143081 0.7196741390539897 0.16951411697515967 -0.31249290666395213 2.6295934442123032
Ni 2.0354329442625256 6.9755515770493295 12.49061846703434 -2.7016367832327988 -1.485249934510971 -1.2077160604207073
