# total energy = -381168.51992285147 ev
CRYSTAL
PRIMVEC
9.17186760393990 0.00000000000000 0.00000000000000
0.00000000000000 9.17186760393990 0.00000000000000
0.00000000000000 0.00000000000000 13.42395534494782
PRIMCOORD
 96 1
Ni 4.049214475418307 2.1047510172657495 7.516878427583286 0.6049978002417516 -0.1993772230831792 0.02800856939778402
Ni 6.325415214731602 8.248370643236617 11.44758686979732 -0.9874072293911832 -0.62255406395796 2.4178618133288294
Ni 7.26847581873581 4.7904573035741125 7.966714511024482 -1.063888292468058 0.5526989908380352 -0.5274309602998658
Ni 5.6884748655318065 2.6675551602220158 9.197516781428948 1.3067287289411949 -0.42166348955404803 -0.12674150189432365
Ni 6.270604133634072 -0.0007823603108466067 3.3441491620351083 -0.8363844863519918 0.38152805498574294 -0.06516795205690068
Ni 3.830676384837509 0.6316839518475547 3.3269931835891695 1.0735062751737963 1.1164699232195159 0.11669363074001837
Ni 7.693463478330046 5.771150080560778 5.55672557262259 1.7187690935831819 -0.9302171533334367 0.5487065818491905
Ni 2.004997784665894 7.647888467959627 9.888058442382773 -0.36797448467102434 3.312654050195753 0.6726828622935512
Ni 6.014241260850091 7.034483131158804 6.296546761292098 -1.612010205458372 0.882188432059984 3.533210735570025
Ni 6.718209618861928 6.865097079333304 9.566353350061473 -0.3352091173145453 0.5293374332939593 -2.418254163671242
Ni 7.936022690295456 8.947276130303703 1.6779143091525606 1.2341061203784618 -0.41266411426891514 0.41832516920943447
Ni 3.956074159396651 6.613393515317321 4.644903432659561 2.1803037083005545 0.8150031924627382 1.2256932137244183
Ni 8.40990557635069 4.494967243380149 2.0347494889604336 -0.1286484891090494 -1.2142803439017862 0.7247356171247324
Ni 7.211197505239479 9.223596987101777 5.414404785055909 -1.3247099960099638 0.704556056853064 0.7456440851426255
Ni 6.917853662076443 3.8904219307326415 0.4377888352782764 -1.5894266637309014 -0.2397473993701097 -0.6223211220115477
Ni 0.29938902113348204 3.786926576130143 7.686261727848491 0.07177928672583121 -0.0015953695115778976 -0.7557896582170597
Ni 5.6297473969462155 4.985744709653198 10.459543758073108 -1.2128808924510983 0.43214227759818474 -0.6401339818232523
Ni 3.638929319672689 2.205283858616156 5.238349868259524 -0.571967352149344 0.4132084168081593 0.5369656392631784
Ni 0.6675973168317396 6.206043357220834 11.523579462053924 0.6130499811222668 -0.008440931678501592 0.27577446819699597
Ni 8.524232906652015 1.1652766135140742 12.021836586398432 -0.26916699018280743 0.24019348576859276 0.3573116056405395
Ni 4.780423280361145 4.309704688646378 4.507589567644945 1.313677649455202 1.2412918394936234 1.2424912591183634
Ni 2.9692087154791555 4.540404675735765 6.416180934217758 -0.6522392497272186 -0.40351432944884696 -0.17973013827621304
Ni 2.3802280622396985 2.3963980649128818 13.161865799822618 0.9682170296159778 0.30507141738890037 -1.5927063629234377
Ni 1.9462336286096897 0.21254977818980478 5.412632780225247 0.13426120731013652 0.2676839778793777 0.14005827360788783
P 1.6956031731091696 2.4605827947523258 6.561910904991258 2.0726547042613075 0.09199689932428672 0.6222635293007348
Ni 7.614677135186174 3.444779225182642 5.856724522955033 -0.11521653197385964 1.3220041670430265 -0.5283886962274449
P 6.95836580150211 1.1058887704574296 13.433888719438244 -0.3631742350689036 0.5909161253377049 -0.6617253348407829
Ni 3.29748820253451 8.513767805659331 1.2494294164220308 0.45037576988707595 -1.868357675279008 0.9707372249346701
P 5.081242195661813 7.25127856688543 2.2931741975929283 0.6382128535411395 2.298930294397228 0.3215138792156398
P 0.4498241600132461 0.22788972684034345 9.076419695612548 1.7885442053947904 0.9245643259230335 0.8308743551670399
P 8.745036448543237 5.905398707405582 0.195437824708603 -0.9873020712718866 0.7158300871049865 0.19183926283492125
Ni 3.5968396190106127 7.170107538151638 7.022246025335456 -0.7354853994420688 0.13692512729554485 -3.3488145592767102
Ni 9.038921431897831 3.7767458030347183 13.00637604467899 -0.19162740393443126 0.5914933379974135 0.7735960902708613
Ni 3.3038443068184105 6.173996851639379 10.88823776938614 1.103663515483467 -1.4193700439887103 0.029002300769621018
Ni 4.062697120869005 3.070209322079892 11.285747430677148 -0.4927899731872287 -0.2906989507173122 0.8253693661884107
Ni 5.878607681989604 2.0860862665908044 4.832892783646727 0.5220298438889526 0.05019179036304259 -0.6276175945237965
Ni 3.7298683874574965 4.455234712705032 0.42953415439009407 0.7848678065299387 1.2156566554240225 0.43998517068137133
Ni 7.000253721075808 1.9572673853968936 7.076747097306297 -1.5374129896677715 -3.218196090925483 2.94133224631905
Ni 8.24873751794276 8.267218831264634 7.9921132469306535 -3.666312632464737 0.8034494261868679 -0.5652675715316652
Ni 2.432516879732506 0.5198990632597906 7.660809795109928 -0.5811675305913733 0.33604806827607286 0.23153632431422708
Ni 3.8181843010933934 0.4854174268163226 12.655125615085355 0.43471363786978684 0.3762853185295648 -0.4945763756636901
Ni 4.86458433794999 5.992375528364063 8.510800706473413 -0.06350419120123257 -1.242335964487422 -0.7038464323805491
Ni 0.0312641452706076 1.4117980723058103 5.9560613527634185 -1.397269355434929 0.14918183317571082 -0.18671993933048486
Ni 1.2100078120603683 3.0888557290195306 1.4946365465790152 0.7016381118753207 0.6841121871764153 1.375834839710237
Ni 2.2411642048767884 7.588005344049691 12.54545117324467 -0.9595015041198507 0.5198883720659175 -0.4890778144429641
Ni 3.639415428658326 0.978885919058919 9.607538704572908 0.763806100763633 2.9220911387012514 1.3492612029867666
Ni 8.46134141015172 8.1947610768017 10.525253769503337 1.087706477933578 1.46639680636021 -0.5062077892550314
Ni 2.3688457744816604 5.9594852109584835 8.480865564825802 2.0496083639648055 0.5462614627428077 -2.6504970271341897
Ni 4.1318621748443185 3.1745393166388625 2.7823429182795474 -0.6783634576180962 -1.1722482065314006 -1.6054505499629834
Ni 4.491160918303931 9.15842169555575 5.409867462127705 0.8760375819672398 -1.0721870421417405 1.5256401654025598
Ni 6.505018727123141 7.101235983941238 4.247420369784748 -0.819135469463557 -0.1730154452601988 -3.1045057657881627
Ni 4.434772275969992 7.1545337068759345 12.85943813893552 0.6435226957898272 -0.39474481078633306 -0.16229394507763664
Ni 1.1632312870273356 0.9357322817490329 2.708296596339022 -0.42667251273286516 -0.628050311185841 -0.636574032386136
Ni 6.476072312808582 6.677578245156764 0.46517328053143836 1.545939281971228 0.6025858483661494 -0.8134096227233734
Ni 4.809589819499388 2.426885352993235 0.5415850271398107 0.8226622516698928 -1.049005976039587 -0.7331091859004084
Ni 1.4407811740909837 4.635232615405672 9.694861304941929 -1.3332375738650009 -2.4580669247928055 3.2953597818916798
P 8.306859643263216 4.4587933973546034 9.731830351893034 2.4624758524937786 1.2518639585825149 -0.791822640581217
Ni 1.9395565089579156 2.78867884445461 3.8959809997174495 -1.1363252673825461 -0.6995429199091887 -0.20014855403156498
P 7.040866751045665 4.282299148097613 3.941246918147945 -0.08608413338427755 -0.21807891325774056 -0.8192509119954988
Ni 6.370073038336668 0.0717698643889179 9.465244515422423 -0.3567976421185984 0.7808440300825262 -2.0438208107487514
P 5.432579757998156 4.314730872120516 12.42274350746831 -0.5085629197507694 0.04878436849255469 0.7062640406831062
P 2.2887570261309858 6.145435655766269 0.7997428344235877 1.4768676239845469 -1.479509432482768 -1.0665884650080404
P 2.630143112063243 4.731518882032492 4.10923426015628 -0.3864375764722183 -0.16973214652323673 2.3171930972621575
Ni 1.6871833986032239 0.8693096162021264 11.19220905559933 0.552876396956164 -1.20485879347757 -0.5776669736372825
Ni 8.718493063553904 8.239207947450735 12.780410575672358 -0.00420323944807018 -1.9104340356237681 1.4756332373568135
Ni 5.325883421584574 3.8470023092608026 6.753001264432085 0.5607221182528279 0.530496743709383 0.5146232670122363
Ni 3.8030782350680195 3.825732748172253 9.115483597135723 -1.3070622010212134 1.6014892513223904 -0.7195430171801995
Ni 3.492913186628398 5.8087639098079284 2.6188791413979358 -0.023259998969205102 0.37539571683575995 -2.9868484855832946
Ni 8.05632090643923 1.722375854789841 9.753054053643316 0.7472875342833195 -0.19440702356209746 -1.5522629101964103
Ni 1.4910154932293993 0.41106843324323045 0.11004957122771505 -1.7599918476783947 -0.014863290265077626 0.7915994688268173
Ni 2.3976729545167235 8.129218910549534 3.674083254015161 -0.8904056777634536 -1.3447679431021033 -1.9945109087700297
Ni 0.14500080729504405 6.548786879565814 9.170937626155766 -1.6992032556361123 -1.917302480608827 -1.0677907128462578
Ni 0.9780787947054078 7.575320651084852 1.3792581202445957 -1.3278107464224744 0.6420617949735845 0.4543131572682692
Ni 6.141840283646082 1.455098459498153 11.303520675816168 -1.2205690051239753 0.1789588073278273 1.5779441170125985
Ni 0.5397203864458469 2.817625258769169 11.124364750566123 0.8940887830419957 1.6427503148547065 -1.1726557263824642
Ni 8.404163987199578 2.021571349515833 1.2728727101444683 1.231515219722834 0.41917131925981355 -1.1656589833496571
Ni 8.956282904339474 7.902444482815861 5.690655935659817 -0.35591986749933546 -1.3128939772116424 -0.2944219080948542
Ni 7.202823590071801 3.4974532611168985 11.03861237393939 0.052744381581567225 -1.1400353692442817 2.8647426826887696
Ni 1.9543965908213368 4.447255187846455 12.401479449500352 0.4172751306783653 1.3733930630379638 -0.7810036955888421
Ni 8.428313514731338 2.1711094797390813 3.6342544187296815 -0.055520915885439864 -0.29794817608055785 0.8186168779559256
Ni 1.7964845454304101 6.69805902562711 5.361259315124261 0.6802989840779122 -0.6233943004710683 -0.8056657171118964
Ni 1.0577914964822879 5.681412527438583 3.0323909601840677 1.013851282515325 0.04796675768726578 -0.20145416021686596
Ni 8.26476994260114 6.69162954640198 2.572740978353589 -1.2301543348195654 1.4832732704005744 0.09163026001348736
Ni 6.473834377101119 2.1622953149240334 2.329552576267148 -1.6408919214897288 0.6004682878025143 0.28644917430202277
Ni 1.1478867524429701 7.899812156799296 7.424078387851576 2.24863257458394 -0.9312191122353898 0.5831015143892925
Ni 5.667948225723193 9.057953057278919 1.0341776060214944 -1.527996324339562 -0.6454649071178625 -0.2328882103564312
Ni 1.9009612898718369 2.3513275072634072 9.178387934250733 -1.2754304330485455 0.04939449127272784 -0.7950252066789146
Ni 4.205668193852321 8.24980145459057 8.714764699352742 0.9978176260912299 -0.8371599310654356 0.8716921605143504
P 4.198936042994626 8.652593194463249 10.859617873560046 0.4659003478852363 -2.440178474548159 1.2521750620650305
Ni 7.599974631337555 6.18580104530948 11.406562940156583 -0.26204297754351646 -1.6940211972145407 2.233320369706902
P 9.129062547196783 8.779073249405508 3.8605950171233427 -0.4244330818793851 0.259074896054128 -1.4496267859907228
Ni 0.15312433047578075 4.101640870925918 4.703767562073188 1.6777736250074267 1.2991516879248852 -0.3798442395254168
P 5.718952981744505 9.093127169730229 7.389162922068096 0.5229281873335059 0.12169725460219687 -1.2269360849925839
P 3.0111608381264285 1.4208965650181178 1.6150760094846557 -0.1257714246715705 1.9726675876426931 -1.40328959348708
P 0.659152778283129 5.813588312193689 6.771620155768763 -1.531795643480994 -1.167696582604976 1.2802319682022467
Ni 5.82544753706971 5.3409894876099475 2.1715396403320324 0.9283209647519884 -2.5338990414317712 1.6472453745115827
