# total energy = -340873.1074963165 ev
CRYSTAL
PRIMVEC
9.20619552052892 0.00000000000000 0.00000000000000
0.00000000000000 9.20619552052892 0.00000000000000
0.00000000000000 0.00000000000000 13.47419772079715
PRIMCOORD
 96 1
Ni 1.777541409980756 5.607410749615906 13.322316634075575 0.08794612629368079 -1.0595336150437882 1.5280369477695102
Ni 2.0207414733089015 8.234370982439325 13.409170643140067 -0.3355006804130351 -0.5570001893165505 -0.6185973933030572
Ni 7.143455242413639 6.799327659145059 11.591515078034213 -0.4351648664745925 -1.87945044275806 0.4857364087745571
Ni 5.983594305194309 6.3628435238339325 2.014163646710576 -1.1294138849746935 -0.322573945049038 -0.23379812376521025
Ni 5.137342413562036 1.3441229377308503 7.91456800860125 -1.737116485742118 1.6961508419630338 -0.9459839292493901
Ni 8.8275629754925 0.6378429612610651 3.8255672845345234 1.6877363926470936 0.09251703349381486 -0.33085778232438506
Ni 3.6028905925648758 6.821017455458081 1.0485782887165498 1.1307477732947688 -0.7821840890501884 -0.508790462380543
Ni 3.971396181197158 4.541057138861502 13.513811942296407 0.4877896917591599 0.4767005238245338 -0.3059425071399441
Ni 3.19138286531709 2.597196603162978 4.3942864484115916 -0.21894768901593903 -1.3514129592224466 -0.8945898910481302
Ni 6.75772486222717 0.8012943571182614 9.301844987171359 2.434135867898505 0.15714016879083903 2.1821273917728545
Ni 3.127307745478959 1.6634122058667757 9.176453844250197 0.08624328466996115 0.016891633549016072 0.04122583941900642
Ni 8.67472171980965 7.731639065180615 8.217939764926813 -1.0464294735616624 1.1735514987238562 -0.1572334998355937
Ni 0.5308559235221453 7.970107144083933 2.420208417620439 -0.9190117715359204 0.21691111820188447 -1.0997700939663317
Ni 3.4516788334641153 7.690910856823734 8.058742551954271 -0.19272372232240356 0.15463000077447564 0.16835274967720681
Ni 6.414665197622559 6.571686066007495 4.32162010704574 0.013713492931350577 0.010286983748304864 0.4929118434770737
Ni 1.625289350802164 0.29180509245133407 8.012296375647468 -1.1594227726319581 -0.10669255366324851 0.74844838736064
Ni 8.8629239719434 7.1980479810113565 4.736113403454949 -0.3244768184987057 0.5458372307211955 -0.10462615805252302
Ni 6.058486704602814 8.888609257050927 11.460694121078493 -1.6225851527607411 1.063612155988536 -0.15927264175280956
Ni -0.04043361010475127 5.084885512292255 2.725062371402027 2.1256438548638297 -0.1566557729552528 0.8960916724046375
Ni 7.170944941815458 4.010218707110577 12.735690499566733 0.5093507057593872 -0.30194418461382844 -2.1835322425401817
Ni 4.135119159818036 6.799484164466503 3.481490335340528 -0.687338664533513 -0.2235805598022601 0.7562090051426654
Ni 7.9339267962442985 6.160380875058046 0.6097640653549878 1.620047731050868 -0.37143056154042486 -0.583702381198085
Ni 7.991456311167931 3.229183503543435 6.706701365577907 0.8591690883466752 0.753347110213838 -2.7097915511294492
Ni 3.2160646751283006 2.950548794201358 6.681639339897541 0.6346436481326425 -0.4979977426404133 0.3964985602526462
P 3.2873942769251157 5.989688806535235 9.40214648582602 -0.38077934974517647 -0.30414324914767615 1.2568590978042613
P 7.2983126548845005 6.43800290290843 6.2868721583270055 0.1231625262938137 0.44102338213789855 1.0836086537151208
P 6.8018409504835375 1.8994498491900267 11.851513686070495 1.211814398859797 -0.6554060774909743 -0.7755742970431546
P 9.042776204868359 3.7651866109020027 4.634477006470329 -1.3079068084096959 1.5638680985355067 -0.13549662237913437
P 7.924177435337893 6.653317400433457 2.806271141460092 -0.8765762280795291 1.6013614674952743 0.13700508860386082
P 2.9524544766448195 2.3814678268458933 11.29356024706968 -0.9354940854616599 -1.7219652319229766 -0.5360955779533993
P 1.1313861749119543 3.366263752737366 7.209073320597296 -0.24915043785156446 0.7989232561817403 -0.3562916490164574
P 4.073014165791021 4.475472202981209 5.198345426002179 0.020757287152009415 0.6184960918385026 -0.1007029117387169
Ni 1.4992565360630827 7.736960246109701 10.265896593015237 -0.2582040634134005 0.7743131709425438 -1.0167293753940683
Ni 6.920158973494982 8.968795218802379 4.8368061654132175 -0.809979771106218 -0.49232306085313915 0.7212985664187255
Ni 1.1169968915345119 6.061994265042228 8.513294766316305 1.4829171726127364 -0.5677072913214094 0.08378685270966861
Ni 4.273377802020485 9.498307958418723 4.400753800665369 1.4774929162733714 -0.8548105542676634 -1.0321367110880741
Ni 3.5465486768451404 0.9815001079457758 0.0321443517854621 0.1364571865201908 0.06574002251028678 -0.3146603466289161
Ni 8.496950087040354 1.417892181303112 13.434529108311638 -0.532547712701141 -0.2846285761535163 -1.577321395826935
Ni 0.5563101331256578 4.265948402349598 10.291847937169218 -1.2684326615744737 1.2917024307356917 0.49377187748452384
Ni 8.487357231455393 3.565936924313402 1.1922188727375862 0.7095511960748103 -0.9566149266006752 -0.11274595894618003
Ni 2.531142151318354 3.9683857553082116 8.688203272322719 0.36942818639841535 0.6291157763358779 0.7408176102882597
Ni 3.0810282013085164 6.550263249360464 11.738356656188543 0.3991023164240804 2.2130603339062853 -0.05085796319213176
Ni 2.5937442798958377 5.707390031432299 6.465943705883822 2.3767735279289517 -0.8169451466804576 0.15023341436867677
Ni 1.210964527768391 7.556868652104886 6.611950282117272 0.6864331220001081 1.994026255824127 -0.6529943827256882
Ni 2.6116963608849693 4.44289147753478 11.064458551344998 1.012351558041347 -0.14551364029550423 0.4620642619685978
Ni 8.08763343429278 5.070321311202611 8.509225627958768 -1.1633876708169768 -0.08705883859272104 -2.8411584676109265
Ni 3.301360075315122 0.005476765630991924 11.003932419825487 1.5400547981659929 -0.07242771894310752 -0.569442014624329
Ni 7.565734218254904 0.8017104771493941 7.107558445391679 -0.12537341790220347 1.048733953325123 0.11357565393632699
Ni 1.1060875500103475 1.1124030000403702 1.1325627266813958 1.423663786268058 -0.7799649699116825 1.491781564981902
Ni 5.03007182500544 6.32290704827965 6.29354204687912 0.051943997167458934 -0.9688497781039701 -0.3257549138801809
Ni 4.836180144127442 2.5957420242930898 12.17163335302961 0.6026205582588268 0.5165004294302911 1.0515925058198405
Ni 2.0529631571355473 2.940366742112138 13.302792134915702 -1.1138898211971655 0.4926968992527902 -1.2209690687758714
Ni 4.958815872771657 5.41359271830094 10.98814103289182 1.1977126693510922 0.3492234293157663 2.113149836161877
Ni 2.1990286530194236 4.792478334663132 3.971061996304899 -0.40795282483617484 0.9008451279292228 2.249256067100552
Ni 6.999369078536257 3.8781190096167073 3.357284950384187 0.3163868424017196 2.0836597971225603 -0.5644327343351957
Ni 7.286933797396005 8.893599014946368 2.3673353963195263 -0.34216035182139787 -0.3395447685754217 -0.6947398420935905
P 4.243255130740261 8.303067612357735 12.727619428077926 0.7070765092820726 -1.0154381673864705 0.4643805688066002
P 1.9771225196030018 6.427949737554515 2.4690251892373456 0.9469038699604984 -0.2232090353954543 0.1839017531553994
P 4.842173377319199 -0.26740315097964606 9.301077190476747 -0.5756759113491827 -0.16128838663125772 0.783486867022012
P 8.613905593135701 6.374443330011526 9.935576461576144 0.4296601346062794 1.5121814687944923 2.6964434119573175
P 5.6289072158259685 1.5683490323827909 5.899542662003196 -0.42849825308769424 -0.7169909401823071 -1.643007168060519
P 9.051245904617078 8.412391182483855 13.631306931440966 -0.6226486805542955 0.5216716892185854 -0.010498842648794821
P 3.260954083796508 2.3872769361300685 1.6137908127737408 1.0909550667778631 -0.34078918250548407 0.8255735117794168
P 3.5356485415163545 7.748670526631842 5.816460431185496 0.25020150482389814 -0.848943553963925 0.07796741781441412
Ni 4.36575276645379 4.0630898871724135 2.9025311203433524 0.9831011458166619 2.0668147005407627 0.5224268222170552
Ni 6.078786365413601 3.9560310411095374 1.1881828766834142 -1.1669836156983515 -0.6426734604156545 0.939451270337195
Ni 2.911311989495882 0.513710305248218 6.094379819146621 -1.1849810807170367 1.4057755931337272 1.5034101503597657
Ni 0.42223018300575615 5.4831179058034625 6.182971957898677 -2.544671192346611 -2.6406964961040003 -0.02665591202463151
Ni 2.9857716977215714 8.888922267693813 2.0866817683308256 0.009226403694274434 0.6424891123189902 0.48698390802841296
Ni 6.400018140774503 7.412948199744327 9.341108489843434 0.36173621707079634 -0.4419134980523357 0.34552566874920493
Ni 8.922718210930276 2.2285805401861474 11.013000522273844 -0.9034231730690441 -0.720297893068353 0.9811026273293944
Ni 5.677755288507163 4.090395462666652 6.744779110285162 -0.7780813797357244 -0.39686622800471005 -2.157303904971272
Ni 1.3470136830798696 0.7804542926387247 11.900316648394334 -0.49016899062461394 0.5984270890027694 0.27059858042301144
Ni 0.3467918562112745 6.875969235675582 12.152486307880281 -0.6947601538085647 -0.5598844528428809 -0.5507956031677352
Ni 0.8349586517608034 2.747920433908649 3.0196081482177015 -0.1580667943701665 0.41177219858226505 -0.6507374683707116
Ni 7.221173943803509 2.1139081705448035 4.585201766323546 0.10859337023038718 -0.4876390251139086 1.5114021674263067
Ni 2.3325553107970447 4.261087531189464 1.842744288752819 -1.213496157437594 0.6023223102921176 -1.6368527184233488
Ni 4.823088934298446 3.390779851031754 9.93960601329355 -0.28577708793566264 -1.3237172930793912 -0.9830165565226554
Ni 0.9775782687143041 2.077074182833258 5.392805129135064 -0.3970222939666001 -0.7573698582199859 1.1565421086500534
Ni 8.887927998592877 2.7206793017820647 8.6620226939038 0.5887551131306441 -1.5796693272338214 1.3288738975796661
Ni 5.98905357905408 8.302018106084525 7.106035740675986 -0.23057678861443515 -0.415917073988574 0.04603354522029491
Ni 8.37256518127412 8.750396645825372 11.316035331848536 0.7345927124244703 1.5090511506956268 -0.37896697912678606
Ni 5.19464177360119 1.957126663239723 3.057080125269015 0.7882421223188102 -0.377107300210228 -1.2065184405681801
Ni 6.3925519163221 8.01087217722233 0.3274229417533086 -0.8923892838523856 0.5154102816899059 -1.264504530164661
Ni 7.286685230120771 3.8035948580233647 10.290581164685062 -1.183492154876336 0.008324460705295342 0.7344829263194834
Ni 5.326787502071956 5.329089050916716 8.75727183253444 -0.00610431312552497 0.63419087686594 -1.2640779841502037
Ni 2.14074423007471 8.129300674578323 4.2366377175018055 -0.7252236125047445 -0.9352611435152473 0.20564223015628455
Ni 6.269032392921497 1.350604099277696 0.516073535602018 -2.4801773835385994 -0.2948469114474148 -0.7807882371439262
P 6.558134546409545 3.2140853431218064 8.338493972795826 0.18423136858067626 -1.329575551632381 2.375018492911058
P 1.8056847492544867 0.9561922768487902 3.596047627539634 0.6843369015927118 -0.74768862637648 -0.37854454687738676
P 9.030844975657121 -0.06330087880675302 5.951189418079619 0.9330944748812317 -0.45882055822031953 -0.5667498125041466
P 0.1645395681509991 0.6376744878856286 9.549460341803293 -0.27973370995506014 -0.4245858054071655 0.5895349287194621
P 5.86003795701219 5.713420089405571 13.341112923180964 -0.6217868467746324 0.5900967147602031 -0.998657605494022
P 7.325609024183359 1.9577158597439819 2.1733608596831173 0.9820323382325153 0.2666617072624504 1.386016408228929
P 5.100269064770634 8.63541126554114 2.4952729728825314 0.5491480402619833 -0.8211375874952505 0.03328344464347816
P 0.0950843477333567 4.4349649433134255 12.823393319845174 0.2960265335778127 0.29463171011281514 -1.0802543925309074
