# total energy = -340878.7409512929 ev
CRYSTAL
PRIMVEC
9.15155588380320 0.00000000000000 0.00000000000000

0.00000000000000 9.15155588380320 0.00000000000000

0.00000000000000 0.00000000000000 13.39422708939036

PRIMCOORD
 96 1
Ni 7.0916045848855065 0.9512950650778267 7.88286456485401 -0.21139275948681657 -0.9432909557982593 -1.7803778675339144
Ni 1.4575591272631807 4.951906797695139 1.0187914491024446 -0.6045810244193072 -0.23714287186772706 0.1357843288228823
Ni 8.55419706779225 8.01443831168791 3.626795390836694 -0.15265359377439514 -1.3319239972598995 0.09811638195846328
Ni 6.138415147774556 2.5647051861771715 5.956721075753193 0.6107614421984062 -2.6907728439351017 -0.4845567866441591
Ni 4.653117655137481 3.285463411224064 1.4939786583888648 -1.183842339126903 -1.6590755343772912 -1.4304265589131882
Ni 6.711750961799326 2.4299668313768286 1.879879629491894 1.2522784204121142 -0.685147313309149 -0.7154048266421099
Ni 8.970382367069245 2.00938878535636 13.45597438874421 0.11825866123429311 -0.8046115648157692 0.33732642076786423
Ni 0.29985438364295014 0.4257129839324751 7.843565039144636 0.3217889872538974 -0.07577452392815337 -0.16822316607787804
Ni 6.135303618831262 0.17446159753934773 9.896364229037804 0.7358209284046165 0.10745360019898913 1.5166523600816526
Ni 3.509713132478401 7.4403612216501775 4.764647664643138 -0.04866532641618715 0.3881802701949379 0.44847238221677604
Ni 1.2170196368351285 7.130635970012413 10.697486840600979 0.13857011909813555 -0.4821890577429309 0.274564764159611
Ni 4.735527414356193 5.762322814087475 3.4224795882420125 0.8607498025702338 -0.639411244724615 0.6098648985260658
Ni 2.594703985812811 1.9928427726226088 3.88665656084703 -1.2593836639983278 -0.41386147701112597 1.6030175150414587
Ni 4.786904248143405 1.835161467643331 3.867127140950003 1.4687287969274965 0.3132069020118412 -1.2229871276471647
Ni 2.772015377801987 4.244409176880108 7.091734536976667 -0.010693218047788037 -0.041487834831141455 0.5809304748799027
Ni 7.10826956784356 5.8360660500435415 3.1524382276536764 -0.3551616491770722 0.3974637523793929 0.3985950377703587
Ni 8.683554307831837 3.784095075942633 1.9673840597774634 0.42019641809021824 0.12707163154023277 0.1369364401494545
Ni 2.5826605384911208 1.9403586005938123 8.047747229025871 -0.8350104888226005 -0.7998429397825323 1.3229906993260119
Ni 8.200407075384014 7.756812866738887 9.24201609835209 -0.5478231508029727 0.5467026640452843 0.6544293154000019
Ni 0.6631281332392316 7.095969876961833 5.92294085329588 0.05677972799320544 0.47856354517520155 -0.7303110543299809
Ni 0.988377168837318 8.935405121124337 1.7930853599298529 0.6730960385715699 0.0557649135754459 -0.23363511582478472
Ni 3.5294530381568863 9.126123542236822 11.398527123703104 0.9301932420740366 -0.9922200773987945 0.4068562493378864
Ni 4.4181331590287805 8.139503472096894 9.15085562155815 -1.2129508264570852 -3.5829309856132876 0.10985758165479145
Ni 7.244499626225541 1.6618493055018588 11.69085618308114 -0.47086026299367295 0.06659491431141434 1.4056292973638502
P 3.946397916558274 6.45679777111925 10.742679053035609 -1.1455673548061047 -0.31171669061956 -1.2585549974494454
P 0.9908297857690909 3.5913175547941427 8.454274891556222 1.0983423603808697 -0.8158015199943176 -1.0586504411078865
P 4.006230787826673 5.8329362179888165 5.981178608403055 0.41911449787994914 -0.33976331234413093 0.8916912293440965
P 4.008042795858356 0.9971809654356967 9.424874248260474 0.34666929543534486 1.616698869183293 -0.11251944475767073
P 3.6916094538810786 5.23670321156369 1.0678053512038965 0.6605405705040623 0.5503217488551103 -1.3158042088799016
P 3.576565246980643 1.976818398564645 6.164103564668162 0.5443269647242561 -0.04889158349438032 -1.7124336382834573
P 8.010329263171618 5.822173988467306 5.154138791053386 0.13870124535936112 0.9967873850545028 -0.17057958212519653
P 8.256908780371946 0.9254144655141937 1.8437154267706743 0.42578291103906024 0.09223112682227987 0.5513697305036505
Ni 6.092822097199585 6.879261037617127 5.620552403875289 -0.7699415242374095 0.5487968275701516 -0.6131430550567053
Ni 7.749006589713505 8.443756093416747 0.6054367260082758 -0.631221509824971 -0.5149078881321906 0.051709512559149656
Ni 8.155436330597702 8.675995122810777 11.654665440848346 -1.1304315276059305 -2.0066115486883054 -0.24865678604459754
Ni 2.8733871604633605 6.636451961371613 2.526472731864233 -1.9588142266993684 -0.49028186205339436 -1.138438457070807
Ni 5.033071945336533 1.3153531029989325 13.188759028560842 0.5043630227368089 0.39617511547495643 -0.19248718083156527
Ni 5.79456374487343 0.21236185037981095 1.8980692616321617 -0.2999083851307222 -0.4870325018781612 -0.0802299885963457
Ni 4.7627441410542986 2.804109883696493 8.030133229740112 1.0293586341223047 -0.9960299380631878 -0.31080343477667116
Ni 0.28004767160774113 6.964983660004875 13.070649050495689 0.020057947092139646 -0.9626747596415097 0.1707994114454865
Ni 2.2668311991910706 5.255427294557747 4.87564596876172 -0.9315379290273893 0.11226233444154214 -0.8981431556170274
Ni 6.319515283829979 4.770962238086882 0.9703714829669332 1.8590513102764177 -1.4563859590914272 -0.5008506387081761
Ni 6.854167471845033 2.4086620096709805 9.559888064887856 -0.36653492401102034 2.3061512376256994 -0.21311539860487813
Ni 2.137098745367145 8.856939682419034 9.266688692561269 0.028687854852995756 0.5115189170552996 -0.38635478695042497
Ni -0.05490841913785079 5.167334419239666 9.431022263390194 -0.675445769750669 1.450975072488501 -0.8619263393768382
Ni 5.326059001570519 -0.11326605962490006 4.892817032750845 -0.2121491780368669 0.11319538777877278 0.12565238259520298
Ni 2.447254120123541 1.4706550034921622 13.008955667950316 -0.14625514644721907 -1.4084114880946776 1.0083632628175603
Ni 5.062375226737789 6.10454524007123 7.837698891930955 -0.6064049650019234 -0.22127093783247698 1.2280768834652462
Ni 7.741987346479663 8.558791148761467 6.074723980616473 0.19257691233189414 0.6473256144756852 -0.2626572140887476
Ni 1.0551926771166975 0.41203872938226976 11.228447291040371 -0.9155891190076166 -0.40987138201512635 1.1486956160224409
Ni 0.38825841185536014 5.926547481403386 3.0970402002850426 0.9111040866530695 -0.6521685443902833 0.8262211726657448
Ni 4.3603136300178065 3.8506909468848383 5.177042389542743 -0.3048456745313395 -0.13328187411600273 -0.7968851427057889
Ni 3.9303918456117413 8.41542287692134 0.6342229445116024 -0.997599853653469 0.24565450888316404 -1.8149332369112807
Ni 7.772626755015393 3.731006901236609 4.287893709018212 0.10042009039097545 -0.9817613439593156 0.8162491490546974
Ni 8.0246605994222 6.228530516905778 7.344724718955753 -0.545042759844358 0.6354296343690476 0.6786033415430441
Ni 1.7891199908382962 2.517034732454765 1.7599347645057706 -1.360834766756979 -0.4281331564387917 -1.1216730646870103
P 5.809133021572618 3.7563475590130233 3.2406930855079223 -0.023935427769674906 1.1634902578331123 1.7066000623208157
P 8.405758834085699 0.8925018105387164 9.896056736765763 0.5742972858341012 -0.19545680498285048 -0.5079273430492993
P 5.808025683331034 7.686089644168959 3.2620162103252013 -0.06817845674845033 0.05623773944680637 0.07689912445089982
P 8.38675105286446 6.171040443900565 11.241332681487894 -0.824354294660335 0.545154602831874 0.2991936184518847
P 0.959064735880346 7.301056240547766 8.334530445640272 -0.9382639348973132 -0.5662487044980119 -1.2189615514275391
P 6.320888017187315 4.323707407155525 8.46578114255741 -0.12753263033705134 -0.0856403609786396 1.5627681806031084
P 1.3274880658777788 3.1172578171718803 12.237367872148003 0.6226340252662761 0.7842885369877008 0.8973890510598221
P 8.251966940285538 5.922173037771343 1.3298628945859692 0.48516562387275153 0.42565718409447334 -1.7179018604868799
Ni 2.73025682907184 7.595196392801913 7.069700336280288 0.969806999810917 0.2805299806041104 -0.02442522292189987
Ni 6.353101493306122 4.742812052705787 6.391738446381689 0.23352610105074623 -0.4423770679523155 -0.9205768020301952
Ni 4.191156274171203 4.354484089026989 9.692665241298354 0.8693450004384125 1.2197431667885703 0.3038953948029282
Ni 5.043047141066505 5.335915227076189 12.175097941592547 -0.16653369419059705 -0.40786694999058787 1.1185409468159317
Ni 2.288291597344083 2.0648380614370008 10.497819113154236 1.810201121542934 1.112823327605864 -0.6564211490190501
Ni 2.112362090267958 0.2077851573664542 5.620566131208862 1.2603604260893004 0.2533459639901508 0.7789329291027424
Ni 6.141416858049263 7.030792497155541 10.809904551011046 0.6353360462139768 0.09162203248337124 -0.3359459954805698
Ni 0.09681339275944763 3.0578459174663974 10.484465163054075 -1.6562843447853992 -1.3146122454543296 -0.3265738102370505
Ni 3.483896593804777 8.764216119908877 2.8539611531459195 0.1158204841064457 -0.06358466673018083 2.5143501727655666
Ni 5.535803507015677 6.811200917760429 0.8849279830285103 -0.2009671932781184 1.51958264635457 0.45798597813416614
Ni 7.972707217624908 3.1772645679988756 7.544084038974881 1.6471253039939504 0.49256294477808715 -0.07094753485315523
Ni 7.2496977098719855 0.6503525614602952 3.7353950722022247 -0.6905641134493462 1.6991443773737187 0.9055751864150404
Ni 0.2892971489694682 4.614415726016334 6.136444817828994 0.519063562171777 -0.152703216065408 -0.047277702040041156
Ni 0.41536623504045117 0.9431044227123913 4.296800918196177 -0.27018694680688954 0.7230839404539224 -1.1441360216762166
Ni 8.624160711237787 4.297964080927626 12.710357792907113 -0.11982831971425814 0.703698336838459 0.3072491417665095
Ni 4.749410324376713 0.14375995842475217 7.1598568874122295 -0.740042422685132 1.3123440182454431 -0.3936186676016898
Ni 1.9993952865149571 4.524895208006625 10.618086112901548 -0.021906827375420334 -0.06091431898686928 -0.2215671289166571
Ni 1.1980484618367513 2.464257710643071 6.30322917527855 -1.0899559360893873 -0.49672530368589296 -1.0036046650866521
Ni 6.84987539221443 4.504359116980885 10.908191344240699 0.7813873041805058 0.26721063778738496 -1.3696132842805573
Ni 3.0647827966988 4.093564084020361 2.848402498204282 -1.1324729835159915 1.1435798920624305 1.2180953467725022
Ni 2.6050543953271212 5.696330945822497 12.518150413679702 0.6041256820494435 1.4977889475182464 0.12322706098316195
Ni 3.693595341471357 3.384089727170766 12.647150743046382 -1.1246524590303084 1.40972429336883 0.17714540826817235
Ni 2.6962038902542025 6.0419028411981515 8.74280056437887 0.03131115140845575 -0.1974625225589696 1.766914542940157
Ni 4.819538695825129 2.427569123779349 10.892466226054637 0.4808739384759332 -0.7731595169540749 -0.5059632773443931
P 5.769104116872713 8.485578703036904 12.389124459957019 0.5285398770933285 0.28045541861243306 1.2072802584348692
P 6.290221153984438 7.888732542378834 7.832140236989319 1.5127070022806595 0.5216817165209144 0.007759075120128572
P 1.9544611479515064 8.293569912568522 13.11680583690274 -0.06513247083327492 0.4490837905485298 -1.0524620529089874
P 3.5510781643127793 1.2547057432718476 1.775176680550053 0.4300002915545175 2.5789090304835587 -1.7375995960261237
P 6.151254780443502 3.3009752981619562 12.55257399050382 -0.5118747577328217 0.23094471347681517 1.545550016952609
P 0.9281782353402959 3.5301027986126923 3.860015467003433 0.5742353222479143 0.25078077436613583 -0.21683321377609752
P 8.227843439419296 1.7012284497459582 5.785287728000127 -0.9611467530327575 -0.6483856803090834 1.0225441823036325
P 1.529874720527618 8.019160514437143 3.9242676245268813 0.07277456075956498 -0.2681773725760284 -0.22823219964165856
