# total energy = -340865.0774909528 ev
CRYSTAL
PRIMVEC
9.32739118891254 0.00000000000000 0.00000000000000

0.00000000000000 9.32739118891254 0.00000000000000

0.00000000000000 0.00000000000000 13.65157983212666

PRIMCOORD
 96 1
Ni 0.7128029700934534 5.077523991249234 3.880038058803396 -0.6292954964468517 1.5421746727224732 0.7030110809634473
Ni 3.460256950229639 9.424023020863821 7.007001203062963 -0.015562373214631263 -0.2684581370412409 -0.3873577742936426
Ni 2.2278380720835176 2.3448875048488884 12.337778790508883 -0.4910966446452058 1.1410273008439058 -0.21087391086886906
Ni 0.3609084804975377 8.399726223624045 7.638509429260237 0.4417890566593295 0.694676592955823 -0.1449595675642471
Ni 3.8416073413852843 2.0760907438773004 5.543947652495436 -1.0657500282671453 0.18546601231872575 -1.0120569096190635
Ni 8.891083867153167 7.974434492301242 1.4738658625016752 1.1003177389396857 0.017322293328531455 -1.0242732491795974
Ni 7.101521255009027 4.237340569844635 11.807292740696335 0.0026214967832470983 -2.064703053514399 0.6874204256140419
Ni 9.06055323872971 7.502906882564386 10.543661613218571 -0.15847662821407546 -0.8215093690123723 0.023160497276863336
Ni 6.8818611911294765 7.986877232225459 5.548575904032464 0.9503697170219118 -2.2964946883725417 -0.07763471706534371
Ni 2.4822519957513998 3.1368389861124615 1.5972215444895073 -1.8885650034648183 2.076974414682584 -0.6850547535953427
Ni 8.337894947044106 6.630478669617044 7.702658562565189 -0.9988951754261247 0.09896098934694571 -0.46812949432607115
Ni 6.480475563574117 6.209244353486921 9.030984475735885 -1.5173463008248835 -0.47407517038654484 0.8912595411233166
Ni 6.20545743264042 3.776987174822332 9.401228742133084 1.0480073595717434 0.36758007744608306 0.6681780324446621
Ni 2.453766142881415 4.472875853627498 5.357822358368162 0.03786643602847027 -0.9112614381665403 0.053254745559082474
Ni 3.0715565747709337 5.514633527282669 9.846120120684342 -2.0280218960432816 0.8218922062730877 -1.8582720089082316
Ni 3.0592537457154294 7.324679090606405 3.7437005136772386 -0.7345536316564188 1.3588822710162984 -0.3769664037569895
Ni 8.795468779474643 5.081049745140804 10.0628112759298 -2.8643428761471896 -0.4445563349918214 0.16782438797756255
Ni 6.878643241149075 6.368369648169942 11.485798084654398 0.4876603652701473 2.795132121479483 -0.8727278008677164
Ni 0.1474408716672282 3.19567617010194 8.275355721468479 -0.4277564898256633 0.0005347894575474661 0.5227039871378417
Ni 7.382229094603723 2.0282225719949287 7.3790885619706765 0.02867397089592481 1.6460495544312685 0.3049670306005522
Ni 5.68660263971355 4.628643287461404 2.3596210520635017 -0.38177488088922634 -1.2495216836025835 -0.4159427850201869
Ni 8.72618491728792 1.2824043678416852 1.6092212333294666 -0.9678187657362946 -1.5196140138131378 -0.23886473965484023
Ni 2.5242905481040596 8.240871423287201 1.2414319363086193 -0.9518771548053736 -0.09345162949294228 0.48091507612651374
Ni 4.8092029272312695 5.681519211483643 11.031159582249462 0.9286498088463169 -1.0459607614553599 0.7376525822967166
P 0.9934977513404024 7.869333447723968 3.059510248974737 2.058445245530145 0.4173800316873458 0.01438532218739458
P 1.27351536398278 1.79070055387634 0.5067478390875634 -1.3290284208796594 -0.6436643635740141 -2.2810986655324452
P 8.513082009455388 6.39938322406801 5.369958227120335 0.35892291599171733 -0.46896356019159235 0.26827301761362826
P 4.460134637183359 4.0576297226782945 5.963310893941302 1.3520781036102714 1.3497754236190238 0.3897645839629223
P 3.6511047025455414 8.58976249290141 13.11283370252754 -0.3284319464917118 1.1580004383631346 -0.5100145645956313
P 1.2407668933126696 5.018332366392349 1.8556182642200891 -1.3478491531305883 -0.8068198853209976 -0.6152642151647661
P 4.6715679419825795 8.307851419835782 5.354613735779009 -1.203021483158515 -0.9045673139758164 -0.8032663636417844
P 1.63225615875439 0.8737694918087384 8.33196832264542 1.3352975417178228 -0.5058046402793418 -3.686122982322445
Ni 1.4416042816546861 7.101819731528948 12.56634744576896 -0.17872509405046638 0.9132710123974013 0.04569621648553421
Ni 8.411926451375825 5.415026316150197 1.887617745373022 0.003962069971541564 0.3390351759288548 -1.9202908738131894
Ni 6.675175528475252 0.46932261444593665 4.01443830476744 2.238930516804828 -0.1545641805335467 -3.9212269693832726
Ni 7.108992495398306 7.847050310033597 13.519596571137107 0.18861844190477836 0.14066376840237066 0.059532608147994256
Ni 2.765217064028 5.786648238234657 0.7607345682363084 1.2799853994090795 0.9763489146944927 -2.5553692954904057
Ni 2.4269405656534917 1.8501533456881558 9.928630223660074 1.2913810428405308 0.07636150677987494 0.8845841859856701
Ni 1.270567908348558 7.567312519128645 5.401260952147078 -0.28109896573370297 -0.6891986005603873 -0.2639869886437647
Ni 0.9726603592933997 4.750990678455377 13.019416148226936 -0.5643484021515055 -0.4588064171529324 0.19275817510476478
Ni 4.742857193287524 6.7615285166449715 13.095606010893336 -0.3916016371716611 0.644920090357986 0.39108767364971997
Ni 4.871649811633546 2.094036644637566 7.567589542648697 0.8020733717749478 0.19256919902241026 0.3746359558516
Ni 5.789343854305196 1.618321036230566 2.2212762523408736 0.033943189714664125 1.3225425560449997 -0.6167857940156152
Ni 3.2932220277687057 6.5437432584061765 6.225885352211656 0.6652343764353059 0.5016636215277747 -1.0355305672609714
Ni 6.0189096076896345 5.967814158435615 6.653984628299968 0.012126865170521051 -0.717124637546694 -0.5728119595378264
Ni 1.5365944341196265 1.1818177806282213 2.4085348245047222 0.8930166330237393 -1.7750785668081879 2.2347828131850416
Ni 4.88455892112014 8.710897323033203 1.7563030004336646 -0.350742437063454 -1.1675338317748667 -0.9813216853187356
Ni 1.407876434903584 3.9484712629083423 10.359678820860859 0.37449943027373567 -0.6478732594490391 0.9447932513753986
Ni 5.772246746148457 8.42404273260638 7.889479680079528 -0.8959893424988182 -0.7230623431873676 -2.6599034080497543
Ni 9.33821102138646 0.3251136838459808 12.956850805955817 0.26280196719672805 -0.9183278580950185 -0.1654720856953021
Ni 5.983017806169102 0.6298031790772247 5.888786903351712 -2.0448281689673427 2.007542545143007 4.169812021649671
Ni 3.5566182292079684 1.291983598652908 0.5163998235505171 0.33911899389191275 -1.2155890354108807 0.2740662272566377
Ni 7.254537108424909 3.469481740173456 0.7253305892780234 -0.3450129907788445 -0.932021553532027 0.4389294757233473
Ni 4.55709286920153 0.2079075509076513 9.394157646828326 -0.11810773747872563 0.1899163347805955 0.09578182028801568
Ni 4.9241257147922015 6.120317005332882 4.150981052501042 -0.3034680774575225 0.9441749010651095 0.9120175996062744
Ni 2.604757952396581 3.390814522391709 7.740677942029284 -0.6413755675398373 -0.6536582415619323 -0.2289446523276509
P 4.054318498785419 2.77772509569095 2.813153325866479 1.0410514970792006 -0.4940117614094718 1.1492041802277435
P 5.430631041707329 7.851051760878792 10.658416507737048 0.6624128478261108 0.21007918288171565 0.3351224711380099
P 8.595592112431122 6.260936755780784 12.623288371117814 1.2263401032797978 -0.06655969019810472 0.9019373325521369
P 1.6511534534219046 2.3740822394536862 5.514309866806379 0.3402896171612462 0.2295144087881918 -1.1417886044899626
P 2.9896247700525485 4.627962387900334 11.989923061323154 -0.6756314033989138 -0.1675330819893889 -0.1432587828230565
P 7.030213348921589 8.92204147870375 1.8710037960829051 0.03522462753024901 0.007536417586361214 1.059893312376052
P 5.896357014088215 2.5932852611621082 12.868948538099879 0.23225031966211615 0.0022556288033961157 -0.5390477186031878
P 1.0116954916643517 6.088137505528871 9.189833679637978 1.4285524818189268 0.9660511323129105 -1.2328938452379155
Ni 6.550104539236997 5.6105564188723624 0.2709373972628982 0.3485096910781933 -0.1612631898202771 0.11046770443496459
Ni 6.925979751730337 0.9858679452999153 0.17799460717679272 -0.053515969640269126 0.23033227670379686 0.20780272814271306
Ni 4.600474565893835 4.59147363333996 8.0793051503147 -0.8000889943550672 0.5851316574454439 -0.32573434505489063
Ni 7.83570820227659 6.940092094687865 3.3075321114206804 -1.2607885147656546 0.5570058457435052 0.8135114384085601
Ni 0.1991453995697129 1.334889598391589 6.5835702862940435 0.3294323627317681 -0.7668518295684923 0.45271495954321395
Ni 6.885918606322155 1.5749766491032509 9.687256925695378 -1.5979125897147255 -3.018296162569615 -0.8113193158532479
Ni 4.398284705820926 1.3488713578716502 11.757832383128006 0.27821830175179824 -0.2855186920679535 -0.1462824001407287
Ni 9.082827049028833 3.3450729957137764 2.3442765607221747 2.2280439517993114 -0.31930067361440495 0.5473516104831928
Ni 1.0781438269118218 5.837016150971371 6.949023071807383 0.1494335441752007 -0.830360391645099 0.5088516546357816
Ni 8.704041690466262 2.595048138107893 12.716351484551012 0.5961832872739152 -0.04087719783033605 -0.5573393178235241
Ni 8.876840940718175 8.693175279662878 4.279388449588542 -0.2938220697273262 0.5293608303327271 1.1225793785513636
Ni 6.332720358821847 2.9844014309539264 5.437751572185701 -0.094146855787754 0.13166285045534096 -0.5222630429456812
Ni 0.2274260498322521 0.6375775596820488 9.729440052612373 -3.1333126627175263 0.7170045670290619 0.9458250350740227
Ni 3.1559694655611645 5.0310829102277355 2.8901891829190305 0.8653983570858386 -0.7020026943035911 1.5581250254041423
Ni 2.3668535112368434 7.984386818762365 8.589929453204741 0.8404092912406689 -1.4902810691769752 -0.033400944057948925
Ni 2.108148987595093 0.32173996643174585 4.601060326064181 -1.010200573136615 0.5316390848439425 0.8480174426052298
Ni 9.219501312979027 3.6386526352300765 5.589584712391395 -0.7126429476262565 0.4677057765250913 0.9947297311945256
Ni 4.254381713653889 0.5814126732849908 3.783275702001423 -0.005721218754493372 -0.10338971454226065 -0.6978287654315595
Ni 6.789641273865056 5.09436925984229 4.370075876470993 2.8118985423045446 -1.1794763488487234 0.9384408267948096
Ni 9.013972246839497 1.5503896457747373 4.165547639412325 0.17657359492510236 1.9617799941959118 -0.2453830003893322
Ni 4.162646820734341 3.590047599439149 13.622106466425812 0.4707041970317829 0.9524394550667468 -0.4860961061068209
Ni 7.175813926295677 8.439619475989769 9.542522862968184 1.8442756946291399 0.9648002906249449 0.76098508637507
Ni 3.2890526838810556 8.134333960457807 10.686143110959481 -0.8572590158081559 -0.37179668663059195 2.8508924070692383
Ni 6.685183819283862 0.08760938777076252 11.813421769485092 -0.37676662904135755 -0.3184614655425612 -2.027354694772928
P 7.804694626378521 9.313978458925352 7.271445803278449 -1.1346147124493429 -1.0421185048911343 0.0983521521183532
P 4.589841339871641 2.259877661018815 9.653673653508612 0.1646878992311099 1.755071527558642 1.0831008608407668
P 7.175711324991955 3.126056521830306 3.1309897790611294 -0.3966356000511427 -0.3281738077343187 0.9960348231591943
P 8.212087093897296 2.7992806968640136 10.463212863708543 2.4656300818520442 2.0367590188059634 1.1489231586522146
P 1.1649072202964326 8.892016606277922 11.21126404532645 1.708182062095955 -0.07207984868538553 1.3311822339978687
P 4.291775225165274 6.773952601786694 8.034637206369359 0.2114691212507068 0.11851731421231848 1.5528023276396483
P 4.744694689363288 6.436310366017018 1.7530402789752755 -0.6469286361475826 0.6413675971200373 0.16352961725695064
P 7.755287434940305 4.596958139393513 7.8188741265530295 -0.4768118525914176 -1.1862362932803763 0.08888894982292433
