# total energy = -340889.4304911913 ev
CRYSTAL
PRIMVEC
9.04308659527999 0.00000000000000 0.00000000000000

0.00000000000000 9.04308659527999 0.00000000000000

0.00000000000000 0.00000000000000 13.23547132139248

PRIMCOORD
 96 1
Ni 6.507911500655997 1.9088870555521986 11.241203173443564 -0.2646639601061313 0.8354439768155933 0.5426066395990398
Ni 4.634726550838469 0.3133755043786652 6.080137334072196 0.02379813086086224 0.04962074835092099 -0.6247089055174339
Ni 2.777104752988865 1.678053228048857 4.862010966867429 0.44529706981258793 0.057553372934436374 -1.0190557095343997
Ni 3.4550649523121253 4.287526285494768 4.588208913579314 -0.4199277378098639 0.4712924654350851 0.43049497180274887
Ni 5.398984925193633 4.782183120268442 2.4711952208732555 -0.9762152173301057 -1.7082872202152513 -0.28330522935640245
Ni 7.272884278849317 6.329581833713824 2.5394497252941193 0.028069504542706493 -0.1399970813526492 -0.7569605385967093
Ni 5.19021622889409 4.261771574974925 11.198823652593775 -1.4145317420598027 0.8886511569661921 1.3239540916805457
Ni 5.812272067110022 7.732725230371097 12.573115081584772 -1.333300308782136 0.35339555841558495 -0.4561000739653629
Ni 1.6262182558930487 6.148186560428173 0.47432074171994376 1.4885324619169849 1.4103169326475067 -0.7336002666042141
Ni 2.5524202243455982 1.660310692220229 0.4358442170289926 0.25943150806259835 -2.49373352495648 1.2291896569134508
Ni 0.4430271406827536 0.31972646406900435 4.9011078472963225 0.037891375729134744 -0.9325334601714391 -0.033991783564412424
Ni 8.884516036122806 2.3208900791772185 1.3730082150082816 -1.1959154682413533 -0.1961764567576944 0.4140663939330804
Ni 6.6891801707298235 0.8566479724931666 4.803351177285594 0.7853352330846605 -0.6254475834556712 -0.3770360806526603
Ni 0.7659684220234589 7.359372358698959 2.464723083823027 1.4678335388067365 -0.9587430286872715 0.027257293054056282
Ni 7.507516202707412 3.7759136634230934 3.89218153161996 0.2845069629739874 0.21099758093092696 -0.40681151214287997
Ni 7.84820544572868 3.7496344538828317 12.447629595258384 -0.08407018827804232 -0.016976479953338505 -0.4463103415684507
Ni 7.924013640352221 9.081700538540355 6.851738694713216 -0.6836262486789323 -0.8332703662030424 -0.06183451680829351
Ni 6.738654897293749 0.7421046209030887 0.20512342810763742 0.5836789841593174 0.3197215632019074 1.0566629783642123
Ni 2.064491445971771 6.644606797080839 9.304046524999482 0.07194589421068254 -0.43477328746312865 -1.6182333035499485
Ni 8.866357518312467 4.992452968936768 1.3239702695251516 -0.2851175999747928 -1.419438949553433 0.28176153901836637
Ni 6.377103253581021 1.9356817210263193 7.244647241069047 -0.6580676834835376 1.7133463799057136 -1.0335621306806908
Ni 3.339295358184656 4.306616241220677 0.7945454798583453 0.7989445963379789 0.03745788773614194 -0.9286984026960651
Ni 6.125732576502341 5.649559810655128 4.43989144230893 -0.5693435413732517 1.1346517363348652 2.35774710742512
Ni 4.95342300734841 2.826950246101708 9.323370696667267 1.107940802702582 -0.28068630367631664 -0.01260071948314604
P 0.19982508369275814 5.522142721039751 12.255304847557605 -0.21183961721624808 0.3877056445513645 0.6809250476976854
P 4.119053582901833 5.82068213760983 12.608890436320568 1.192378144512056 1.048638565397839 0.5523302946447068
P 2.4474842479157317 8.312821146953576 1.4112450979054207 -1.67005491620693 -0.24976544572774406 -0.5410482939729843
P 6.38007842905891 7.79604492245675 5.743148522070844 0.3817512267401425 -0.22388652107845314 0.0006846847718504337
P 4.610156484657846 0.9280829304568076 12.8623636310242 0.2783232027607787 0.5532047268298602 -2.5236218278754796
P 4.17929862555745 6.148792447227621 8.391699469463875 -1.119129729439866 1.0448035079224651 -0.2890696426440054
P 4.706555787376079 1.021877824246068 3.9694501847227692 0.03726891165378743 0.6584106686452532 -2.6017751364484547
P 0.08429513135910056 5.451896024649954 3.5365042769359145 0.21199671161940264 -1.0770019470318806 0.45045316009223063
Ni 1.34243715658715 0.9916196566198758 2.809943817518977 0.620366569388338 0.18069687306485652 -1.2599953294403978
Ni 1.6869425821362887 6.503028233914173 4.555146484811196 1.353354913440166 0.5303964706860931 1.4911385320812642
Ni 6.144632627410512 5.443956194651211 9.182320249755643 -0.0693447091424096 1.037341138107149 -0.18694542507772965
Ni 8.81044411411858 2.544851160895771 10.060003345893547 -1.5287072343636576 -0.8303966441996731 2.1013780403379294
Ni 2.5525920429902182 5.273304108197572 7.064181597081654 -2.5574639732359055 -0.2974583809283329 -0.3297362671254321
Ni 0.628645535391427 9.321523194083278 9.031752858549398 0.40675263388048655 -0.16741789656776326 0.12804273720425044
Ni 1.4008735819309797 1.1250323126238249 11.552157843550404 0.4428162123722632 -0.5802550460794329 -1.1704126959845584
Ni 4.183539833153589 6.727884581202059 1.4900890566867961 -0.2311329182282213 0.2288901449406316 0.06427115127424415
Ni 5.365498375665902 7.873643648218961 7.754265862554477 2.1719188266709692 -0.97012890192671 1.5100865339386766
Ni 5.116560288871574 2.738101920660184 5.150742251755688 -0.24741700010022552 0.35122014803082097 0.13029039558784658
Ni 0.7249616417133181 7.742238557431095 6.779380437611908 0.8138155999125405 -1.4594527709422092 0.39978880096814373
Ni 4.755216636149701 4.596175872837734 7.111974309545619 1.3981743837477016 -1.7561408493634205 0.03613299827713132
Ni 8.176261496827118 7.541427777303413 8.98054547660078 -0.967505862481566 -0.35693159659330137 0.5811598172818894
Ni 4.675854508508499 0.42336566188631997 10.62464191462084 0.032931717731014255 -0.9429590263801374 0.4522285068250986
Ni 8.27462314932864 7.105297798739158 4.596057408403812 -0.46290552692297054 1.016262977280611 1.2163621661314792
Ni 7.1291625041681845 6.082407148798489 6.95833769476127 -0.22481108977525152 0.06579093035288025 -0.2631423812552823
Ni 2.1576171513556703 5.084999916780896 2.616414530688549 -0.2992931201442265 0.3650416272949455 0.7114846656520972
Ni 2.520796550649007 5.004905299128421 11.61611145600384 -0.7151117208817231 0.41389644401411946 -1.3412535021909417
Ni 0.9886173518823099 3.219221254855134 3.969833611592868 -0.13289312331801628 0.7212923957711384 0.21530803538082274
Ni 3.924084636691222 2.610594400179219 2.4167305191461095 -0.2671931542858882 -0.28836978836350335 1.1359812537795664
Ni 1.129544812816733 3.4253041544466747 8.465725271726651 1.4588207937851652 0.1644297604737168 -2.6905866960662244
Ni 3.635854338798328 2.4078031840951306 7.275458845592646 0.1533696460048133 0.9043078896668425 -0.22260045527717792
Ni 4.173800428929618 6.61958457657227 6.010611371681147 0.1733355476037789 1.411854966558588 -1.415294845478072
Ni 0.592161202669409 7.635295015785144 11.45144860577818 0.9721590449828612 -1.2233987612632866 -0.1639690187872144
P 0.04085937799923018 5.887953658521738 8.088567069230514 1.136890395857397 -0.5912953630539945 -1.800675441440686
P 8.459897906748074 1.7794804868938574 8.025685062534313 0.4637231377282594 0.45192305976953784 -0.5678476735540156
P 1.8303840211340952 3.055839809994879 10.420657011110972 0.9550200713097295 0.41124152288977556 1.2637591673582043
P 4.0590255743236305 6.250084059774238 3.7291735662345884 -0.8045951097555368 -0.4975585982204656 -0.21992085156248575
P 6.997676025601288 3.81452764302974 10.320822239808999 0.5939564548259255 0.24472274109751402 -0.8012315925999426
P 6.323658612017724 7.872323357581355 10.239582767398163 -0.47991491699677347 -1.2540000310889112 0.2845136478422068
P 2.57097663796453 8.626109837701275 5.6607316397900345 -1.5969563964490432 -1.3616852876827323 -0.4376259264205753
P 7.074442787400076 3.696162683059857 1.2935981590083168 -1.6748394820797674 0.46168168181819846 0.8076953459474154
Ni 5.2145692609972984 2.9583734230626915 0.15457709578647746 1.3129405141788615 0.1018730207874181 0.7391695331618754
Ni 1.6464838128716195 1.1255477685576842 6.862962069441509 -1.786349511736317 0.8924301643926501 1.4032183739295123
Ni 6.878253024504009 0.616475349500414 9.11205275426676 -0.2490347382093066 0.026043475251613213 0.5507012436817161
Ni 2.88459992291491 1.3750193974589882 9.387298084169682 -0.7570546409724123 -0.026534041734786563 -0.2135717694160064
Ni 6.355553578311082 1.9189791401519687 2.421932102534808 0.42932511986436384 -0.1661979081177331 0.3084771006363397
Ni 4.308008876550753 6.7363217809615445 10.512405454411947 0.31666477865345466 0.5566579754857833 0.3091964953008675
Ni 8.20736067150329 7.137563531581433 0.3385433185808336 -1.0946672255221277 -0.35658398344589554 -0.45044081879705655
Ni 7.908233454306882 3.960844783553288 8.18748939309869 -1.5932925744442108 0.01266448284154593 -0.2455231255116223
Ni 3.072578563215465 7.973325591358087 12.45284474327692 0.2291986773199859 0.4010206164927158 -0.00295111220852395
Ni 0.40982725699894035 5.324451805774901 10.13621395786896 -0.9540080851054474 -1.383008731750857 0.2047516000212151
Ni 8.273637452893716 2.237738898267823 5.802549844750511 1.0656638963112421 1.6453800391680695 0.44944194521889697
Ni 3.4948816624311103 2.539217317969555 11.808608022349235 0.5687048793479883 0.5871085786661566 -1.9407159744367606
Ni 1.307404239257841 3.446094210445663 12.810453601249955 -1.3587516589757052 -0.11912152345522066 -0.13059944218783312
Ni 3.071791814684838 8.43634970934861 7.726934037738756 -0.37744822848941445 -0.7594640217448534 1.4663916641538874
Ni 5.611379899203309 8.018559110325873 3.679593035557923 -0.23543231693452354 -0.6586898904485688 -0.6262667369228568
Ni 3.1458999090352995 8.53457571555175 3.5285237530476556 -0.20140942302185957 -1.152449940858551 0.610331296639523
Ni 3.180489715123221 4.449623612063655 9.33087464989387 0.4818489007946928 -0.6242887872608797 0.047543554106918115
Ni 7.192681144158134 6.1354448514666355 11.447597155212732 0.7437460967889643 -0.6350264853933579 -0.8657315720555413
Ni 0.5274452580190557 -0.1325381895337001 0.37120423430573446 1.2328732764126251 1.0994661895726678 0.168643027224116
Ni 4.353206223172304 0.1815273023494117 1.5281803458903367 1.398034515735728 0.2497127381129377 1.2292529060512185
Ni 6.079251111589421 5.502374533821921 0.3012423951425438 0.44096681786835024 -0.3921775642797891 -0.0817112011275625
Ni 7.840717770057883 9.017919649040197 11.25175193391456 0.8117718300096342 -0.1064038187782361 0.6224393927569668
Ni 9.06334307282572 4.730402406631987 6.098733537271989 0.7499591675782117 -0.01797998151718839 -0.48862427184531326
Ni 8.167471616691834 8.741119812557795 2.426287253021591 -2.062860343878705 2.110662550963649 0.3989411082558678
P 8.36919574856197 1.7154554340566068 3.56071261965418 -0.2638085540843715 -0.8345700588510724 0.20142510675114342
P 1.802178634156781 3.0576665134797834 1.8194672070401505 0.6730379316401247 0.768888914603179 0.9376710385083206
P 4.848125307456186 0.8624518254466903 8.294378676225287 -1.0479415393308145 0.24610805148081485 0.6538284485912094
P 8.673604128308796 1.642821362815251 12.553646220532043 -1.1999880956488302 -0.05648430823997369 -0.718586309693885
P 6.313557484331394 7.978000867109055 1.498493701334669 0.31354628762913095 -0.33159414626977735 -0.4120498777236839
P 1.9513805192926283 3.2632882156568184 6.133912952603552 -0.689974045273831 1.2448142508245852 -0.31367278590466624
P 6.477535772904538 4.116675251136833 5.967755280169704 2.5919563505858196 -0.1806899310863211 0.5179191641546887
P 2.295144411743934 8.404282924410632 10.252686199822058 1.0253423138740598 1.8903971715775507 1.4129093759650313
