# total energy = -340852.8101833162 ev
CRYSTAL
PRIMVEC
9.43235263147429 0.00000000000000 0.00000000000000
0.00000000000000 9.43235263147429 0.00000000000000
0.00000000000000 0.00000000000000 13.80520151297254
PRIMCOORD
 96 1
Ni 5.282655037630464 2.8058796241526927 11.530476486878031 0.8016465686501741 -0.7253064020265381 0.14418206596827426
Ni 2.2515214037008144 7.123614434566 3.3200682850619585 0.14337602512721115 -1.4620189890074886 -3.9705795516744717
Ni 6.02288719621997 0.6214816704655192 6.869965270857778 1.382482941154374 -0.751631413074312 1.2083261832008803
Ni 7.433995425551325 0.09810967117348682 9.21800888080827 0.7372098383323433 -1.0697169833346931 -0.24162610445006127
Ni 2.1702050928977847 0.5826118890958168 6.855579990077624 -0.35704883889745603 1.0099858860226476 -0.4586158984086811
Ni 4.749604501450021 1.6741199461196237 2.987873092476568 -0.7968128947069567 -0.9467169507606729 1.8693578344087485
Ni 1.1553971533691543 3.6528765805590986 0.8610304104387398 -0.07901488524232197 0.4049837149055219 0.5920517816040448
Ni 5.926035800868445 1.712056867828217 9.146207927195602 -0.9765592309330858 0.6623552551152979 1.004670130236689
Ni 3.436121120374246 2.2151502525053055 8.801437522272595 -0.43733307777050484 0.7089094487257533 0.7439659261092543
Ni 7.891587141824074 6.690339323008506 12.242521946526269 -1.0372681187773685 1.9238022294005577 3.8250317157069222
Ni 3.847701821208278 3.533066839250657 4.586350287814972 0.256481681405655 0.2721502411808474 -0.17433262140972558
Ni 4.783042191021618 7.559172175425702 12.592773491480322 0.8056474622794512 -0.4441292747567318 0.7918223834709008
Ni 6.513793981481966 3.741021914563775 5.434900752676228 -0.7010246466610378 -1.230753658966461 0.4534970891248771
Ni 8.84314172556508 9.422420221291473 3.668414494813342 -0.32068367000486064 0.21388544400168324 0.761764901963888
Ni 0.7698601209910144 3.5514599266031572 10.571802363478735 -0.3649740072818037 1.5437895826180765 1.4724957201690962
Ni 8.749469033002166 1.2882801352266045 7.397986476691373 0.32051911940253835 -0.42416620137124367 1.2882005882300203
Ni 2.5330488284239343 7.802526869628016 5.1729605511306485 -0.7820820162546854 0.18001938738185772 4.476491406955638
Ni 7.819882398206786 1.9394425892675662 11.596354866363196 -1.1501539457355223 0.6418460794183527 1.392644197958092
Ni 2.7030952790859244 0.0860447491054953 3.389978052000691 -0.5707303944184493 0.24908950270664196 -0.04655470783108757
Ni 7.630037439671516 1.2762350210988387 5.393084304389131 0.8572037370901883 0.8232088682019822 -0.2794457464009962
Ni 5.3684139864555585 3.3940716929806833 7.6675329272836485 0.35672642256103076 -0.591798013722026 -1.8964264084907663
Ni 6.847171047834161 9.254392294062015 12.341270187963223 0.27679211082823296 -0.22163989113612154 -0.1013703701193867
Ni 2.1130073074077522 4.707555074056457 12.514829246691919 0.14140578877471777 -0.16960384847548854 0.41643000906925054
Ni 8.32643745624714 5.1030536138976625 5.283098358197422 0.03587974461574466 -0.3084153941604688 1.0752404842560837
P 3.941383946123681 9.010264146955645 0.7722880085215446 -0.6916925706268345 -0.1543132408650052 -0.9482675830772445
P 9.520544984228941 3.416690474248015 3.166056833630354 0.3319664420075315 0.30107952262068793 -1.302730663525395
P 1.0059320958369882 5.997882029773058 1.9942851163412298 0.7751451799255361 -0.6998763919892076 -0.11169720596669151
P 9.286405698407854 5.7705246053911745 11.00100552846696 0.8170225368856122 -0.7852025641615381 -2.359637639579614
P 6.058315112166633 3.9370356316265 9.664276114683371 -1.2389580491541243 -0.0411852159890581 1.9056497268612471
P 7.862497766749657 6.796142020871582 0.9538815450999093 -0.4348985001870833 -0.28193200315795963 -1.4400088032849845
P 6.391767637338735 0.761633223150578 3.8273958527711174 0.540343811706792 -1.974914988915973 0.4980260247751875
P 6.631292796430736 2.744588197682668 13.732171488558548 0.93522643362257 1.7128193037576502 -0.685673103905632
Ni 2.7947966099787496 4.952899994633839 7.587104200849783 0.06477097372879813 -1.347708513787666 -1.4255442911202223
Ni 5.427620863025633 7.6209257871676614 8.903774773831408 -0.34097944413941916 0.9785191828729343 -0.45390718007910213
Ni 0.4317517866306073 3.0976128542683283 5.291754428076082 -0.16808484072780086 -0.2770991005456905 1.056904404951057
Ni 1.71375469127614 9.172585500929586 1.026941717769788 1.4822615413066087 0.6665700645275939 -0.06748888688059344
Ni 2.9407622647376965 4.708130447558254 2.7514596664705118 -2.032318980756739 -0.5922230170745865 -1.7730317115814884
Ni 6.7560922522055735 1.3849900452908033 1.7953662347120585 1.635135992842558 -0.24558277510496418 -1.6060167068790987
Ni 3.056553823886054 7.982373534525519 10.144572446631097 0.6643681717802687 -0.6592182521482131 1.2095744537856845
Ni 4.86698069581644 5.064965774549253 11.967949938528141 -1.311256184497903 0.07199011718505667 0.3044903480744498
Ni 6.5550605236189865 6.0046733235647505 10.66398002817223 -0.894661367716014 -0.11721247935796587 -0.576172134259311
Ni 7.1275382932012 6.031885660493963 8.480024451816764 1.1028572175320877 -0.351340218548453 -1.5358353607680064
Ni 5.700979870493746 6.591224163059749 1.3467135588926251 -0.22909094809752803 -1.0854251380985693 0.8533535101061626
Ni 4.475519202840297 0.3440148734886819 11.999908635229549 -0.7158223737955027 0.6328618736418713 -1.7890378572017578
Ni 7.2707874304434705 7.805620681244232 4.206196299001998 -0.13985901311288818 1.4292572211954353 -1.0619136852401905
Ni 6.132972182112808 6.319704464326888 5.306636793832378 -1.6556973619336777 -0.8555065518934233 3.0199712362791926
Ni 0.24763509576157902 8.70675934093441 6.387541943423905 0.46819120080194204 1.0437948641522927 -2.6283498016131897
Ni 8.961649802230113 7.54550469666992 8.009142550887773 -0.26657274709306994 -0.8790167192002216 1.8803382446796517
Ni 1.5985950997445098 5.9288089125000525 9.21432271745578 -1.558028094814962 1.4594797675254025 1.7157053670561935
Ni 1.0058849340745457 2.6981810234394352 8.495858541939144 0.009253143167151806 -1.5410109914316752 -4.3451643425731614e-05
Ni 3.2431257561078293 7.374175446069501 7.876501980489276 1.0394165325789388 -0.12816794992820507 -0.9713751156289852
Ni 5.094017420213716 1.3719828312092146 0.132417966879769 -0.47100115944691145 -0.5454291966494994 0.39904729481642887
Ni 2.837204466766874 1.4382922692031013 13.38319048148469 -1.443461023499643 -0.6263284433987278 0.4560998168550467
Ni 4.512031839323132 8.24985618639332 2.653290571476348 0.8037885546938416 0.06269017994036945 1.5161386536700276
Ni 4.287598444212672 1.7003135889800822 5.921313021977472 -1.1907915167512266 1.942159648861823 -0.1608628690580649
Ni 8.030742638086352 3.42039738877598 9.642726018952983 0.7567736193968838 -0.01293624844569385 -1.1926853913398296
P 1.689032495403882 8.60679526926169 8.433845540503754 -2.437877594329124 -0.2655149952525169 1.2292493065067926
P -0.20064783184030646 1.5240606503806846 10.152275848908422 0.767599249257478 -1.2530816330397 -1.866046253537012
P 6.809941552562202 8.042995263968862 7.183991866079893 1.2717321582613517 -0.9350562265932929 -0.001099660822081977
P 0.6096582166212323 6.5800562577134105 5.777960128857829 -0.4374346363453757 0.32371551485264893 3.0117673603121617
P 3.6253341112927906 4.404210618027526 0.49756696935409855 -0.1743416202707901 0.07041197406465939 0.48983474721364667
P 6.924959658806506 5.634840214844651 3.489264880764738 -0.9265882983315978 0.4306034723561551 1.3325510893209371
P 3.076729625858874 6.507106443567647 11.990079180701322 0.3820659297670839 0.6574382774296549 -0.5022305497748383
P 8.149929844130554 0.033931944841992565 0.1008441101598919 2.219309400139791 1.137400759834912 2.0462191357775987
Ni 8.642958908702454 7.943314162870798 10.508919699143908 -0.022670702124638377 -0.04880853686227078 -0.8838115694857036
Ni 4.772534550349471 5.662194037061191 3.4340026140053377 0.5402682212738502 0.7131707951052686 0.6402026302776587
Ni 6.6337640727827125 8.571952159169314 1.443236708377553 0.664406738327688 0.46763250008499463 0.06743309394199355
Ni 2.18452340397527 0.6734633650294323 10.607005789436172 -0.846965861412264 -0.792266670097171 -1.621581136976259
Ni 8.122245889576918 4.413661835220965 11.998984264685676 -0.7106547135516341 -1.9840398340353766 0.708333007396993
Ni 1.0311164769811811 7.223899206223326 11.897819454541176 -2.270284605636077 -3.258602005546356 -1.87643531008082
Ni 9.373579500106219 6.4893453238318735 3.8970981079551037 -0.5027676532252309 0.7870244478616253 -3.3360140650779324
Ni 2.8378364343836013 2.5325394813895574 11.44172276613785 1.059337439872582 2.340454124672627 -0.8994461906991672
Ni 3.4408467289709654 6.762336469552935 1.1550896586780304 -1.1549734786113528 -0.4164181819947086 -0.8792005530762534
Ni 7.548070296546783 2.827253334891547 3.32960722313354 1.1121250159872589 -0.282112751710198 2.4575470477335934
Ni 1.7848746290391426 2.253521062428368 3.377304743197194 0.6484998372894444 0.5086711631938594 0.35423836603185443
Ni 5.878874038426136 3.5476303914928415 2.1606793601196874 -2.0681578448322187 1.9603700012222625 -1.6043555171265917
Ni 0.008661729290154492 4.610581058122581 7.703164582044063 -0.5868836071395441 0.9939249759050431 -1.0413934537996516
Ni 2.1290989007530685 8.67002032799185 12.563382281126275 4.933900943761045 3.327644867177631 2.1346694554012076
Ni 4.310405872529773 8.999964018038245 5.298657023627139 2.0227629616371874 -0.20113637186613104 -0.6557035541267352
Ni 2.164413628469869 5.2770616526048055 5.2194705380160045 0.8302148672061702 -0.6145077966147159 -0.11315322168692771
Ni 3.255387814342829 2.3792731858045415 1.6296350853135402 -0.512281249142621 1.478032076606293 -1.4029988017195387
Ni 4.875818810098128 5.348690937402185 8.690029177325624 -1.7503874918194113 1.2275855456511244 0.2036434545587009
Ni 8.080715241570221 4.870480098589659 2.0594051346863216 2.1146428757676357 -0.5769617200401418 -1.66902287539799
Ni 0.272482741921934 6.061229709085567 13.804718541253054 -0.17490417764247942 -0.5222021078007588 0.4449255454057821
Ni 6.348086412964669 4.962756802984281 13.82439065560299 0.885597714851849 -1.1378219065327306 -0.8689331097119745
Ni 9.383643820211407 1.2843279795339388 1.8976770756839063 -0.06309281469542682 0.7904967226809418 -1.1106242630720162
Ni 0.25649113151299585 0.324649310594621 11.922268112191272 -1.4918065046825661 0.09033442402019926 0.9514783767050581
Ni 9.405008098597772 8.133479821390676 1.8605956683460163 -1.2077847088751135 -1.22020673668855 -0.4987675309269023
P 0.9093693304716091 2.758104758798633 12.641187870333098 0.09961893464591876 -0.5844135483324967 0.8471975178070957
P 1.0763257424583788 0.6732982988608842 4.786055827641682 0.3675700501437541 0.1512248317476686 0.3709435946016773
P 2.1878718891086737 2.970011989804417 6.798233173418274 1.2156150035528097 0.20179765959921375 -2.13684229468281
P 4.072267269253577 0.5279023581922406 7.781246539178798 1.7197911070897927 -1.6246772594030794 0.3594471639263035
P 2.703463140832974 4.151366977221818 9.66532499228009 0.6297888911435023 -0.5613574378439816 0.8376358422605896
P 5.839192131507177 8.529572599438655 10.703311051578618 -0.3093926704720736 -0.10328378509201568 -0.20780169970144854
P 4.200547263096658 6.120549773885505 6.380736501103479 -0.04039100222253689 0.12486845324132688 -0.9826069797890626
P 7.785284529279108 3.1405111933858527 7.359925991165181 -0.9802402793290989 1.2119468106726032 -1.4014893070535477
