# total energy = -340863.9457009251 ev
CRYSTAL
PRIMVEC
9.29560589839575 0.00000000000000 0.00000000000000

0.00000000000000 9.29560589839575 0.00000000000000

0.00000000000000 0.00000000000000 13.60505884654542

PRIMCOORD
 96 1
Ni 2.191615657770557 0.6370641107528197 1.617859269565003 1.1510785144323208 0.606269982085956 -0.338401656109914
Ni 6.2995669064274855 3.614958800922657 0.809077434912962 -3.219018586826779 2.269580123369885 -0.4301746123488527
Ni 6.428227384773673 0.9043239290482394 10.503077911131422 1.1334510311585448 -0.7616774844564044 -1.8794054484527374
Ni 3.754244156571763 0.9682674710246566 12.836848478027385 1.11836174092559 0.7458695708898704 -1.2046713600571124
Ni 7.57118717351814 5.860414606845884 5.46693440669773 0.35609830205872867 0.09395659415381884 0.5572048491281888
Ni 0.5172744289159716 2.901372334574602 12.03934779043993 0.7242779607620236 0.2692232973420396 1.430798597540626
Ni 9.106877007031633 -0.042737476717320394 0.6478702523666803 2.164745963071614 1.5731047866424264 -2.046019618172283
Ni 4.425228862045562 8.76627671896844 1.1788092216459851 0.3251098240970142 0.20336500408633365 -1.0408674060928524
Ni 4.4355748711778 7.035183958259282 5.343699773392411 -1.4472266611896625 -0.7564766569817553 0.7401861473518478
Ni 7.160181967963868 4.334698958237056 7.627812285135339 -0.13820502244923294 -0.19009296956777585 -0.3919212252946089
Ni 6.746006960869531 7.506629192005658 10.937147373522091 1.5687519089903692 -0.9420879366290937 0.14856194020352478
Ni 0.3561481181391871 5.09453106288959 3.924800859320386 -0.025479375218027085 0.45044698944464356 0.24147723757702283
Ni 0.3556136208120499 1.1964188170638752 2.8321107765833125 -1.5555783477228888 0.6829708744831205 0.3937083991020187
Ni 6.287807965230468 0.06362935050411732 7.374390835029642 0.1920719476710176 1.1847967326203723 -0.14213238252809715
Ni 2.3093166170090096 0.5355616739886149 4.059559254998781 0.8783240640085713 -0.4414252455620075 0.3188260479708315
Ni 2.409579019974256 3.172264875573417 2.9248567527881573 -0.5954906320822648 0.3701031009782529 0.15756491503308348
Ni 8.967210531549263 0.912656509988166 7.273400586138921 0.36087901127682365 -0.18607922042269243 1.6604379619424565
Ni 4.8336684804295755 4.275365107121985 3.0832464372499992 -0.27025096727560555 0.3501387420411841 0.015247413077373742
Ni 5.879489189720416 4.098915919926888 5.370229432029795 3.49117191333142 -2.4946946033181683 -4.315373998684607
Ni 4.240748271534874 1.388977288918602 9.89791167130158 0.4164662616238247 -0.13214158986397243 1.1267939308533432
Ni 1.8576059541411072 2.9539947583819695 6.060155793216766 0.3540288211242097 2.132685335091643 -1.0469989729118871
Ni 1.1470684464591567 7.900651325965501 2.871864363874354 -0.3564546569568829 0.7364781023726413 0.4841639220811146
Ni 3.7187070560214073 2.9239885432167725 0.7518471793653879 -0.29063364469701564 -1.7797196651246252 0.9190793915490624
Ni 3.393844228390271 6.475848772720173 1.4765976681463429 -0.5212420578803346 0.15163106604715176 1.2218530140427215
P 4.993088118001797 5.041871456659465 9.292118907648279 -1.0091651898935652 1.1536856130378648 -0.5671131093808363
P 3.1853902708067685 0.5672661963132548 8.387015077282703 -0.019092497855076794 -0.8963086735114499 -1.9584959241280013
P 4.031281092931233 8.631862260700549 3.202304554919096 -0.9118913584410554 -0.4699470071507842 1.767459102589717
P 1.0760128365698238 0.2519555330884865 9.539894206858268 -0.8351009916538779 0.1174472210765913 -0.2862211174516167
P 3.561509068208939 4.746568655120438 5.069108510889807 -0.6694928946013438 -0.6014028838016418 -0.8331433537068749
P 7.275029176255693 2.187339679153459 8.226202957978218 1.1822012039790544 -1.0187173523583744 -1.103361925082648
P 2.2247173096303046 9.031378097622794 13.315134348000548 -1.9497660004541713 -1.849644415140221 -0.383901697424242
P 1.3915986497229966 5.811250148354953 2.0666631965338476 -0.23384234673958437 -2.2529826240225197 1.5788293478310294
Ni 4.553285126021942 2.3763100472120997 7.202286413933745 -0.21912200981027424 -1.965267695634196 -0.1921843048791658
Ni 2.1008347726084393 0.7683970757346931 6.454158406404662 -0.045696473595850336 -1.143547239052282 0.8115183192379315
Ni 1.1439079405247803 7.198117334782074 0.5395476297082048 -0.8957494585738702 1.9195277703949196 -1.3098485055170987
Ni 3.5120564459416377 7.586608583356759 7.7384346406413576 1.7056328133115402 1.9375548030999599 0.013571053816215336
Ni 0.3793267109255622 7.440193498143928 9.728582918064522 -0.6341636231724304 0.1525926586294727 1.0173531250209962
Ni 7.0913573034399775 0.1894825559321234 1.5862951108862722 -1.1819379230153386 0.08980529098960663 0.6556513607325611
Ni 8.783454998282345 2.2138135641567063 10.022669854379382 -0.03172587034837117 -2.187573245378774 -1.809199419751297
Ni 1.7126223922044346 4.595236194497944 10.669467393849512 0.42268061796465267 -0.2705546145589534 1.0096500999497837
Ni 5.952180826211072 1.8828621147990505 12.46609789291081 -2.442831853010606 0.9494109526530683 -0.15090935738977881
Ni 4.310474609810631 0.19924851926934647 5.835890010355692 0.10891758633902532 -0.26261170556279284 -0.32958380070796783
Ni 5.381672322633375 8.26154392124853 9.128899226470255 -1.8514369882642694 -0.4440004624883514 -0.7223303501173495
Ni 5.767848965391414 3.101608976728726 9.323628222253442 0.050679271522422395 -0.4271653932088837 0.737819189781568
Ni 1.0526529794725064 4.9817753658778665 -0.008565900642728976 0.0669173306478396 -1.2381394099075709 -0.9316279176380342
Ni 2.217959404294153 6.155689521567845 9.043894630683493 0.15115952572737196 -0.6827767561944434 0.005175116443036249
Ni 7.039999082006361 5.526079557017308 9.744976648258246 -1.2560723402369078 0.27738192189343197 0.42013882537940545
Ni 7.593933520639961 6.859478419519332 0.056189147710367704 0.8257774002601068 -0.2869309990344478 0.08068147431146751
Ni 6.854189219882096 8.96978541432521 12.647193953390008 0.17405879892304862 0.5173594349964767 1.2118053999987324
Ni 8.583618067172862 3.0469972933038396 6.051421642111061 0.19177858480031487 0.7067898312795893 -0.43894721633516015
Ni 8.131405441597735 7.9307133147648345 3.885496249784139 -0.241407560681352 0.4081263742995616 1.8485121013079908
Ni 5.68889209066614 6.912602806033925 3.1970664811131515 -1.8085383891285305 1.0674875797835421 0.43183014567440475
Ni 2.2258048954959575 6.069649395307291 6.728381562921968 -0.4988873443342183 -2.4033924160680606 -2.020289046175398
Ni 7.365661331726781 2.5084377864804117 2.3600018365907176 -0.2742513466842502 -1.5019104258857874 2.95525039906204
Ni 8.187002459225694 8.104355229041749 6.576167878880126 0.17912130104762056 -0.8265782988948475 -0.908611402138203
Ni 3.104648639789141 6.929836858981965 12.810685995814731 -2.2142124452328575 1.9882153055693048 0.22757708255616288
P 5.495515605510751 1.4229248408960802 0.8630133278042332 -0.5230541713884088 0.5202712093266331 0.46883706191605706
P 7.473006986227307 8.159087755340597 8.916754913428083 1.3243713817236225 -0.6741489053161164 -0.6184798938885864
P 6.325668967203159 7.690133743918965 5.355127791026889 2.1015762723916644 1.3902438160467154 0.288530996531716
P 7.942555916413057 4.373749797737984 13.302795361008515 1.9539039338819446 2.7897109504639115 1.1203358339328255
P 5.405143726998965 1.9014719173891137 5.028402124015608 0.1200571478956126 0.3795771019069592 0.19343154702270557
P 0.9567316243641827 2.144617075405242 0.5569248349838615 -0.42692705194583247 0.7529976972942193 1.1656026761904246
P 7.525090264904692 4.253492546934962 3.9750445376318497 1.1856341409200033 -0.8663072420533532 -1.0108492624642076
P 8.420591734593176 7.754784681488341 1.8524924414514 0.5276137657346333 -0.24095581785591408 -0.2963695187395283
Ni 5.71531949764094 6.592610875784003 7.3814926777763 1.4103806960059064 0.5162803429996851 0.38664994959334054
Ni 2.9626582628844367 8.166858881696887 10.326157436727877 -1.3997468704411442 2.200774574560397 -0.6110026116749347
Ni 7.5430493750965 5.949485100561164 2.4111155835947042 -0.3721414715645204 -1.4936181039700083 -0.017073153432202854
Ni 7.375217214375425 3.456059717269039 11.607182997655007 0.04555994801798605 0.17915935337440758 -3.383914488303637
Ni 1.1974878117181496 2.377592840797229 8.245114867753184 -0.18538785078262265 0.8224421652392868 -0.6035217299168574
Ni 4.7312959749728485 4.592057097352189 6.841289707866996 -4.251584672142788 2.244648650235528 5.266289303797343
Ni 8.509559976645871 6.322025089772937 7.992101494737251 0.10704402346539628 -0.38448173829742815 -0.18103805845435916
Ni 3.857165102764162 4.7713507398882244 13.29053724578598 -0.08761985330251361 2.258122773462563 0.9653674759823246
Ni 5.254601392860065 6.995231445006488 13.216946724225163 0.5998010865321606 1.4747140679766537 0.6683369266200296
Ni 3.2197561250402673 3.7427919703624934 8.85372327036979 0.4827145912290977 0.7381426345592578 -0.38098966598376965
Ni 1.2475539439609475 7.970693714834696 7.552331037377309 -1.3847311137586023 1.2645891194586671 -0.32369134648293285
Ni 2.5556501677765815 6.49399379502577 4.194684827101907 -0.4736684218664294 -0.43292415006953183 -0.8814176153322303
Ni 0.2662865683797456 8.927871528271966 11.6453312338435 0.30796416555566314 0.2262830463350877 0.6116903817705789
Ni 7.88964532882932 2.1840676259508105 0.018862643064813497 2.547428186266458 -0.9623094058822909 2.7540826597373407
Ni 4.7664519556899405 3.976269698461705 11.49573054456093 0.6069682937045612 -2.20603093786333 -3.2685627163034936
Ni 6.047888382388542 9.49295139812709 3.8303547168349605 -0.4577597210559729 -0.8355023408573546 -0.32572817440730356
Ni 3.9280998697795333 6.252242977863044 10.883053455334101 1.7946901703915286 -2.0854325727522665 -1.2834324774174157
Ni 8.851052642855242 4.134276403969146 1.7894329115760395 1.3330015465947946 -0.5017520674765229 -0.7063427164398416
Ni 4.308661966701209 1.6888535284567863 2.740371514474624 0.5611450647228594 -0.4449736250348982 0.8175077040521469
Ni 8.57771535756013 5.997106488507664 11.58759157910415 0.02200118686143953 -0.9640194465948624 0.09232420075671842
Ni 2.1361859610450082 2.1850901425766383 10.256458985269187 -0.6834308448386746 -0.7067630918067118 1.641951987323127
Ni 8.972025655296344 4.34185657461785 9.592028611366944 -0.031148400578346357 0.8694331892768447 0.45612141412160156
Ni 6.234804421589838 5.381923303986987 12.162541523080217 1.530643532154422 0.5627039245695471 0.2599832668010103
Ni 7.50490020934744 0.8434339935407714 5.55468678352626 -0.26316989205910807 0.8816014492082623 -1.7963133078172482
P 9.691412579594548 1.2618041074827093 5.05687735292377 -0.12082307952735966 1.0373357387905102 0.21955292670010576
P 2.923560945355063 3.2349637359480314 12.022735613512506 -1.4577419588986895 -1.2287952496885095 1.0113012623999613
P 1.3051866992348702 6.460315815613282 11.75024051009285 0.7401936035510156 0.6179906129569938 -0.62090238728715
P 8.124898517615197 1.369103283954788 11.799748905994287 0.30211901962879584 -2.4838784865392705 -0.6605521404682883
P 5.3381874792186315 5.682022638061715 1.3661519291484219 1.4391256293490828 -0.719352241325632 -0.04259829428650083
P 0.5702937750862737 4.600990174419647 7.781250200446468 1.5466699894896652 -0.6490258849962436 -1.8925386434005858
P 0.9089364085912912 7.400166620045621 5.339536271604155 -0.8323990193416826 0.12448047377428885 0.08452707330980282
P 4.94823682055072 8.502997279029197 11.101931505137632 -1.2890511091557735 1.33661137543324 3.025902257051647
