# total energy = -340854.4833304923 ev
CRYSTAL
PRIMVEC
9.42193465875886 0.00000000000000 0.00000000000000

0.00000000000000 9.42193465875886 0.00000000000000

0.00000000000000 0.00000000000000 13.78995375684378

PRIMCOORD
 96 1
Ni 8.305114983639184 2.9057811550805432 8.181055428873513 0.7196810854199606 1.1568519265809882 -0.644326165527729
Ni 2.705753484015908 2.5407188779693626 0.7133073431963003 -0.08292759003316685 0.6095561090363953 0.3310614136947589
Ni 0.6233759198545745 6.743372795933592 13.887310660657057 -0.31574046706697234 -0.5614158018857428 0.06357746764132922
Ni 2.567712720531783 8.895710108714292 13.368463567383985 -2.6335868816424126 0.6716302526593207 0.022542918297522464
Ni 6.231205854275443 5.7904006451016805 10.431328098418897 -0.8555849705398426 0.048531886162116414 0.6696443325775434
Ni 8.676000016318802 0.9973400407538788 6.186656121016144 0.19172587718550854 -0.33088195069410115 1.639344888717583
Ni 2.823367493337615 6.284392674961259 3.4799500794145257 0.13998602560905568 0.3963928879127173 0.3455012432691727
Ni 8.547192748719903 5.758950227484453 11.414620034718826 -0.9993080945938274 0.815168514396009 0.8369748116378231
Ni 6.964373693366098 8.721639867408632 7.646225907977882 -0.3069295536435617 0.9009909094784676 -0.4454346238317167
Ni 2.805267957015657 1.6408581723466529 3.266674226141507 0.9755780979667392 1.1554984978768874 2.8607713567458473
Ni 2.1084876292604533 6.830356095946249 11.796174466113166 0.06755445001120623 -0.4864977124206138 0.7704799132393827
Ni 3.706306404460462 2.841099574211079 12.343318455500627 -0.3801234613287324 -1.6387422221365775 -1.7465971715390436
Ni 6.698571497021094 0.3480594539739576 13.835460812487685 -2.7201584961860696 0.8031856310025199 -0.17109483119871824
Ni 7.393175357889066 8.291820633951374 12.356308476701606 0.7124061490251021 -2.0203474102171595 -1.4030080576909192
Ni 9.045792104587516 0.6494143782509111 11.016352975772225 -0.6789936350029273 0.1504812687134247 0.613936240381962
Ni 8.465617639154306 5.281936523732199 6.777348292017392 -0.9468979564232273 0.5445236541160944 1.2430923830374718
Ni 5.858992328820501 4.084889157689295 12.020082030362605 0.5992593550960776 -0.2668673955153533 -0.37536794892161807
Ni 6.837224686252708 4.439568462896884 0.37015860152375046 0.16429220645458803 1.4969371410409122 -1.1195328784155558
Ni 0.06476920486102793 3.1588637397469195 6.216235342426428 0.4294593314493829 -1.5319823055705035 -0.8032504228021844
Ni 5.433337590446171 0.3631920230976934 3.792430424039719 -1.2189864911282038 -2.214752634007044 -4.1266413997994675
Ni 5.528904272858258 0.642072806828699 11.383399512305271 1.105666661956425 1.5344693336584154 1.1242030301977153
Ni 1.0340761636686697 4.459514698395887 8.038950042812974 0.5887278594371345 -0.13276071150521007 -0.32971209875571605
Ni 2.3888372925919756 6.61920112014646 5.991197146027781 -0.666596289779839 0.5752372811498674 -0.9096377865201882
Ni 4.723008520769585 4.575856746549731 6.575781076842914 2.007264351780956 -0.853060661456092 0.9916369512018147
P 7.205386779839643 2.420721119199735 12.05477736224807 0.32559807658734247 -0.8929173884417139 0.39187828787181544
P 3.408026799629363 8.448441452420871 2.788783340280156 -0.41763508512094527 0.9166959789185503 0.44486178204738225
P 3.441455823507711 8.123912337858917 7.650749378768184 -0.5169678559850129 -0.7078853783366131 -1.710045340556939
P 4.639831682325939 5.318719756319874 4.459422363437035 -1.3201349750447717 0.30188042125542847 -1.0200193589992497
P 7.791779722093516 4.153876562660338 3.309381971191049 0.8100833865636177 -0.2130027842864138 0.6179939553911035
P 6.318848689708474 6.3865547115770775 13.239596941597252 0.8893080738239008 0.40864753691035427 -0.31789222330265254
P 1.0063379882746855 4.8988406638410975 5.776004871261848 0.26789018035291284 1.418843996281911 -0.6602706046721274
P 6.109596944693189 0.02140192439111254 9.4757799906737 -2.3108242176213363 1.822619292701629 -0.8394803516684961
Ni 5.977539109665307 3.6716431071525584 4.625136290966565 0.1361404266107204 -0.5379058916892606 -0.03862722545389476
Ni 1.3796821458788389 9.152665108491716 6.92622522245825 0.11980517978580658 -0.9178043814913807 1.4612111483942123
Ni 8.158434306148168 7.6353002326426695 6.194102275912159 0.505963020234077 -0.4681240950094324 -1.5996239159788774
Ni 4.06811811414266 8.413881796393312 11.879811094964161 0.6073292765884056 -0.9192544836743459 -1.104587055739001
Ni 2.9488488180309176 4.031485632508214 5.348984894567345 -1.3803347844631195 -0.8860738831573192 -0.804925239401446
Ni 8.91753130919407 3.2206150989630107 13.20932803457595 -1.322699650448154 -1.1211675858055015 -1.066501561721189
Ni 2.4435127789409194 0.8967354499235982 10.860761032558509 2.3535063298708954 1.4042355023401172 -0.2892066824425019
Ni 4.263896492713176 1.5164415262605244 5.251420762024986 -1.4885062366647397 2.017451062505971 0.6150988932314956
Ni 7.677378592462484 2.153081645612263 3.9128031758055015 -0.006976431317833147 0.3632788789675679 0.7416835578329808
Ni 0.6166505429536826 6.725866841489971 9.770030776279775 -3.066262148925932 -0.5785090099226037 -1.8079519204974412
Ni 8.26341350120244 8.116205195375125 0.8342633127123846 0.6670847993804834 -1.0085447827007468 -0.11130819805838894
Ni 4.620337699686621 1.0318431651739775 1.7237580059137418 0.13410616978951098 0.6907080952263782 -1.1071841270422158
Ni 1.2190758490833713 1.8618967575174652 8.682389030155305 0.8952383232654065 0.4100115071374165 -0.07781160896284017
Ni 4.949728532490183 6.241409809422075 1.4980574475143482 1.6669343683000775 -0.14453122177757688 -0.24488240660382987
Ni 0.9472907242821246 4.5771569735213244 12.102242242065417 2.343832811336873 -0.11281717850374764 1.4224386556117052
Ni 3.83764817246051 8.62355752846455 5.586586298530646 2.0748974775488978 -0.4366885022079705 0.9322478106102203
Ni 3.315371495001496 5.8951819795298395 7.922342296104065 0.29287307555049563 1.7075107470605433 1.3383581829210176
Ni 9.411334900362112 3.6326928296122283 10.214315505892735 -0.5898372904512293 -0.4571254299060837 -0.11345558341869494
Ni 7.248605193743247 1.9062363816357022 9.88851348796946 -1.1427820787514835 0.07566088116842454 1.6248317827030725
Ni 5.881840520169146 6.343618955710778 8.100701402029065 0.5230271748052153 -0.2867582209020094 0.2072180592838367
Ni 0.48924243263943235 5.052229758750767 3.416295489413929 0.5652596011118651 1.1105324746891585 1.0373478229753683
Ni 3.3918022282881806 3.951389766671168 3.005327662657854 1.0036303761182652 -0.08170168804586574 -0.9826414325714239
Ni 4.468512645916694 1.8688124574968077 9.432038659401087 0.5892641915565786 -0.30531772907175164 1.3552202487836789
Ni 3.6037203807886886 1.7656422738812751 7.425793153200355 -1.6653919635136223 0.5616338314338198 -0.7868226162634643
P 0.4337048392767148 8.234544693659243 12.351412839495524 -1.5567916513046995 1.0266929143646835 0.5526961626245578
P 6.814461292315253 7.730640788624913 2.223298613045574 -1.2417988610370292 0.8453005578946989 1.3395102942475898
P 6.818098159061884 3.793035312239547 6.650880490773902 0.2608759538186088 -0.36705197285675495 0.5788669074826547
P 3.884399811830398 6.5866294923145965 10.396839106900662 0.3400214511015241 -0.2713490854357907 -0.005980128842834862
P 8.134370685239121 5.274069208360603 9.368770368718137 -0.3225263796405542 -0.07868269871388385 -0.9375298849447661
P 9.231743405394472 7.717280485395067 7.905642859260214 0.37012418402417546 0.2052737910732723 1.83021947364639
P 8.817451520119715 0.7636459130595612 8.723524254323983 -0.27309563581325225 -0.13142605185418654 -0.2594831872361402
P 4.2923130473966875 0.690095465172992 13.333327288960328 0.7279914050578687 1.297304093193185 -0.027529829989152585
Ni 4.394512771750813 4.406921459588408 13.774453786103159 -2.2250933538114195 -0.05273435427923821 0.8578017756855033
Ni 2.102749671103206 0.45281346479184376 1.7052382513096607 -1.7565121166599105 -2.2058746147911235 -1.7741056613719572
Ni 0.0633709897698366 0.6429302028751842 3.7522468152632906 2.050529076006862 -1.155171967775404 -0.35998401026638005
Ni 0.1347044564504939 4.238721083524071 1.296853919014533 0.5437073288623862 -0.0340995127868703 0.11403048208555845
Ni 3.5508633278130595 8.821531217791453 9.595628882877014 1.2757487356199124 -0.5370962513037718 -0.4633179318700408
Ni 2.0739091293637406 5.233130902624577 9.94665247746882 2.281545266151561 -1.772391249784012 1.073753615297912
Ni 4.322048672920945 6.184435371036402 12.613063731466005 -0.33320725639316806 1.371780210024889 -1.385592690427949
Ni 7.545829541901748 5.735696892949007 2.0628119748192315 1.0132092780559518 1.5341281482689129 -0.5937661931919903
Ni 1.2992094026587233 1.7351434716563 12.455472453735101 -0.39014125057605065 1.6728021399347641 1.6909333023178361
Ni 7.075439458156956 2.3883285081248307 0.9879162217902024 -0.04004338907513103 -0.08678270211319891 0.5686647701386722
Ni 6.376840697028437 1.6620857909480955 7.643453974825398 -1.1698946186975594 0.3213115333968466 -1.2689877627469952
Ni 7.855754657869722 0.6532670072993487 2.130147714658969 -0.32745107063568124 -1.7181232324690667 0.38893771718625275
Ni 0.9578527129426736 7.598761970353991 2.4516881915731754 -0.7688146097218178 0.27358028875915463 0.6235411104615778
Ni 5.084688323367708 7.431937196737861 3.6112579284500974 0.7935090271447043 -0.41319376152014 0.1430561798939472
Ni 8.0984165828942 6.116851834317295 4.518802221720156 -1.4543141641640631 -0.77077430455135 -1.0775629617416733
Ni 5.420844105197387 6.682252706334144 5.884049021633939 0.5956238152260193 1.6309751765966494 -0.06713561730623276
Ni 7.5859010296567115 9.27959741110984 4.58473220892104 1.0975915982577744 -4.71743282663385 -2.1458820362875755
Ni 2.9097666334065133 7.193684737095306 1.0968158838218633 -0.37676200105566726 -0.2648915027359051 -0.44997879155897336
Ni 8.949141899699102 0.7696382634503811 13.811052348773128 1.6491857860674048 0.47263380995432797 -0.7008991768267671
Ni 7.203530658728022 7.792948041981035 9.717049353767733 2.255726248205928 -1.6967308828362198 1.1871068688107878
Ni 1.9384405540190712 8.868980080320021 4.563619537921435 -0.5405070767575336 0.1151298857973243 -1.5223805208146814
Ni 0.7917392953870892 2.769050040502588 3.829511389760019 0.49878964241408935 1.3029553779416914 0.8780116749744751
Ni 4.358172370088247 4.1652959473673725 10.195795751288653 -0.3048616153709395 0.4821947141698857 0.5769069555428065
Ni 1.2976547834535577 8.596723858789936 10.44918549102223 -0.16222761061607543 0.20095973707895068 -1.016028749782618
P 6.303962033077192 1.0162027537765543 5.3904932273452655 -0.1845653548813273 3.7060289772177533 5.2863181974237605
P 1.7263339628270284 1.4559338624085654 5.7628904805244545 0.2399934539426448 1.4170305972222563 -0.9971367979741215
P 2.2601807759463046 5.329244057242116 13.989631927967224 0.062155647593138116 -1.2494841454964287 -0.7120042856009932
P 3.5284297015857917 3.885539865914186 8.274426800529215 -0.5878593407892521 -2.897176634847759 -0.7704050941373893
P 0.34361795401447254 7.436949665932698 4.5839322866754735 0.16807224232231055 0.28444654204969727 -0.40345622251740193
P 5.1567472790107765 3.3778860309183054 1.483785101017471 -0.04062240150705262 -1.9189145622909531 2.425043161568617
P 0.4326505247975753 1.9499353142027196 1.8685109555903514 0.08002815699818476 -0.22873125076526413 -1.096987389014872
P 2.061670036348528 2.9789047893307847 10.535056060561374 0.31347326829935046 0.4518577537492411 0.9754204893429524
