# total energy = -381169.6386146795 ev
CRYSTAL
PRIMVEC
9.22077641567932 0.00000000000000 0.00000000000000

0.00000000000000 9.22077641567932 0.00000000000000

0.00000000000000 0.00000000000000 13.49553833470816

PRIMCOORD
 96 1
Ni 3.7983143927274203 2.8626361148597845 1.429662928079045 1.9908419445588745 0.746376849543592 0.08410952615640999
Ni 1.9632600333948584 1.6221374131463917 5.6208515481949375 -0.008332174014779198 0.017460104457976383 -0.16809409669918146
Ni 7.565481003019395 4.200183487423701 4.960514872252954 -0.6703429013064648 0.3729611392523383 -0.40669169873556416
Ni 5.964145661268611 3.3058788329390874 9.976806220513016 0.5701956049609018 0.09334801403554246 -0.12259174139200822
Ni 6.616275846278817 1.884044343962379 4.253267496743081 0.48445985605497854 -0.011751226998657181 0.8498871488241169
Ni 7.1645524275085535 8.494677075128557 3.969294326096937 -1.0540363393746428 -0.8892893047708234 -0.037176609050297266
Ni 2.5342289451674103 8.898832922354142 3.80311011849553 -0.5823738921946486 0.8170654743084058 -1.9428721015478152
Ni 9.087572993008715 6.677252840134828 10.062947635045337 1.6716140331639338 0.07416192802539485 -1.5742296442754888
Ni 4.036736006236397 4.6201990699331725 10.125041264914648 -0.2578075993059302 0.19937233798717277 -0.8901884195463249
Ni 8.252954423694213 8.427171771632436 11.268841685277977 0.33864565379992 0.36094354596617195 1.088749574486112
Ni 9.151934011777042 2.350873807888298 3.8911685324264087 -2.0645181911971027 -2.0510625799128293 1.0943952028076636
Ni 0.5505568792156109 -0.01848673445968782 6.869256143531822 0.017247731336854165 0.24962352083324105 -0.45468596722665566
Ni 6.529969379850228 0.8763278289558556 11.831767313859752 -0.42549109083025427 0.1629061247403388 0.9959155239725106
Ni 5.4895799660036335 6.1573024837842185 3.4856415557608726 0.6351792089211383 -0.7627750883959573 -0.07156768493565739
Ni 2.132986863261422 7.12805659480296 10.15591887860369 1.3541545265233261 0.25397434160276905 1.6050700266951132
Ni 6.521735226589466 7.17694515089317 8.010101305082076 2.1494368435183686 -0.8887303469435597 1.1891714646493003
Ni 6.249399597746691 3.0893934463140433 7.705561192836685 0.039782422104260515 0.3201627645043841 -1.8234099069237244
Ni 3.4594047587976346 5.016397387187832 2.3637976479894 1.2601400825483782 1.0453388116006448 -0.5199809317797238
Ni 1.1430166543754612 0.49526910435387805 9.516311429924324 -0.49456609125104495 -0.0433570268293963 -0.10120890484085794
Ni 0.4441804710318439 3.8812644965726752 12.853622967287386 1.219750622987738 -0.9710966651566179 -1.9926761695541357
Ni 0.3334546226542344 8.128842774321477 3.1079816093133372 0.637085939025548 1.1611078736438647 -0.7549069985017901
Ni 4.0469065225260055 6.659761027440913 0.04362257072938157 0.005542269974467874 0.7081530301757031 -0.5786954149017969
Ni 8.807888405432651 3.9395305821883 10.414385537771757 1.5258062586667789 1.829887544228268 -2.6050838891067136
Ni 2.8530741698078144 7.454693375440389 1.8919391726542765 -0.7583543336204424 0.6772925931514207 -0.4569133138952776
P 3.1544921271885986 5.845345179060712 8.518329288487102 1.359499078664691 -0.2167763923962331 -0.5134346460207738
Ni 8.244950789841647 6.242244275316287 13.242172650578103 1.419174897258769 2.1959468141544503 -2.506845379748089
P 3.2635093657126597 0.9068928583273821 1.876649281347451 1.1578500288281994 -1.8785104474422938 0.49819520336320006
Ni 0.42595560661986676 4.3810213527653135 3.2365542702734826 -0.1169481699529857 0.7061475697099 -0.2602516899710486
P 6.9816767705984875 5.038112315439896 8.795312188599109 -0.4716027975866523 0.09701594980543292 0.32461385829720224
P 0.07872053374367441 2.7202581075815964 1.5472905275380433 -0.765671693217462 2.168121564412066 0.3569997308270755
P 4.982492592630362 8.254226890827455 4.1910263344525225 -0.21476244728999785 0.4279889175514436 0.49782187918418136
Ni 3.2644775472270826 4.087164431973358 4.893023399921324 0.4581888381735915 0.24528786957236465 -0.1314201383169156
Ni 8.18942327479539 2.3212658950996015 6.256814946069541 0.06617685293738924 -1.8673045514241455 -1.583911647449943
Ni 6.375447610148273 8.800179836422576 9.905117450796952 0.6942181652621657 0.5471610917389416 -0.9725130858881702
Ni 5.577158899565465 1.0286605863575808 6.611963289190285 -0.8293008400323331 0.12900047313182944 -0.10553118636529565
Ni 1.1434500308628697 5.0367753028723605 8.777781648644618 0.6179751863380261 -0.1762234106745352 -0.0221834780755747
Ni 0.1888166030980924 8.532002777703656 0.6605284680896031 -1.579854446661434 -0.5611180681396659 -0.17753595883837167
Ni 2.3783517213452634 8.619609373594471 13.522799601494873 1.5693879999124714 1.0101851465176472 -0.9956275604184467
Ni 3.089338121656076 3.9511672019140356 7.298656632187769 0.2892681318080567 -0.5650318013717752 0.6667716390154388
Ni 8.536862126828428 3.864058527944924 7.787911024142997 -1.2808269214737684 2.4389011504976317 0.7616800555595656
Ni 8.01447748552727 4.37607901665359 0.6525939900594961 -0.6174727927803108 -1.08018780095903 0.5022318353264189
Ni 8.18109691377135 0.6615243119330098 2.5045832271957695 0.2700702187233672 1.1993334927839667 0.12761721963105763
Ni 2.789238735290173 0.4984945319133568 7.813727353705685 -0.38021190727748067 1.6665325048759685 -0.8354804864804837
Ni 6.9993622195952865 0.064053966916611 0.785425727605471 -1.7576508582500439 0.3983261003796882 -2.5710206288744173
Ni 4.050576391504486 8.945656024546919 9.423974575777327 0.05845197348930578 0.22483962902034182 1.5401483863210639
Ni 7.191707613794044 8.549466928068586 6.338813465797762 1.6975875744095603 2.453158174637278 0.458413809700204
Ni 8.249837801295403 1.7860459331500882 -0.07254722399218506 0.3024458068405952 0.4672961997914984 -0.4774281460191777
Ni 7.188093069473529 6.197505068573604 10.905231435721172 -1.3964049505521048 -1.500943691097144 0.20749548131493945
Ni 1.042879023455111 2.6133155437313 7.6672202827878895 1.6972489601232188 -1.7235387470576835 0.5605899635503377
Ni 4.579470900893101 0.6176712217954323 13.085314336154672 -0.6720927941180361 -1.285889166488024 1.1733144430123859
Ni 5.291277950297092 5.063266593262247 12.096293867230479 -0.16537258400296037 -0.2385631492540214 -0.1015601175326896
Ni 1.8656027913066977 7.454868570190618 7.849099173776915 -0.031926673505267594 0.37940663776736594 -0.4594296525592282
Ni 5.228807190675971 5.320858200756804 7.232569484090869 -0.33433622779128874 -0.43752848161076263 -0.07327464032443509
Ni 0.8251184034639268 0.7371319115884053 12.034120016607115 -0.639763228747395 -0.06140154303593296 0.2774647114152254
Ni 0.5884284517493182 6.1808154634202115 1.873356542120779 -0.07594138852332083 0.895591078619135 -1.1964595136702814
Ni 9.027923790943913 6.491629391879067 7.011161124984391 -1.1899402244945247 0.09481842793348186 0.5629767186149595
P 5.384094284813136 1.4410690283965841 8.857850259887421 0.002365414908383023 -0.7503803142760302 0.302603415464382
Ni 5.05928321788862 7.935575302489936 2.026449091491918 0.7201878498530501 0.4956346417248754 -0.8281692975310513
P 0.9101846754764211 7.629076697352511 12.278213329635348 -1.1390025571043931 0.09657809093706593 -1.7028637352068352
Ni 0.8328177516976738 3.8891667018856344 5.54543850692006 -0.5078568948226803 -0.6378220458606242 0.28421462854454926
P 1.3175659502614856 2.7868782165502455 10.503159483945678 0.28534565682519886 -1.2478358112597283 0.21501672939264904
P 8.952331866608274 0.33137810382520466 4.836867950007141 -0.10640510432981674 0.10806295164821389 0.15575382996627368
P 4.074568851509527 7.880969865076464 11.740389420450851 0.4154625029496587 0.9135731170188525 -0.5822137124677006
Ni 3.8936018952993257 6.697197379331946 5.241248784175126 1.220244531905021 -0.8889254936735013 0.927274525765345
Ni 5.98657058929792 5.7881487034991155 0.7744262635239897 0.03232262339210563 -0.5684529112381822 0.4046828958356514
Ni 4.6228915366209025 2.4512880620984836 11.628268468614838 0.034439412624792304 1.1722651758122649 1.2897496778846949
Ni 2.0938631093023945 4.757514871007377 11.298612805807675 -0.480285927182947 -0.4446617502214341 -0.0022947095714476607
Ni 8.166850814344837 1.0835610886135443 8.240078531630017 -1.1925324107017332 1.031078702137205 1.0280545705989004
Ni 6.770871382191394 6.54414171306612 5.676587452786203 -0.6833467697653006 -1.6185474923562577 -0.8885064038582118
Ni 3.2595905357733272 2.441873649467758 9.617204242425924 0.05544918210723999 -0.22917116651616018 -1.3839435848603003
Ni 1.7308688076042893 4.193802710204835 1.2979266187608176 -0.4855206932193252 -1.6193651031615466 -0.34600800770226214
Ni 3.3320381753811716 8.814066325572304 5.843865244460093 0.2909041247495829 0.2018449678973814 0.7212029213811256
Ni 8.571025103123079 6.262843489632682 3.851261934557147 -1.9079773465531595 -0.3930867063576198 1.1553504023347974
Ni 6.329288403851103 7.621939816474763 12.682297254805574 -1.3639969665350444 0.3110844563521998 -0.5568340960523314
Ni 7.508865436366452 7.371614180726543 1.6242692566333887 0.6384907897928745 -0.9297857222229728 1.9690932400278731
Ni 7.338760554670447 3.7059037723698003 11.78855506767696 -2.5168935080127106 -0.47440452870150557 3.591943473524543
Ni 8.266333770145911 1.6055400157562785 10.704728420705173 0.9786863045784177 0.6837311496879128 -0.8789778955424863
Ni 4.372086420503636 7.622907997989185 7.576449116461361 -0.862787916046185 -0.49252849199572596 -0.3025031424410919
Ni 1.8024773565663001 6.012969671924528 13.349030383286182 -0.7839033857341403 0.5990392686654715 -0.15601968203315067
Ni 5.514946321681523 1.0682453791330009 2.2176003951562198 -0.8248985971995793 0.7934069543492013 -0.28478695610825144
Ni 2.449231828977375 2.1049557032247863 13.283496481768953 -0.8197540768841625 0.07378011920594389 -0.8247648998351925
Ni 5.077097757754007 3.7163324703965883 3.268497805706021 1.3856353707404265 -0.674696036068838 1.1206525938422958
Ni 1.1976313125652616 1.0894531646870345 1.8071061862828761 0.5989549364817813 -2.0404842901763502 -0.14464872119204766
Ni 4.3284537069202935 1.1641322321662164 4.232025594316633 -0.5935409645550617 0.8184101612617583 0.699873306665414
Ni 5.08298061305117 6.766694370514882 9.99638838320045 -1.1316741417637801 0.21314059541585872 0.3089980061368163
Ni 2.033679102210578 2.6870448712487143 3.401726036634093 2.687265087892159 0.08384187431732013 -0.39445067658468197
Ni 0.9935570908774912 7.433208966596519 5.141489205084217 -0.17703047995686286 1.2874955917431956 1.5573709208469373
Ni 1.9754867828055753 5.686941462524736 6.174438374511877 0.3035822344378836 0.24800706827574062 0.755140711779151
P 5.983214226714586 2.309020704136229 13.72496235624988 0.04597389562695308 -0.4739432727943708 -0.5588873790369343
Ni 2.3725979569166906 6.401505524050751 3.6598552153885637 -1.9665409059196646 -1.4186349655948989 1.5459228269109955
P 8.620457685016632 8.284572465722379 8.551690979318861 -0.26209131428294863 -1.1569843383937946 0.3922346427699696
Ni 2.955701410336681 0.8320349077874402 11.219731830555897 0.3773677529604662 -1.226391011122391 0.726752133334129
P 7.197590469091205 5.165718639040884 2.4131371000420425 0.03817779662130199 0.2786091094323137 2.505537973790575
P 5.143035529274396 3.1744919910436855 5.567908616753376 0.7247554146190743 -0.31334034226591195 0.16206485978596608
P 3.446495671938658 4.503851314228479 13.350299162108893 0.49933805871839165 -0.4597582395432404 -0.6670647447758254
Ni 7.0867290753015775 2.928564665603846 2.094601693486254 -0.2504313614465171 -0.9744990059699475 0.74469740495864
