# total energy = -340865.76819356374 ev
CRYSTAL
PRIMVEC
9.35044346279103 0.00000000000000 0.00000000000000
0.00000000000000 9.35044346279103 0.00000000000000
0.00000000000000 0.00000000000000 13.68531916510261
PRIMCOORD
 96 1
Ni 3.513962032123532 7.628016812113985 12.775053396416274 1.2559353004384113 1.5741715373440437 -2.192571212813998
Ni 0.5374438429464943 8.68195202473856 1.3141832948888355 1.832309266295883 0.31741502655591786 0.19508245236256724
Ni 2.5032258673836703 5.637307440976406 9.174104190597614 0.02726654902543691 -1.5962825103104703 -0.38777686410893214
Ni 3.125974739281904 2.440549846177775 9.774164211913106 -0.862228186887973 1.359551272058865 0.1710529222171893
Ni 6.2546704575539485 3.1791039579141427 10.105978716839711 1.9976335135594112 -1.0105638700133048 1.1146246424806612
Ni 2.044913890745303 2.5088454837859895 5.1490469296042845 -0.34659087678892564 2.5395079029781167 -0.5235966741554402
Ni 0.79186472896795 6.931614498616641 3.150319553366891 -0.08923836274254308 -0.16664990805348717 -1.7877908721685338
Ni 4.8081381835580554 0.9360261230517957 9.069247384778572 0.19682077520991265 0.5417903143453315 0.07402257423405316
Ni 5.124005507496048 5.958018294525715 8.730206857296709 -1.0702255475399955 0.4682027707661679 0.15642360233978866
Ni 9.230364872679331 2.409497024094412 7.704669875912537 -1.0025065469264671 -1.9081519244578107 -1.1265476191704922
Ni 1.9682963586311588 5.127278162638829 1.6769309362250076 -0.38490519898809195 -0.8715029273216798 -0.5668531708512302
Ni -0.09289571879433879 1.4857106312766188 13.679899531356302 0.50854029404295 -0.6894176585497288 0.39594885839676325
Ni 2.8522779144694654 0.3472418012696739 10.705956454254471 1.8459589958688338 -1.3879938436702741 3.1439937965804563
Ni 8.877581998730765 8.017369269672317 13.02145814742657 -0.7469370929224363 0.48487200389173274 0.4114693226298656
Ni 7.053936997410543 4.634799666309823 8.373991435625529 1.9161058891975646 -0.269248237042704 -0.3545399564326733
Ni 6.426045381716511 7.469667055419693 12.560782378730787 0.847244054774315 1.3068061191463491 -0.9226941054835142
Ni 4.191317492689889 7.834455898520634 3.2705447477364338 -0.5681222673716408 0.04035140723385308 0.19375807712418888
Ni 3.428171715166335 8.678613916492925 7.9927869543283965 0.31671800048889326 -0.9454488826815266 -0.5112229830814357
Ni 4.786061787009179 3.659520382431182 8.37659179389755 -1.311140484855645 -1.1103869502502295 -1.0540993314020943
Ni 8.39639883786599 3.761271906041887 3.9653210191499793 0.18459826500179174 0.2600133487079973 -0.6150150752684376
Ni 7.180719657641894 1.5965694866275213 4.130804229011209 -0.1039144766974791 -0.9687693025750218 0.2726624049305756
Ni 8.734613721207547 4.381262397176919 0.7861422576897151 -0.32941462211995526 0.06440279175610199 2.6566306508357536
Ni 1.547086940868667 7.964034341288246 9.472087856746795 -0.2302903677222679 -0.4983013899237611 0.1904945758815687
Ni 0.8931702364349104 4.389472086363668 6.4257087657589675 -0.1651668957500575 -0.2596775626351334 -0.07004044965785357
P 7.741325483600342 8.42511404913308 4.830575507216965 0.4582513159804108 0.20243092230783846 0.1750856975256662
P 7.21227740366157 9.517255172938812 0.6466242937313131 -0.3864319200452635 -0.1875897435299479 0.18758845797836726
P 9.171475780995797 2.2935047753909754 5.391755450391889 -0.005012879833559109 -0.35039122437162235 0.12508828256161683
P 5.382227348704762 0.44902418134315386 11.308643950127456 -0.15601402560619582 0.3682210534641917 0.2652704833418786
P 0.16132132756393805 -0.15101246386417677 8.251453876636528 -1.4756316946949168 -0.22530679846474747 -1.8273488369668143
P 8.20291011538149 5.580914917644651 2.4990621149977263 0.7275764290076373 -1.327309895526656 3.0764619722770696
P 4.744573870241976 3.354303213372127 1.4136383496336344 -1.0125104522167143 -1.4702452335720229 -0.0968907370814783
P 4.1812564157366525 5.443837419378437 4.359814350415457 0.869242156311961 0.5710414979009649 -0.363035138387878
Ni 5.889778759577092 2.086037140225167 13.413939263301401 2.4153835269916657 1.8495631682803242 0.750185681766721
Ni 0.8635844988998403 3.8334012253887884 12.917107200588168 2.392962736094305 -0.9094660368290143 -1.0897888143839038
Ni 4.76587417999985 7.864218359433415 10.471458557697941 -0.09686245494670415 -0.27191935611696394 -0.11257420925500612
Ni 7.442924787681536 0.5699048417855793 12.2075366578406 -0.4155658612967424 0.14329452115699837 -0.5923813970293217
Ni 2.6466897183999403 5.441621364324612 12.828699694561074 -0.9301456766655529 1.6945032790572818 0.05582302050689096
Ni 3.15477410453838 1.6721865213123008 7.028903055656919 0.9061259167121879 0.47872038246804005 1.962366462827001
Ni 2.053768760517343 7.344006448380153 5.092977931609501 -0.21551475207499013 -0.22808179010672333 0.7551132009753253
Ni 7.216083034070462 7.008727604223836 1.5605235278406009 -1.0512698323730991 0.8398282219262181 -2.2677294433143915
Ni 8.089358332370242 3.24659545740156 12.514826820171525 -1.989774679636625 -0.2871559705610603 -1.109207585230148
Ni 3.2344398811569435 3.0731353843908824 3.280070044290581 1.143364947838147 0.4870983221190902 -0.6986330065004096
Ni 7.029812853786613 6.313316437712591 10.208796190982637 1.1038103254739764 -0.44366210531232625 0.6306023881837334
Ni 0.4670462256922876 0.13455007345166 11.589220831094346 0.9832479558071712 0.8420599394702144 -1.1708109598642418
Ni 6.3667168191995165 6.9622652516396055 3.8953619376849047 -0.2462697738696597 -0.571509438676319 -0.7792412043717806
Ni 0.017825685040566835 8.113417022891317 6.249921367419609 -0.5563977798458611 -0.8611922894242909 0.7830006714142127
Ni 5.72685663612617 4.65364080948898 6.369996019652584 -0.69657818085391 1.7389746219967792 -0.9067851475627415
Ni 0.8231896489503269 1.2998144687233721 3.2623472141259295 -0.044412721787420284 0.22572048896339836 0.41886510087330436
Ni 1.2795894599409834 0.7754762070572275 6.201228934116655 -2.1518444245185973 -2.00649302083257 0.7744628091465307
Ni 5.6666958841585835 1.0403583690036655 2.148211977672054 -0.655497094542884 0.13838499967052295 -0.122727238528608
Ni 7.6567787755974015 7.624762857857734 8.389565533927861 1.345810782544321 0.5689321648674459 -0.9351511002999444
Ni 7.363876140318469 0.387685273524166 7.001696070888487 1.848143148004346 -0.5546707698524254 -0.30899826324713237
Ni 6.944574212982055 2.850183415178085 6.054508323711154 1.6420394048306106 -0.4868406975823294 0.9674940354070242
Ni 7.967213491998376 8.972133681027351 2.6554716547145123 -0.27979438798966655 0.6369594407500127 0.6063692266679814
Ni -0.024033444324259832 6.104689347581911 8.293015661905526 1.5049818657222598 0.1349075826448838 -0.12125913862351376
Ni 0.4115139431409204 3.996734768343374 9.15579321755159 2.1937346369944803 0.21110890969781063 0.023613782764198045
P 0.3007663580648725 2.765599305402085 1.766774670337621 0.8834896673699107 -0.25548512182034067 0.2186792658459008
P 1.9803771313296545 8.782113972994201 3.3400522027918043 0.057548744948746046 -0.8395376872689928 -0.3392282657762674
P 5.29697935745694 0.24080851071613837 4.216665609337221 0.5721118481470083 0.041402731316502885 -0.3772947336306857
P 8.308485970287617 5.248020436520931 6.6527347231023635 -1.9275326429772677 0.4927372655724224 -0.09258696749980184
P 4.338671128104436 3.8279499169652413 10.569048199011355 0.4391793869506243 2.338056313864412 1.754292226190456
P 8.353199789981275 4.187680170259769 10.568829398638952 -1.984215697491609 0.8616592017583806 1.4023313433388687
P 2.0142631377223394 0.001230518333685793 13.172899796636614 0.42381858822383783 0.23608923379223212 0.9402719664662774
P 0.9151559336841157 6.508319932006034 0.25319036768777003 0.3853960225815814 -0.3657818478950797 0.13311783773431268
Ni 3.2815193629966695 0.571647764410192 4.779870858523363 -0.8982732534369885 -0.9513161400955811 -0.7215019406787833
Ni 3.3471127225012727 0.360500729819571 1.8289336120309572 -0.9445207144403024 0.18003969909683185 -0.017463446892086055
Ni 7.4717522042678075 2.5017671982343166 1.8456017121953059 1.008361205935031 -0.262963946695889 -1.1053401318549414
Ni 5.167718829760342 0.4774411134700877 6.43041671394294 0.07323658799764807 -1.208411800936151 0.674632015600122
Ni 3.660446076314426 3.5091746051718062 12.681172140901795 1.1204877861296574 -1.4557030740917898 -0.010411168030994972
Ni 6.272361496211498 4.5164885076766454 0.35570021224727394 1.5591555235511858 -1.6856815670005936 0.4421850065461675
Ni 4.631181044766234 2.438287038907623 5.4954771123985475 0.534319459889583 1.7601520274053426 -1.6276466264440483
Ni 1.7819420243579227 0.9503790534637082 8.972574086905139 -2.544604600774734 0.31087799676834843 -2.367765925113703
Ni 8.448789371480286 1.8762412446863515 10.34861897939148 1.168130070597969 1.0402405711421312 -0.5149222863098939
Ni 0.5684938598968774 6.179670552124665 10.813591276767571 -0.3352438272072227 -1.007435094576336 0.5054853092667101
Ni 2.860562407202335 7.291354102354434 1.1252426280084757 -0.9588487010272001 0.05076154682358354 2.093239213280879
Ni 1.3649496565079864 4.617398491393492 3.910963152272707 0.3921156006936021 0.22622236830048134 0.515824229298873
Ni 3.301295550502334 4.438646067494774 6.113149628648164 0.3007954157213658 0.6210918775901367 0.1417490310467494
Ni 4.220696585428801 0.9125378095698906 13.166631259471698 -3.3270902802257414 -2.414500867276397 -0.4527041609099365
Ni 2.38261449970728 2.5758694611101514 1.069975898045837 0.1738957909826231 0.08719767816343046 -0.7312492498735341
Ni 6.939450170072787 0.1584039892652301 9.567734475949724 0.649472999835991 -0.0003658679798509828 1.106908504783326
Ni 6.50577661143793 7.149208663838541 6.207865878746216 1.2427270292782533 0.08144612039163392 1.5886579038856767
Ni 5.125791442159679 8.183573398709285 0.8657725026238714 0.4658931487963847 0.8434002555481926 0.7505353517966558
Ni 8.39230334371588 5.853845006109352 12.942698428760394 -0.8073125086866999 -0.5752766190282351 -2.0420963718584764
Ni 5.601747705239271 5.406538501193995 11.735215847102474 -1.2890030295266575 -1.6307779729841787 -0.14874783096208577
Ni 6.064753604396714 3.9467847004212655 3.0590657724099017 -0.05427418796253233 -0.12431463762038591 1.2997083317593037
Ni 4.715101273070413 5.598680759848322 2.0786082130510537 -1.0472509410216932 0.5777291943337858 0.3083979106589721
Ni 4.29781904147926 7.631588681441249 5.7822383765409695 -0.405941707943417 -0.9454180294435911 0.06517643669733292
Ni 8.761907665098342 6.189133200708936 4.79352905100068 -0.6119040404432816 -0.1986272322910321 0.05981157284099377
P 2.848275924752007 6.771394653269331 10.893500164911027 -0.29499320721729194 0.4168863798803788 1.0694035658593326
P 2.3726843289597546 3.5016568487866744 7.967442577858371 -0.49673378832632514 -0.06065026669220523 -0.12384746817598026
P 8.547483300143307 7.861478679556742 10.720804958159434 -0.7714918994436649 0.5680435916149055 0.18113138949911387
P 5.610555822794986 8.010674352294513 8.380054263038613 -0.9599571036000306 1.020499641069778 -1.190584028726111
P 5.241484476678633 6.190563818528494 13.734859566779846 -1.929585154630922 2.028579054098332 -0.32342960818111394
P 1.250331922964518 2.196222763660983 11.298489368741567 -0.12069066771455343 0.33337900608434196 -0.3763711933751518
P 2.6240242439253634 6.621114329112811 7.33212858030051 0.0020329712696287566 1.2553586019993348 -1.7905571220597614
P 6.836239977312728 2.152275680315062 8.115900500622525 -0.6302971982384887 0.38579171535810336 1.1839662662992771
