# total energy = -340893.6772937745 ev
CRYSTAL
PRIMVEC
9.04289179175875 0.00000000000000 0.00000000000000
0.00000000000000 9.04289179175875 0.00000000000000
0.00000000000000 0.00000000000000 13.23518620675557
PRIMCOORD
 96 1
Ni 6.620735161489411 2.0371374551382058 11.650127540289457 -0.9268358955660295 0.29135766734723373 -1.2945931220199254
Ni 4.566217268269858 0.5952076611515893 5.97853249582952 -0.11784188541184867 -1.328151931811977 0.12387909274486407
Ni 2.808369527045506 1.6624542753970166 4.685944251700262 0.025696119214523486 -0.5740746283003338 -0.027756344177661877
Ni 3.3446582265326716 4.120529301944514 4.93157632225367 -0.47246334581473476 1.487140980886097 -0.8364798742792756
Ni 5.217676237998462 4.343210513054395 2.7883892575654134 -1.4317722743078052 0.4794832287759936 0.46675215436257034
Ni 7.276905477857134 5.849204674151994 2.560465882066481 0.23628258074996086 0.7047247212204444 1.4027463193891
Ni 5.014364901170709 4.688187793161231 11.603856871416074 0.67846681596518 0.6092123525437315 0.44916658007032323
Ni 5.53381573608583 8.007824338023202 12.339693256154794 -0.5636020109037843 -0.44254238988558625 0.7257602017345048
Ni 1.7833306103779616 6.429297141623577 0.6759896223733877 1.1596878533678867 0.7950442328423082 -2.275880868776932
Ni 2.794090800859008 1.5971465106605471 0.2807727481726164 -0.3880923384668219 -0.2811017939471804 0.7082684727076448
Ni 0.6548844171506729 9.330365352733544 4.608545236308969 -0.11263797261340601 -0.11408241836941643 0.4512329756810487
Ni 8.507787741062513 2.0551056811879653 1.386399203887792 0.6194049768060171 1.4870715611007421 -1.5044403913964928
Ni 6.778813953424916 0.8850902185454075 4.794181336781987 -0.349570785352856 -0.6261572079281862 -0.7244913623244102
Ni 0.9253500772248917 7.286093055948002 2.616278610390143 -1.3548348404198023 0.06077290831299856 0.8734677643575345
Ni 7.366149777245698 3.682129906427479 3.772451214232011 1.121757139760384 -0.6764333304749188 0.6973132592477217
Ni 7.7274766057662045 3.9864955593629654 12.702258056565695 -0.2917487321380653 -0.24017343116393478 -0.0682915852875469
Ni 7.993554654728524 8.931808938583012 6.772114074874203 0.18329368725775527 -1.2982633717826608 -0.14036166378091955
Ni 6.906996944997813 0.5724249994959453 0.26334347847543127 0.0320112627992739 -1.0529855295126251 0.6370928810040835
Ni 1.967371544733628 6.542902991579858 9.0933936596778 -0.5331570641503656 0.5575275225749302 0.4323975881421005
Ni 0.10018800707121168 4.97648422732952 1.2905481677342778 -0.2319034778456587 -1.8184703035302616 0.38478641402204056
Ni 6.504561130255761 1.7477830026267762 7.1081687336205475 0.029244241577098026 0.8771590971661924 -0.38827411546032486
Ni 3.2744853859961163 4.146844117145723 0.20447696558357384 -0.0660315856087766 0.6172668474170918 0.6383614633038619
Ni 6.171701325190031 5.6736098007578155 4.795134457579997 -0.4666433966988479 0.5506066270853808 0.39058168054757897
Ni 5.481014290738801 2.8234801992796017 9.547743812079167 -0.4356968277186625 0.5031440627280431 0.006639102583072437
P 0.18450393041693858 5.750881311374421 12.371431093581487 0.22969232912695278 -0.7171192382300553 0.2019411271556135
P 3.8085676198787826 6.1982512555786045 12.902017345485875 1.3288098771109502 0.374084197113188 -0.5428123278519426
P 2.307320976987587 8.581062293493918 1.3153274999041578 0.31362522049618247 0.15042701843672157 0.6168318167622021
P 6.217901459507204 7.877073165172937 5.830430726440919 0.6973613388768377 -0.41265203008405704 -0.5794526047827957
P 4.636362980130948 1.0599173504239223 12.519705582203883 1.0967397917804402 -0.28219528412167527 -0.1878280847929991
P 4.0066883368008686 6.175282310351434 8.308798906525542 -0.008656647233733479 1.7749106737717564 -1.5833578318290022
P 4.75155133615603 0.8521759008927072 3.4978213024738896 -0.7624120486295838 1.1019730151549214 1.355370144097982
P 0.08363318501318698 5.281654697637139 3.655002135251498 0.7453296392260003 1.2629803802106507 0.4412414116859756
Ni 1.4916521346683496 1.3360872666592827 2.5236721638222623 0.29070512136489934 -0.735137786294663 -0.713547718828713
Ni 1.908448061623294 6.358129582986632 4.926493312760681 -0.2844645397718262 -0.1389077049432124 -0.7797155729050378
Ni 5.74494013144755 5.466997808415133 9.388776103877587 1.7057184310468108 1.225934640311263 -0.46651689842331273
Ni 8.664320198496505 2.513137194849958 10.096964751160577 0.37733021485431145 -0.2575826277793177 0.8525430983897252
Ni 2.418078316020026 5.228473450833597 7.119154038605574 -0.7052839361580241 -0.568324613190434 -0.46014519056901404
Ni 0.4930691023144324 -0.46331165819669495 9.087318644951967 0.9247137070167043 2.0267707972449993 -0.23031325054040336
Ni 1.5714646978868594 1.1159923226104145 11.459077460482773 -0.6925734305698912 0.9824205748098693 -0.8607127786847113
Ni 4.02266712664985 6.693575655113374 1.8965620846128235 0.30636879604408523 0.19263219104986182 -1.3678721332197346
Ni 5.6083834220477415 8.211614948117505 7.920888688916721 0.5210016597347543 -0.5544506834218192 0.6525894339777857
Ni 5.1662764408838004 2.7788173565721213 4.925461518803823 0.7919763925502619 -0.4227387248960977 -0.5925325778952053
Ni 0.8937515003322518 7.588225114603523 6.81073445726641 0.1812514600167459 -0.9244702235473305 0.6608300767200231
Ni 5.206101336466659 4.684968523672698 6.980767047901049 -0.5725301666313495 0.15398902475636705 0.5892652199978433
Ni 7.985841068004596 7.0105923137074475 9.221734901857575 -1.0860514588286587 -0.31079340747434214 0.6972235277473928
Ni 4.649755502918916 0.506917386850216 10.290715038465224 -0.1575335475745158 -0.4353628414180115 0.19304536732788044
Ni 8.499802867583933 7.274671883577168 4.766493810602242 -0.8898639463273708 -1.2099254093672003 0.07503970264465787
Ni 7.327419071573266 6.2827118651934795 7.003292891428956 0.0021815810323510816 0.014436230029988041 -0.28794067124588474
Ni 2.3020851426228104 5.151545570106217 2.6983365236479866 -0.4475778954269647 -1.1195128238108976 0.25503620720838016
Ni 2.4186299324211507 5.483148413208728 11.38204829936699 -0.9102481664106775 -0.5434630740620641 0.3461946697917715
Ni 1.0186455921495876 3.180321753456535 3.9382218899510724 -0.5673355098042874 0.9736045191801361 0.27009361576213486
Ni 3.732770100629117 2.508290204833515 2.48957865307601 -0.3188952106458702 0.2671317049203335 -0.225203954338296
Ni 0.9563400674979297 3.4547554344621254 8.186505550396133 -0.40002071447329174 -0.10604746388008188 0.3582605998173701
Ni 3.6122193097537534 2.8081163260744977 6.880125991949568 0.4700868751627581 -0.4551904176668999 0.6894819361287609
Ni 4.040336937269492 6.73747889490783 6.065725867352918 0.6875366394769321 1.1652494066160641 -0.0736191681480474
Ni 0.8700157178785984 7.494848213652431 11.311901683216716 0.21660258582253017 -0.4557357486474087 -0.33509033234849384
P 0.22135552316881615 5.651798345683824 8.01207901862532 0.08426404945640327 0.2986788835989953 -0.7727185727619144
P 8.576278603720228 1.4744887259907231 8.129792150047027 0.4935052540866985 0.42658946610075565 0.2515886149794119
P 1.9960827262675922 3.4056163603028935 10.330724409041247 -1.6437108789957628 0.2798103288292665 -0.1991738488231215
P 4.040463537754997 6.010746893655218 3.9108391092257184 -0.14324052799061138 -0.4860058603858598 0.5749539455814936
P 7.023758764199874 3.9978715172746906 10.438909045350407 0.4624190742048552 0.6426333512063384 0.9415261505883527
P 6.145558324933436 7.634090661923292 10.296485307736665 0.548223728675501 0.6192859347296495 -0.8382161402440919
P 2.481695059985834 8.58006757539353 5.676042338657858 0.3421269274803011 -0.14963871820747132 0.7017440413255656
P 6.89616356059539 3.866315527052293 1.602357929217405 0.6228561685794112 -0.1953490757603926 -1.6387098262367454
Ni 5.2737240815094895 2.894078055731778 0.35977778115144654 0.25111733176994816 0.21075949677819186 -0.1752016542782402
Ni 1.5162940148825395 1.0083366954728255 7.116149085653216 -0.17677208408915362 0.733058278057815 -0.41211158419955474
Ni 6.9701253728052475 0.7512635581865756 9.354999998634279 0.022417191352935583 -0.7312114546570633 0.17349367044819797
Ni 2.8026725051978216 1.8928581161226468 8.991469417376816 -0.1428003551293992 -0.7347500639379411 1.2982749417468866
Ni 6.276870157076647 1.753886954606438 2.2138500299615496 0.14021202557693271 0.5096317273349158 1.7107289968875246
Ni 3.996885842066123 7.076053807604887 10.373249512122074 0.5673550501883131 0.31297524561700935 0.025661923542478385
Ni 8.201125193604309 7.095550282372518 0.662509383534748 0.11113284882278925 0.42271712762954294 -0.8600103533010479
Ni 7.382101438419214 3.903753099194218 8.077764776239938 0.9834664995758805 0.2862771675005328 0.5289512535991341
Ni 2.9933509221506314 8.340069226445053 12.305758900304602 0.6326641558087684 -0.3887387138015692 0.9340912915768622
Ni 0.176088615287645 4.98216316339356 10.127564088506919 -0.13572287945732756 -0.27198594768884127 0.8081789704520533
Ni 8.674421108661367 2.1709360825323905 6.012030080004721 -0.005506531640526001 0.9405193065903932 -0.6764197036281641
Ni 3.728357169420117 2.8207673317330855 11.430860020842275 -0.15983622756576343 -1.3097137797114478 -0.09757722162554164
Ni 1.031947686019339 3.348004096506709 12.313302480662284 -0.12278431701878854 0.5127887849066588 0.6168901808039634
Ni 3.260405603429697 8.56105037389245 7.996500828884042 -0.5850049020595925 -0.4178240612032998 0.32604467720645786
Ni 5.503621520293103 7.853073330278089 3.5243450084761796 0.07123344152469023 -0.16481876838201936 1.757075702472864
Ni 2.866840865564754 8.245344934612525 3.5097597282569257 0.9576788490888153 0.7120711342831866 0.23911053711705915
Ni 3.671188007323196 4.453090691580128 9.417801073757765 -1.27027717098238 -1.3605277770395214 -0.03638342372504056
Ni 7.110688083282078 6.086535370013062 11.592540596590373 0.6274720700848677 0.05575334361122011 -0.5201341695281365
Ni 0.5659105002275775 -0.12651276945342377 0.08280304754395298 0.08294404509339909 0.03574116215535135 0.7494102370532771
Ni 4.638940204300138 0.02845345911704523 1.364825576868712 -0.6084646757444295 0.4300848808485238 -0.23536212581822044
Ni 5.991006260808402 5.658462956956432 0.5611331404781622 -1.0549781344626217 0.2632259421080241 -0.8839874329419356
Ni 7.906661507213607 8.635156872371454 11.3782891692367 -0.6607375170062169 0.14634950593323828 -0.10021697324123387
Ni 8.99254100005769 4.692302308940113 5.874331253367828 -0.19809629948822657 0.4922492701924103 0.003577175828297065
Ni 7.896470168130528 8.728072585839637 2.8553853302049976 0.14238049398316124 -0.562677956427618 -0.8685371598251365
P 8.389352986873433 1.6657006735610145 3.4566472074312293 0.44290928630670173 0.11169514908416248 1.1970189857181772
P 1.6988609578712655 3.3583129931834703 1.421313809211457 -0.17264520640497363 -1.1425740765057355 0.5208000852469095
P 4.76516088834772 1.381780999034439 8.20672907366623 -0.6898668302720055 -1.5723316559218277 -0.6337838712355084
P 8.563293011064237 1.5039142959786034 12.329475692685431 0.5764523845038911 0.7406034373949245 -0.11323292588492756
P 6.380809155675509 7.694867937857079 1.5967061218288294 -0.39268355738193017 -0.13514643812856722 -1.5259114167860754
P 1.6845279743338375 3.2963691842046816 6.161693556810933 -0.11072430053046091 -0.9226912772700366 -1.3813760812434404
P 6.813900373693194 3.7713742058160435 5.958719519848128 0.6808306882116661 -0.15167863145563557 -0.18750643978752224
P 2.4549009715180743 8.777220702890691 10.153704375895964 0.003594402219477681 -1.070844154960601 -1.2987544524864665
