# total energy = -340867.6528889769 ev
CRYSTAL
PRIMVEC
9.36126862011291 0.00000000000000 0.00000000000000
0.00000000000000 9.36126862011291 0.00000000000000
0.00000000000000 0.00000000000000 13.70116287707005
PRIMCOORD
 96 1
Ni 5.860004390370512 4.551645400985234 13.128084003714104 -1.4001433345486145 0.9812849185435293 0.10482156189278077
Ni 7.499125084727422 0.11220416595788545 0.75606473422508 1.4707203734362286 -0.3512229762442983 1.307459179349316
Ni 0.33935066895180427 3.36241791635384 5.3429599922864375 0.29536113207967196 0.32582279100363887 -0.10099653171973574
Ni 8.648988434713987 6.478634467390444 6.831920320844577 0.29137360818683367 1.6007703708784948 -2.6201598096032295
Ni 2.2466670293032434 5.9520537449395 10.89656257094876 0.38134884909540134 -0.2597729505624171 -0.7567443088208452
Ni 5.819498180951209 3.878897829938727 8.395524597183325 -0.49099225785685763 0.48858287708441667 -0.6456613393993849
Ni 1.3556427573022878 7.037408592705494 13.046246857108029 0.15206455404014457 -0.0487835971616063 0.20132920460322745
Ni 0.8288392366576348 4.476296549675788 12.287106946133644 -0.21141152853989398 -0.7901110572067489 -0.6269511645843913
Ni 2.939550689201362 6.317976374935144 8.321004218148808 -0.04095253115296173 0.5810464316324767 -0.3288955163916916
Ni 8.195172853426955 5.491900584780994 4.779637226537638 0.8789899797273443 0.6726409533120221 -1.668442834524804
Ni 0.5111664575029834 2.1405757717693943 11.296101516642283 -0.7866495810207097 0.7528238907205164 0.4205370892590886
Ni 1.1598424623602612 2.5881567481400283 8.18356768868993 -2.243297278413956 0.14695885738246303 -0.28416012115753
Ni 6.194445073918937 9.088780835573445 12.708349057049654 2.0739214867888736 0.600925687054907 -3.5077365025583203
Ni 6.541186464464579 4.375325906089792 10.490911652958067 -0.402778479724087 1.3678441081952766 1.476140001789903
Ni 7.839706760505812 8.766575330141736 6.107169966358002 -0.6032283670461547 0.6211294156962915 0.019009708333283387
Ni 8.04305223797429 3.5131530640473048 8.96573912890728 2.287587615690899 -2.439407657820405 0.3410784316111287
Ni 2.8423058305353757 3.969917444956958 3.856411126530798 0.45675390549927786 -0.4787656338836787 0.9341923359311007
Ni 7.427136928860899 8.511115670136336 3.4809999146383652 0.8016419406644839 0.3733308638869312 -1.136558980659907
Ni 2.2844491095473636 3.4401632524359558 1.53881844535204 0.1259262050818799 0.9089991244949248 -0.30875632243965534
Ni 6.181358020355686 6.512316311968825 11.764900744519686 -0.41540516734916205 0.3209155835100086 -1.698103080593398
Ni 6.183548557218204 2.2459462116177136 11.116328649744348 -0.2676904056372809 -1.594453170411215 0.6011851113638809
Ni 3.130866936463276 3.1239115138613482 11.377719609562106 -0.22909017676657964 0.49602519229507475 1.3904117090831474
Ni 0.8077997853819509 0.49980000511636036 6.8706263583037845 -0.5967052212156562 1.7281906440073977 0.4148927464891177
Ni 4.9329954017049396 5.3568923684081735 4.122597864274489 -0.1961648867934686 -0.5163975853038397 -0.3707175946338003
P 0.7090018922480507 7.601574808759049 10.817985954211126 -0.5110149808356876 -1.3421785851083725 1.0279183021313523
P 5.3911639729110785 8.724870878336098 10.813478503359406 -1.7694864174323914 -1.33760690657729 -0.6900596630091019
P 2.352215333255785 2.439387466861644 5.596020359138576 -0.16547877056352145 -0.12534667842932604 -0.3610029384491976
P 9.353021365566207 0.8366381095643188 2.087208115361142 -0.046376016161378195 -1.17417087747541 -0.49576911042021066
P 5.949460673525323 0.9457034421461256 6.152945633896586 0.5187069501633066 0.27983115476487286 0.05301203342065709
P 0.9736655515834862 3.763070853015907 10.056228632524089 -0.5261055566202231 1.9478854956020069 0.1087581779430256
P 8.128885710164166 4.568224207752413 2.8380726648549017 -0.9232890587550358 2.0965831900524474 -0.4376770913734849
P 7.085188507860596 7.996657790578388 8.034444551456831 0.4404986199826801 -0.6214158365884588 0.20227382790468387
Ni 0.3645109506842429 0.17065967187373893 10.06239396405253 -1.5074372692412876 1.8072312402813326 -0.6544246874143117
Ni 8.745727784873239 5.809341204473292 10.70122472267771 -0.10892812786198659 0.13457591033707791 0.6342219872141917
Ni 4.524731753635916 5.79850085538442 1.6241220697367083 -0.8298651971762353 0.31776418236522047 -0.29973740677049665
Ni 0.6036726419817614 9.293811341397706 13.600500425795257 0.2929592075063987 -0.3891508616383233 -0.11816121642448038
Ni 3.9141242838432424 0.8729308119672995 10.993936615122024 -0.33263955681515617 -1.4217143758511708 -2.1908544872332074
Ni 9.346721231769305 7.776284165447854 8.492364112917059 -0.4206229641046756 2.165878019793528 1.431416433630283
Ni 2.8725052831784708 1.1786679736018186 8.614003501540468 1.0520419346524335 -0.48825017633534623 0.0567280488196636
Ni 5.403661266549805 9.37399996859571 4.254745276949935 -0.21390961237139938 1.2760572679992668 1.9870683364490556
Ni 6.44485901012563 4.854079907042418 5.979063813355842 -1.6680139745175018 -1.0458319491869796 1.2555257237048185
Ni 7.4250400046848135 3.1735075151332386 4.37721969073632 -1.473778957756894 -0.21325320973432305 -0.46682903034709283
Ni 7.673450629401854 3.474032322387201 12.50173556069782 3.1092275967438643 0.898318247742311 -1.2994237106393494
Ni 0.5496291019774674 5.6333212701744335 8.580709213483917 2.0005941388496318 -2.805884217789665 0.6999355273619171
Ni 2.181980662978449 1.1401837982094554 1.1956249756221853 0.16754670883614373 -0.36879749479295193 -1.147799586570733
Ni 0.07283535067873584 7.868651803150713 4.468155054336762 -0.041299630079735326 -0.6127612462372543 -0.01939820202095369
Ni 2.967082180281133 6.841552130151608 3.4506244701447772 0.780665595523133 -0.8443291951203653 -1.7178776921171641
Ni 6.969445782355565 1.4560330022324035 2.6905521768135254 0.05300020634611517 0.2798627793337567 -0.032754825833517784
Ni 4.965422836285125 8.595591758372942 8.554718587222823 -0.3680068805708565 -0.3923089476513308 0.7008618958309284
Ni 5.330868041579963 6.074686364165956 9.19861847281832 -1.1862098109178152 0.9232106401086164 -0.018154302311523575
Ni 3.1701093746157425 8.234162537326053 1.077286370322384 -1.1833252902811686 -0.2540072517232335 0.8541178990760128
Ni 2.914481211774763 3.805795683103659 9.24705180452472 1.4215061164951068 1.5443202583105662 -1.9600061901249406
Ni 2.3721454741972448 8.554870239774843 9.871783556446315 2.0148115680005945 -1.1456239190756528 -0.5230662555732669
Ni 3.497735054591887 0.5992934405104533 6.038951593374113 -0.4290566966943255 -0.5844390022537935 -0.9172243406181946
Ni 8.935003275570926 7.310598495521193 1.3854481005355024 -0.19781116414763997 0.7085654351227731 -0.2712428988752297
Ni 5.059934204507286 8.110275508101404 2.4856789403024697 0.42533759597152554 -0.7284842855338873 -1.3954675263395
P 2.2664005836031955 6.216144494633969 1.4557072300836187 0.11235206594187103 0.04253427381778481 -1.1006694658521494
P 4.315853766399282 3.578747473430494 0.632111239993063 -0.4324541524116488 -0.6387147328782227 -0.31822543827235517
P 4.970290695979611 3.096398745318863 3.85928878051173 0.3652159480892807 -0.274654752770256 -0.5162379197975238
P 4.6302800575884575 2.3916075517065423 9.628204282476052 -0.5732063667627676 0.41194214850122607 -1.0558947327396204
P 8.490689381956784 1.2613186144529924 8.386016356622386 2.2286700154190844 -0.19246892599912013 0.662829109427923
P 2.0875348236367914 1.0662484984651386 12.145587967419448 0.38842555343652463 -0.5551461668269472 1.3854929316252913
P 2.9675502437132955 8.54379585896989 7.604693047344114 0.4872952686212446 -0.24048067799170844 1.7344836761049611
P 4.3724426353476735 5.07802953679467 7.077486056020937 0.16643187850541014 -0.1987845838045028 0.505435172755065
Ni 7.55255920614304 5.679837414062698 8.599274481457192 -1.8842082691580195 2.0513495150256285 1.1102365407152943
Ni 6.363153857407425 2.274404468293166 0.07120929831540489 -0.3253713052885171 -1.0708171583774073 1.518121231317695
Ni 8.328514763981278 7.866573601511913 12.372602476525499 1.1937300305542604 -0.2325123150742512 0.8106922237922103
Ni 6.932234739498682 6.297821563546247 2.4849253581766892 -0.12938999526076425 -0.23455737052873799 0.3146166378751743
Ni 9.13405193073216 2.9461316610575605 2.3765630568699896 1.8532665852738404 -0.9613377859976411 -0.2253811033461086
Ni 5.944677065248626 3.9725386001770655 2.0351435475480293 0.8633185917386745 -0.8402043743187143 0.597448527139584
Ni 0.042341018073378596 2.2372495930481433 0.04167730412657281 0.08933863576583324 0.2616316010377107 0.1473730621017462
Ni 3.3057354347190167 5.313212688918812 13.139346546018789 -0.16912228085337971 -0.2562124869046684 0.07742568637833118
Ni 1.814344920821092 1.631744014666035 3.385133034716664 -0.07491037615564518 0.10060109605352999 1.2572167382539963
Ni 4.711292476427065 2.3136562677142756 7.229733984727149 -1.4425349121409479 -0.07090511165099403 -0.7707143978476919
Ni 4.12327374787053 7.822163743068378 12.735491119353867 0.1878442827429152 -0.3973017728802319 -1.4038400666739115
Ni 4.306033795592523 1.5861827201793817 12.989333152137716 -1.068145010861883 1.139626049621005 2.455920567873764
Ni 6.573894737104063 6.9068657014755 0.23448573761021974 -0.11259812051440607 0.3841271831714868 1.5569808844973703
Ni 8.094660912004478 1.9774182205863486 6.383207567094975 -1.2316998249298141 0.10536894975581854 1.045383291685335
Ni 0.5224692532628326 5.159996805034887 0.7427492657069342 -1.0640708407925095 -0.9372465493763923 -0.11659412904767663
Ni 2.1562933418213954 4.297861408066973 6.71811818632929 0.966734274422864 1.0076112151428838 -0.08029452328569398
Ni 6.3728802155277515 1.213772731013972 8.642186536917809 0.1789420951572789 0.201402223933008 -0.27481236139404286
Ni 0.981744326422603 5.33961146649275 3.045343322265492 -0.8023363956283472 -0.013800910438834297 0.584178035282923
Ni 4.5564196479932875 1.324993963764317 2.2489221589194 -0.2726942866097755 0.7678000524143744 -0.13182585839576652
Ni 5.721813342658991 6.984199141737312 6.597452369644779 0.2971822444488108 0.479627981883974 0.0010901477403852194
Ni 1.4128588312497763 7.79264766303624 6.485116209799025 -0.6098319884056014 -2.6604189142335923 -0.17483758607060212
Ni 7.297979505390104 8.098152665208406 10.330567163002316 0.7133700556002682 0.23231305457925153 -2.4723452890886906
Ni 8.797598574425438 1.1181848168978392 4.353133146517261 0.7039400205356199 -0.9386071771693448 -0.9677534597159978
Ni 3.4667773391886896 6.6707183386811035 5.710631307264639 -0.36055170984439194 -0.5706427198006494 0.6541212972412799
P 2.1615824586048267 8.35301320402064 4.569255819556899 0.5080751814810734 2.1553917755502234 -0.019827062028256175
P 8.001244812213576 1.2191086541406195 11.981543904095888 -0.09408694908409602 -0.28174868350255994 1.2504171988336594
P 8.127200681808382 5.702669548283562 12.96475326906116 0.38146891961303336 -0.6179049952217229 0.06157972048501008
P 4.49935335434409 5.209302606978838 11.1318795892145 -0.7639472543271876 0.01146172078269639 0.31004521645440797
P 1.0177009592812913 5.674052150041175 5.191631340160991 1.0066791902469179 0.3850162706446595 0.6615749253058477
P 5.030305789251428 -0.025413972112670397 0.5373976683682088 -1.4393264325059794 -0.24786797159471505 3.422889584015253
P 6.039506716604657 7.146326953369601 4.323593663313514 -0.06426575195760545 0.7237861087272696 0.9540497369766602
P 8.293512980524202 4.436698383314879 7.000677782930008 0.5170506455068064 -2.002161997557384 -0.602427468411414
