# total energy = -340862.516818505 ev
CRYSTAL
PRIMVEC
9.29988718143612 0.00000000000000 0.00000000000000

0.00000000000000 9.29988718143612 0.00000000000000

0.00000000000000 0.00000000000000 13.61132493703333

PRIMCOORD
 96 1
Ni 0.15016713959914854 1.8974559980934325 5.357540433226742 1.7345530958903161 0.8584597209844763 0.35165389313412987
Ni 9.159226467295346 9.169447043396433 6.81205954082175 -2.1881972521160185 0.2543157841025878 0.43235465071930707
Ni 6.216239943643633 4.144810954537438 2.980267911708161 1.4373577388153826 -2.389382474942214 0.5514126679264438
Ni 3.7314216658482686 7.592772056635828 7.628562672764154 -0.46991512547158426 0.41100575272988565 -0.269468066362994
Ni 8.278601542669245 6.730691107210425 10.228012290941324 0.5215832432698372 0.16902277916103794 -1.1130261876452896
Ni 2.4039743578256227 3.6561390784612846 2.598456390217572 0.6179024241185617 0.2310439580588408 1.0710984370632521
Ni 2.2459320736928983 6.575866584070399 1.6285404580215328 0.0939913040464962 1.214062057243393 -1.308980758200165
Ni 3.5226112971515486 4.592814423616274 6.170653756262098 -2.6547714861398277 2.260019990485276 3.2107401488680707
Ni 7.803665600079266 3.6515542340410523 9.637049094891493 1.7358422470153845 1.008532955626205 -1.2357475126366264
Ni 1.1821551693263084 5.655605539933078 3.4155854045727185 -0.10331540966089947 -0.32851987821982775 0.8005168259211052
Ni 2.200148728701407 5.595835164499335 10.635413382222403 0.2050645032759436 0.5078620370290028 0.7066216811328411
Ni 7.26306315353135 1.1314707837476718 5.5160030722637154 -0.7126609453483855 -0.4687673850203862 1.180822835574289
Ni 8.075705902271244 2.296011966599496 3.5228558841865425 -1.3067876072035882 -2.9497142997351586 -2.432818948859294
Ni 5.483715723667034 5.757960099140137 1.5734693156213473 -0.16538543951876677 0.6594067140099353 0.14442914898207385
Ni 7.747717478310261 0.7907973135611374 1.1546526127259962 2.4538192052600447 0.36637680116660126 -0.6241260364307702
Ni 0.15744709134794793 7.368328577451458 4.76190869377132 1.908818611507532 0.7999457839089835 0.15131636302021037
Ni 4.302118547576454 7.8191406124834595 2.235319972338076 0.5851787086332955 -0.7039582753680651 -0.5789643522924675
Ni 5.253748111448957 8.92582719667754 6.289724862822847 -0.19053571353214926 0.8676231326512993 -1.4590997584781644
Ni 1.4577387285651588 2.7959553060373574 10.336317848007424 2.521797373072231 1.8175922718006827 -2.56886270199115
Ni 5.588051158860928 5.4312736593958535 4.76442617325318 -0.8392335257650128 2.270396448623593 2.8524180996851456
Ni 5.52847608105969 5.08629434140695 7.7869434727932205 -0.22550220230500517 -1.8595099950803908 -0.640672885045858
Ni 5.332639055093648 2.4281354649326503 12.86515249221447 -1.463111964961351 -1.3046520489178242 0.8349133011231041
Ni 5.607757619969393 0.47832389151957533 0.8176814276585176 -2.16600143274527 -1.0173976051056866 0.8747011225440033
Ni 2.3183223961413586 7.558250875118782 12.210964942601741 -0.41587645055862565 0.5470309939189805 -0.09677606588048494
P 6.573439313494981 0.5660925075447019 12.528748600269983 -0.1854151044761323 0.7676427009009038 -0.6687593588694288
P 1.4148290487376673 7.805488377982645 9.93497377330017 1.3478599517638656 -0.3079148003749665 0.9721323055099838
P 3.404214432417306 0.6941175455614329 6.971870663511733 2.069525671714023 0.6300197762073859 1.393235808795504
P 1.5752986034458094 8.245986838040938 3.4616458862046215 -0.06160954528168099 1.740767195120828 -2.5961986708019418
P 8.787249576584465 0.03235523777369437 4.363573132593369 -0.3521688850973354 1.7515514302205253 0.103190454047261
P 3.7419677380035297 5.643180890550865 2.926489453637412 -0.018739228280716117 -1.0263512147545486 0.7129108565756624
P 8.813605457085355 8.215873803086144 13.802564388440622 0.947773159939329 0.15131404902736523 -1.194960817637568
P 3.1858158799533243 9.051598872010656 0.6871556499569985 0.5357847315811999 -0.8017581545273741 -1.381579455503498
Ni 6.5806374262358736 2.519237160552526 11.093053394482263 0.10975602307992066 -1.3165511143482551 -0.4297151562139309
Ni 7.514141509834475 1.2805851761087466 8.386018960501811 -0.14659041829945077 -1.4178224969959323 1.7462351602139348
Ni 7.96719481769665 5.753514753028837 1.0191244256661744 -2.0380391710699675 -0.4881049090067336 -0.6666829359563744
Ni 0.6137497798195134 4.791394916324645 1.168014690744232 1.1025723393018174 -1.7637304887852205 -0.02053488672855818
Ni 6.971902283128424 8.938986537153461 3.141466577577654 -0.5526779077921127 -0.12052534578128275 0.702548539504732
Ni 0.398340211121582 1.0994326721296164 12.954850834846491 0.3804415067897835 0.16431920303778152 0.4316679090649275
Ni 3.488796907066425 0.7696568098368517 2.551075324594446 1.7565923350785424 0.05226487084198741 -1.0785705770705813
Ni 2.2124803792109984 0.8449598569758123 11.060562378354543 -0.8956504711021608 -2.8640477135042737 1.0992867265720099
Ni 6.155269882753075 8.840119435669703 10.488329155250652 -0.7977179230197294 -0.22243410490264273 2.052429121243052
Ni 3.697170181061825 8.292235177395536 10.172532883490328 -1.1064243660580557 -0.8084314527824916 -0.4202049027306505
Ni 7.415646403841201 7.07733510501925 12.539338381895377 -1.1722376650084392 0.5110221799245392 -0.2556093061030308
Ni 8.986211364670584 1.6604483712179188 10.779352387322099 -2.1680961104907692 -0.6389155360351191 -0.3321261075138473
Ni 4.955612325599428 0.29791723849886814 8.677927541840614 -0.11663629513952171 -0.22039316321321398 -1.8423892762397045
Ni 1.488167959686865 1.2065859731639372 3.259463547159625 -2.2539136204772214 1.1763506587355483 1.3366687110337367
Ni 0.07331566123104238 8.708191234969053 11.476389167495116 -0.04655162250729402 -1.7006549004809743 -0.3012209332945586
Ni 8.767961610402796 4.164015221733747 4.0864327722268365 -0.41190126796096155 2.430304924188188 1.0453544953299287
Ni 4.700190921944887 5.96677976772412 9.730831948009042 1.9650828333168993 0.7327389470451833 1.5217349168108825
Ni 3.836380193488726 4.079721043589754 -0.09255433801022134 -0.6960017395251497 -0.13261261596312 0.8692771233149545
Ni 1.0905698795688015 0.669604902715897 8.965058771092858 -0.5424184348476336 -0.34426685664143936 -1.0117092964716576
Ni 4.221042130425159 1.5691792776273243 10.359375058496433 0.8683348140063433 1.0930458878686207 0.8617311926468966
Ni 2.2651921402127804 2.2718229598306827 0.6476785585179611 0.4425218210602959 -0.8532982313881949 0.42416363026808235
Ni 3.4286917356912454 1.4327871310408504 4.730057509887233 -0.49002115219283987 -0.17726804988896566 1.8997498164370445
Ni 7.863408075851222 2.965083055786547 7.060602747857216 -1.204301121201887 2.5117397317259127 -1.993617707531799
Ni 7.866756035265591 5.954224919920237 7.546308889885474 -0.8587998779327146 -1.529609948683585 0.2717872014144739
P 6.76738846234681 7.526742857074668 1.4790605800910563 -0.5665680355106435 0.443303693531643 0.11276395666830903
P 5.090525790111222 7.000257639390673 11.437405900069699 0.17845050023284104 0.8469674040741606 1.7587592608228744
P 1.7682898639096378 6.72074022783994 6.2364234889686445 0.3752041696502441 -1.2698102586482907 2.1567117799132274
P 2.1726675618417977 5.312532698832912 13.337179430068856 -0.6823347835610184 1.4620930367785334 -0.8662591624242372
P 7.741570252829989 5.032606092242645 11.378414855188522 0.8178380908083721 -0.9923704869337296 1.4824898552673307
P 0.25586593826567167 2.6858632406282013 8.217864908948968 1.2330483685379086 0.1639358515564338 1.2659291784263293
P 6.296749067671936 3.4535317345684087 5.431857692315916 0.3992113311981189 -1.16494884465651 -0.11507434996904052
P 5.792620778966115 3.3942728529340838 9.27693514037219 -2.442613823462529 -0.45696756417198076 -0.5670771139365781
Ni 7.094577096003247 8.210628666670301 7.808789837960703 0.34124246799281877 1.0154695348450382 1.9939555504871918
Ni 0.5289106282819594 4.728183582603913 9.238755383206222 -0.1705459006737837 0.6213230197643363 -0.7556834716564985
Ni 5.648398127304922 1.7402414039270382 4.002777496337753 0.06417602045727656 -0.27951208086255735 -0.826979390988008
Ni 5.896295922164397 5.073283799127224 12.812054785891311 1.6557032754709486 0.5568580073117313 -2.3125178032736753
Ni 2.981460157255167 7.118533605590508 4.4813385349825126 2.0006769283714254 -0.3519837656697229 0.237226689830785
Ni 4.753990769756338 2.7168597648728974 1.8924228991071652 -2.085707166569892 -1.6653572536209449 0.8534833508158074
Ni 7.355001839004818 7.8581536395481155 5.588346895275865 -1.0065730036863567 0.6743324820818323 -1.4285373123102754
Ni 7.926619409571955 2.801860734448813 13.107325276475375 -1.3177155669700016 0.6278165979084801 0.36236536601436303
Ni 1.0621215244339302 9.209222661216584 1.3342817951715886 1.1404881405109841 0.04478553174580674 -0.21194991754186726
Ni 5.370749993093878 1.9688233329430578 7.121037135241474 1.3899607375886578 0.5988086407119042 -1.5181538843278435
Ni 4.337039624245771 4.0699747617390365 11.12920484623636 -0.31784902876954285 -0.7345770286951865 -0.7412516125018846
Ni 3.80830383384434 3.084400609359741 8.192751493386298 -0.03609211773686687 1.0456699696878184 1.9010510517469712
Ni 0.6899139965189479 3.5507527560067693 12.232130556021636 0.03893112984755876 1.5022215293683032 1.5565440540702677
Ni 3.2081077097206623 5.49228091983546 8.462187827144877 -3.7027305089721394 -1.4901615128799754 -2.3041663459851867
Ni 0.3626556137080433 6.204912680958352 12.513558164416011 -0.7046244481971542 -0.6703853245086261 -0.1487884543920341
Ni 9.021569536041222 7.45405493823382 2.2449704653499936 -0.05745875633810105 0.08848965750197663 0.7167322872042817
Ni 7.205375952844326 6.083604951511061 3.545463910120793 2.5161779700029245 2.047007436006849 -1.6990975832961832
Ni 1.880688301359803 8.918703483034745 6.1690746354049875 0.88054498291929 -0.7396752691537003 -1.4337263127103825
Ni 4.32074622176251 3.705084385121902 4.576685629137553 -0.5659072619981931 -3.4668006835759066 -4.031283297312432
Ni 4.179378635490794 6.596242637061736 13.429627749364288 -0.9433961139175558 0.8636569489146998 -0.33389065561343784
Ni 4.269224846330282 9.018919068171513 12.345716589075176 0.5257659138926171 0.5507958602780513 0.5608517018521566
Ni 0.5754853936794584 4.587848283818294 6.702475249257106 0.3087108139137006 0.04203136603943729 -0.3444146950732133
Ni 0.3902967386285614 7.057386846841969 8.189376564298868 1.5264408069269841 0.7710599541125688 -0.4221208888064408
Ni 2.0723124783960976 2.3494956182440356 6.956108284591139 -1.1895751278456221 0.13985798467162364 -0.9363165813629551
P 8.231200017294142 5.9412236775277725 5.4540444333571925 -0.5645360926822793 -3.383135186935451 0.5477167071320954
P 1.4565762426573923 3.7854447109540117 4.698752229385434 1.346094632333327 -1.157242734261504 0.3804476774373706
P 8.031364039805382 8.844694980202673 9.672588614063741 1.6773288241605242 0.8469974859811477 -0.4198444340674382
P 4.858112307543203 8.729460077137558 4.048199075714747 0.12672890348883337 1.9998472333812787 0.8167353446624966
P 0.15679888920577711 2.453012663358862 1.059494306282377 -0.6246451421590339 0.407437318652337 1.3151987140854189
P 2.8729397727933117 2.486315559644568 12.178093561085 0.6295518354320319 0.9345983131202679 -0.5889345761313018
P 5.774290701172446 6.893197337228973 6.808670661903427 -1.045531130117109 -0.630873639567249 -0.3707157948615874
P 6.011270428386174 3.774666141617197 0.7741440054408321 2.5271804917610154 -0.04074967111353627 0.2731408872288909
