# total energy = -381163.58391754876 ev
CRYSTAL
PRIMVEC
9.33477974577960 0.00000000000000 0.00000000000000
0.00000000000000 9.33477974577960 0.00000000000000
0.00000000000000 0.00000000000000 13.66239373195087
PRIMCOORD
 96 1
Ni 2.891513330666335 7.269683663569651 1.8345866421351202 1.9110672983323924 2.287401467822022 -0.9902135884917269
Ni 1.0895834815528516 1.3409597619323546 7.680314084695503 -1.4187583785466404 1.4248704049816492 -1.0061526283194866
Ni 6.93551722274283 0.020982717629211892 9.483764569409042 1.1645611222997878 -0.9224331385126436 -0.961395378708454
Ni 2.157818322115398 8.774646168640908 8.535307086581037 -0.858596760782973 -2.4680410052863815 1.9485835501102957
Ni 4.694320649064073 8.691986695108266 8.423548304539835 -0.31357714086706645 -0.8255940806047072 -0.7086613372706893
Ni 5.061746909675964 6.626050608789796 4.051527724449992 0.9142593444525996 -1.7761391468622185 0.1565066489718982
Ni 2.5281383644094033 3.8971584738786436 12.24513893696294 0.9219723968261412 0.45846626020469433 -0.43805272954534885
Ni 8.887942388885477 6.211072980795039 11.512205646428972 0.3702830781995429 -0.6142470867541615 0.028666771807073207
Ni 1.4075074058413553 6.642106429735717 13.315792418924957 0.06889553742013295 -1.1021468217286245 0.6649253298353194
Ni 4.975848267615278 3.3722824854208953 1.803490624265901 -0.05688437189186977 -0.24256507132456287 1.562962813112418
Ni 1.602277582606862 8.998615536056906 6.010496571106064 1.9300844628648437 1.1873765775324068 -0.9548964012476717
Ni 7.839637302811039 7.086815330819291 4.852772932241088 -1.2659026960637683 -0.32917833773943306 0.21074664126238543
Ni 6.589448937900864 9.395268991658149 4.789256291274611 0.1864533159326595 -0.18902261932173253 -1.7182931823880279
Ni 9.266542380702177 3.3374450878800914 7.966117965790505 1.4970189021214413 1.6070402630476066 -1.2629798659900184
Ni 5.040444942583758 8.305358792818607 10.610515409495777 -0.4533425658248838 0.9280327440876082 0.04451993678924591
Ni 6.619133537091582 3.563216067762696 0.3581064166395605 -0.2182079826364371 1.0891398679459952 -0.695236322114035
Ni 6.355500691071383 1.4049216718866921 11.186603865903248 -0.05069521236202237 0.38600434558954166 0.21812493600432759
Ni 6.681069799868439 6.785572657711231 9.696227887465769 0.4055393302986758 -0.2983922055965119 0.44583160215981926
Ni 1.9298443342425389 5.554651277936164 10.544321553734363 -0.9902110173885655 0.6112694921830764 0.7408471779746144
Ni 3.12568561220669 2.7164021997799637 0.810652798691852 -1.7240043738401922 1.3923621479412989 -0.28502889691572847
Ni 8.946518130999236 1.013953097073861 11.321287933212526 0.6236892060036677 0.5980823040688409 -1.644993859473244
Ni 1.03954906279114 8.431798382767745 11.84790485806935 -0.6309399740288102 -0.5651390163736009 0.5143540725112496
Ni 0.47583945763738467 5.899599389223763 6.716747327575018 0.5083574886081825 -0.3710551804788771 0.06762412690687708
Ni 7.951029228013185 8.32270281335205 11.474579950215757 -1.9676557362503986 -0.5103750332588436 0.6673357390490249
P 6.979633391225638 7.706691371466953 2.9328785395952104 0.19863417426956756 -0.9005921313781522 -0.19554036583559226
Ni 0.37358254777109823 3.634627131853572 10.408134586906312 -0.3065631714430785 0.32868520015309843 0.1568339504043299
P 1.6212645243533772 8.65489028089949 0.4928530269722906 -0.3531140226194241 -2.0355300314948686 0.5585186828436058
Ni 3.5169715695265915 1.3808659448066678 5.653265756794833 -0.4358320677449462 -0.17046799624799674 -1.8745146960193395
P 5.319526848874596 0.7904159299542559 6.587896564050104 -0.17230299257420648 -0.29111675498102124 0.23499754338995013
P 4.193295022534715 1.2890490524670786 11.101118754579716 0.02252260658254831 -0.050105658407139514 0.10548182118459898
P 8.842920746779557 0.3427759080700905 8.50999116425235 -0.8685970665287944 -0.5993449728313485 0.11583771049762631
Ni 1.3131701230044412 3.715877053663635 2.196639803597899 -0.31359565280982765 -1.2122854249589445 0.25088079027910987
Ni 7.736226614183754 2.659310687625742 9.337726609648294 -1.2623319479933743 -0.9273022936794868 2.1399494728532242
Ni 2.347529048327015 5.810190870026062 8.340891631441078 -0.8845785295587153 -1.661870580623925 1.642971172616261
Ni 3.1886953746398157 1.1018680515324062 7.856668608227222 3.097327502872169 2.4651027485936643 0.16718212640787336
Ni 6.834598920274012 3.302355651289555 7.306360946173502 0.28133165056979936 0.3658618092033957 -0.568314328777789
Ni 7.1993834382535224 2.6199832610878517 2.640421761065234 -1.6388165270179391 -1.804386057523054 0.2639111411005068
Ni 1.2956860807767014 5.953162354681729 2.3634299119312505 -1.449067571053143 -0.5585078842103284 -0.21858644902177837
Ni 3.4936066161384267 5.150782037688876 2.7156330139392986 -0.14410621842501634 -0.9298392011687276 0.4911704353059348
Ni 0.050391007343185176 4.398146761289522 13.247972444553788 1.5149472044650876 0.4214338900417452 -0.5404209448016306
Ni 0.27100545496385525 8.082005520857509 9.739537530989432 -0.7398948413636741 -0.7766443901788819 -0.710212483807893
Ni 7.446428380889474 0.8021628166277146 6.770344831717578 1.1259578081052932 0.7502065077023272 1.1909768932891556
Ni 4.832540730893302 1.9605930983099042 13.19060368944486 -0.27375486666380594 -0.03657188558676282 -0.43906960084563734
Ni 5.43875065417769 7.796734655678795 6.397839517514595 0.39295789408923937 -0.07358111582126038 -0.9120080865245777
Ni 1.4412339646074122 2.627227050072756 4.892790198992875 0.806456845554624 -1.3102660526704917 0.870111960511424
Ni 3.3350180451789635 5.0709790067198695 6.397197284676759 -0.362701152087227 1.326501797803064 -1.8757161725266083
Ni 6.132604823311652 5.15702700525447 5.831997848695696 -1.763947489892033 0.35712262955818497 0.5546319461946899
Ni 2.4701320438524488 0.604895586313932 12.670230798675666 1.2788474291498941 2.144603683795784 -0.7761859624852244
Ni 8.78933911176235 0.24846943000592156 -0.059601634393965215 1.0936405840298262 0.3887140312112209 -0.6164713480989898
Ni 4.79191576998827 5.172896130607998 13.491107981485 -1.1023892767567336 -0.5448784663523519 -2.103972540537983
Ni 8.421744825117305 5.809714796265456 1.7572573277653405 -0.16512010167252206 0.24908538894158389 1.6538873053081324
Ni 2.116866643923676 1.8542046149839289 10.590322414222396 0.49697290092032476 -0.9099956840802392 -1.6238737896651776
Ni 5.047819418483338 3.613810573301591 11.504678080143629 -2.438478718248233 -2.3203781798583587 -0.4475861229570808
Ni 0.7723736679052565 7.106950450459032 4.305279706242715 0.7777175686384026 0.8846818879057989 0.7575426363524244
Ni 9.09932847337409 5.685338192612275 9.093456896993285 -0.04442789129607187 0.06713587441654889 -0.26012544880582944
Ni 4.309503694020639 8.596454560480028 4.253061882527949 -1.8294358014028298 2.6761226981220942 -0.22188414593644368
P 2.296169090859303 3.3701541556675987 7.098829192189873 -1.5493933019580994 -1.171011763021138 0.20129475182086623
Ni 4.144782172851018 3.6014979989831777 4.606850030115426 -1.006145429230635 0.7037039932654138 -1.2794459819658415
P 0.9701263067592647 2.477086454669142 12.216556775245312 -1.7216674981768993 -0.19455948997956168 1.749866843429251
Ni 5.366742164191152 1.596200641074423 8.781927296744291 0.06474834802097881 1.3965232212975238 0.028032994877816235
P 5.888369649341237 6.933678271157746 12.133571517903942 0.8015966892488453 -0.7736225726334225 0.386760764139592
P 2.6861481790324433 7.5980812105914834 10.755951275971054 0.14578463456870375 -0.3487698867181155 -1.5507577864057938
P 5.373939279277958 1.1581287683004726 2.5471346409355387 -0.652367804885283 -0.02549017385130449 0.32341700977562365
Ni 6.885305443168344 1.4631426923749005 0.6179297390969504 -1.593540685899275 -2.322945683475219 -0.823322510961711
Ni 8.284616912503584 4.604818782070175 5.525085230446616 0.7446470113366788 -0.47580449437282574 -0.9532406108118037
Ni 5.830195302751127 9.18508709374048 12.852445696852646 0.23916067362870427 -0.8431146059869737 0.2515719028088635
Ni 2.8444006979255962 7.33025704852203 6.950114017634191 1.5180340709205273 0.8522440790920677 -2.037784117636368
Ni 9.074161907519319 8.070430394129053 6.663327184245233 -1.254951082148271 0.8450483326745769 0.9143827574043413
Ni 3.4255560727106507 0.4491177174979675 1.1463912164066339 2.0096163969529 -1.333770306440019 0.7453977734597743
Ni 8.434066734215339 2.2735789241795747 4.717118981329321 0.07986412061649471 -0.6929575533821872 0.09341332005583913
Ni 6.7707116885566325 4.724378639439579 11.457625189992456 1.9579313098737827 2.8427049861624396 -1.2222733894095916
Ni 7.37427053442902 5.534992232057028 13.600544270356814 -1.2015721523064984 1.3763552309900813 -2.425152947673604
Ni 3.1620632483847477 1.7656548955112426 3.15931882317655 0.8373417080589386 0.8435558072894505 0.18138412893986827
Ni 1.285511170991204 1.2749068613431993 1.072758474766264 -0.9680092844805458 1.4554004552497064 1.0568938634280958
Ni 1.6124151532738804 4.777540209373898 4.468490860069864 -0.1787808869890663 1.0933719037494718 0.02973172273647783
Ni 7.847478517691605 0.2784891477849866 2.2364657073674827 -0.4838325068836248 0.536630881631579 1.5400568550485219
Ni 4.8192386699351974 6.087237794359802 7.913436203528639 0.9620381544987753 -0.5352890228917039 1.130784025849343
Ni 3.4017617194599787 3.6278500818496533 9.66007708643247 0.13228711430290122 0.02704312016072117 -1.000360961338374
Ni 4.452531187354024 3.2086624682464016 6.894931467912201 1.1941678894226273 -0.770326418380654 1.6362724204398464
Ni 4.305825790850468 5.714285344213034 10.519824291578328 0.8093987017917673 0.919440631543223 0.03962789880426723
Ni 3.8383586970540127 7.884453579765326 12.536557687999204 -0.919996761157009 -0.8735888633164309 1.8007260921729633
Ni 6.106588792511486 2.592669695920544 5.023348293710236 0.43245132419817134 -0.5905813677061056 0.4947195861097738
Ni 1.7593725888271694 9.232582452445628 3.1306694510456596 -0.3899013666511027 -0.20822233217863492 0.5846423765138512
Ni 7.860005791941273 2.8963487465093514 12.170378553944508 0.6240118794504091 -0.3990619501044482 0.2068501344214567
Ni 7.50707644407881 7.8307879317315425 0.24969695352591506 -1.0639926792564063 -1.0348949905595015 0.6859734087548702
Ni 6.318861681063972 4.688458407462886 3.515634829085047 -0.41856813845817586 -0.03466001327603063 -0.1177909775692552
Ni 5.3593956926304305 6.05604096087069 1.6742169952242143 1.7210059533335007 0.30292223225638154 1.2821404980788693
Ni 7.400407917364243 6.594667079708289 7.390261945395567 -0.05077954454571255 -0.7336488604539624 -0.038285525843759875
P 2.5051468022060273 4.886561100552635 0.5167939362629925 0.09659171778382075 0.4157324687815937 0.9302222955397592
Ni 8.782608735656531 2.6364498123370415 0.9556583318266569 0.631481448354577 0.33854435233536534 0.14381928331221683
P 5.608970360543327 3.9436643459441 9.066036915338314 -0.11310308517528263 0.3660122187383309 0.2696272176486776
Ni 5.3135339203587355 8.34522763657444 1.6501715364017715 0.1390462874036057 0.9896271198606377 0.08904115913007246
P 9.448850626675354 0.28106741391595397 4.661184981847944 -0.6188493614128632 0.06500854366090095 -0.47595464679744487
P 8.350053717637838 4.1628729757540395 3.1686918753927125 2.885873294019798 1.0033303283793429 1.3050911933377718
P 2.9407169540418914 6.587824686247033 4.7212038808909105 -0.011128762923309866 0.25086793476330344 0.0063308273140342585
Ni 9.295498867082555 7.974608881332604 2.0577476176360503 1.0778378126696146 -0.3290577530011688 -0.5592324210811789
