# total energy = -340875.4194614777 ev
CRYSTAL
PRIMVEC
9.18411322110207 0.00000000000000 0.00000000000000
0.00000000000000 9.18411322110207 0.00000000000000
0.00000000000000 0.00000000000000 13.44187804347286
PRIMCOORD
 96 1
Ni 1.519098267550909 6.21162913918394 2.1111007031929456 0.22910097539985705 0.2514112088612831 -0.4948738522994509
Ni 2.936161035857596 4.135606238494449 9.474884208586344 -0.5880161780820905 0.8228820809901829 1.1365530671226363
Ni 7.2180150952309825 -0.24840271359662308 8.225662948451397 -0.07529886984331548 -0.6444408367287223 -0.5059036277510514
Ni 0.17449539828896957 4.839008295345552 14.043133821634978 1.0600154397762132 -0.0012958359932880908 -3.5964135934807544
Ni 5.452249911505337 1.2387440236328955 6.842615380734343 0.9955740814726918 0.9147766504086503 -0.3530739134101081
Ni 6.35525030364669 4.604905246224469 4.029109096988044 0.5216436641941274 1.222040190352863 0.0825295832637998
Ni 8.323745605312656 8.507786052599332 3.894058547097276 -0.75559039772206 -0.20206042634229718 2.619940494503572
Ni 8.410379346480141 0.10009765132878304 12.96186887108856 -0.9389907857610087 1.8453452735442348 0.32912151635956866
Ni 3.0969473081589998 7.987515215813918 8.56720818434191 2.654030237098429 -3.0202638278189466 -1.302438329095957
Ni 0.9112422154556432 5.515767239387699 7.976047931893456 -0.8839912895966776 1.4693564032091662 1.0337156255394198
Ni 0.43524615227567875 4.8931210911643594 10.485928346921115 1.2431695161323106 -0.01427964984746573 -0.00692449503397517
Ni 3.7506816800494582 2.50699660343786 7.988763336817274 -0.26505631044854355 0.6463825338361255 -1.0349932067002625
Ni 6.580068214177682 2.4509459597036125 11.088689052933512 0.849825442348246 0.04179148211448932 1.5580538058465747
Ni 1.0290615318916856 2.0788699758259184 5.508280350190229 1.1501043234445094 0.15773640761394123 1.3403225057362402
Ni 8.944343696260436 1.6472350169168306 3.682147071047644 -0.5686357166729498 0.15597725883098945 -1.5546710054172708
Ni 3.4593065001194674 2.8029179194727916 0.41144001207847364 -1.0588522727060472 0.3067416060024717 0.04634824824723631
Ni 3.193784599250906 8.55522199801755 10.901592132726181 0.18988548154266008 -1.3349108478023655 1.7696193434658298
Ni 2.1262048959973603 4.200703233871861 6.581466036228534 0.9742249263729543 -0.011661238388012174 -0.8650124345013296
Ni 3.8229698361746856 7.465664711533454 -0.18361063078220904 0.41726201805224267 1.0705201959622788 1.2320564369382847
Ni 4.604060307796884 1.2691985434793258 11.970489756244492 0.18098020863323025 -0.2686208878713503 -0.03739952369438075
Ni 7.018756572134435 2.5322529151319744 5.181951353286918 -0.3664606191296592 1.8512945491491342 0.5992917509959098
Ni 6.5737403600841375 5.780728909342317 7.3264289611921365 0.3463800463297002 -0.5097134884154447 -0.6955435689418086
Ni 2.7547747973271375 7.277858777776019 4.664735152599491 -0.6522263942114122 0.4432766969484495 -1.850182289921562
Ni 7.6045560576243965 6.153401860587326 11.112857965607777 -0.5591758568116305 -0.34022996756790436 -1.1990992652859735
P 8.288588819434448 1.6544169935513025 1.2385731991247098 -0.0161059044229271 0.13004639789784053 0.6904640975363722
P 2.2600266115227936 6.164229930219094 9.614760091627693 0.12756425490593515 0.987548640065054 0.03172587034837117
P 2.0334453512298856 3.589665804914471 2.0638126219995545 0.945288188733946 0.19158035274657972 -0.607479943233657
P 3.696936248764383 2.24729743042896 10.123710590306136 0.27083383636226904 0.37729267674815664 1.4238111104791995
P 3.11942083351009 0.6092079535794017 0.11105246172468838 1.156431808324434 0.6220421573185481 0.03659271152236924
P 5.267033897710716 3.703659019731689 1.6787962224211306 -0.8435812612107472 0.4693132302215272 -0.8938751243692927
P 8.452561979065983 3.5266536032659914 11.715242122973097 -1.1761110319209165 1.5444472708067336 -1.1419559833057622
P 5.201073595679033 7.881319313225174 1.6687690074728998 -0.1633550393522993 0.3252664042795366 -0.49682017739254436
Ni 7.967172404758477 0.7932888109647884 6.130329531046253 1.9766468840054152 -0.048771255866432134 0.8491153036550989
Ni 6.624252983472368 4.543270661577487 12.642288360669916 0.5675933914513644 -1.8638898693156416 -0.7119641763916771
Ni 4.7313153822818474 8.47532939604406 4.106856290084538 0.8697512347378956 -0.29050791775242873 -1.144338624605326
Ni 4.464755676605492 6.99488706155516 6.281900464018975 -0.7455996050579352 -0.5462357517111948 0.5060671499121091
Ni 8.621687426283117 7.0969133766860395 12.949770638581409 -0.20298293815656657 -0.8381127818970081 0.15292355960633017
Ni 5.971207420082657 9.10102466989738 -0.06031482755954829 -0.5709363397816684 -0.6006544356713913 -0.804751175717427
Ni 8.883967335141488 3.7703632349441807 6.881556021309996 -0.8901321123870928 -0.29654281109259895 -0.9740768308308643
Ni 6.243369434898434 6.554664956670074 -0.05596982353682628 -0.022273466686219705 1.884139877813929 1.3827338808229155
Ni 3.168969124997271 1.0891256331569614 4.172815673704887 -0.3409478195705354 0.24436047266208882 -0.1312260200282385
Ni 1.4426588921945038 1.4868252932625026 1.3815156576113885 0.386706770973205 0.09252346125171808 1.229127693327264
Ni 5.593703625219065 7.156674402210986 9.193249699268273 0.0841745750663905 -0.7321920734027778 -0.3554861223960265
Ni 9.35374391676536 1.9068974534723573 10.381458139229581 -0.16258653661739098 -0.4234504062511417 1.0225102437419036
Ni 6.245399123947307 2.2482342099899784 0.3855086680536256 1.1220481886382419 0.5379879098801058 -1.2856816784629082
Ni 2.930430149131368 8.761708418315289 2.063503117379885 0.20150506805945942 -0.7978475066190581 0.8687307638931812
Ni 5.020403717989353 3.9309474567520324 6.081616075461979 0.23093391484353773 -0.5269481071261763 0.3036259431916255
Ni 2.4363064830343695 0.6957489352021184 9.317278394735732 -1.7713946901986977 3.632771306174182 -0.9041484812708429
Ni 1.0569812364553612 3.131626520143355 8.665387274393275 -0.04710672367981565 -1.2608692474049188 -0.7951594182639338
Ni 5.499704225150242 3.6785496538510674 9.430983228393968 -0.13972505863818516 -0.2048547012579827 -1.135807190095547
Ni 6.89488125135981 0.043157067011568434 2.0515536675088986 -0.13732390539586026 0.5492817376263701 1.2292943008121149
Ni 7.471349677692966 1.8793910340091309 8.99094939783242 0.40484024734912216 -0.05845994390910576 -0.6594445092264062
Ni 4.260813255703853 5.125414869956809 13.75641774240405 0.34363436526376306 -0.33349547705754823 0.31803209131462645
Ni 2.0196232606481974 3.9979823000448835 12.01138018408293 -0.4015276380361214 0.4141152448931449 0.19569746023874682
Ni 4.315688332930157 5.152223296805944 7.97852121361681 -0.4372191779004599 1.1798404170563614 -0.223700373209576
Ni 3.5273883323334565 6.007420378995345 11.489270687806185 -0.38377365648681 0.5518291866385723 -1.3938294765154446
P 0.3033016695176189 3.9999752526403825 4.767793762070157 -0.15288190773511734 0.35475541487758905 -0.3465597664406741
P 8.50384606797505 6.52145520282065 1.5263252463407633 -0.3772286562794407 0.8377248024299703 1.374091374656569
P 1.779412776153811 6.814152895072078 6.405996203513839 -0.8978289668107182 -0.19265738786084238 1.2807433606210266
P 6.867090124382941 3.3223805542839937 7.570680455557581 -1.5768305722334457 0.39365003506025753 -1.651286120239859
P 2.159166678786516 5.765483281192416 13.239268585744028 -0.3222330167698515 0.824724019294928 0.984051682655389
P 0.587012706862614 1.001665321788579 7.697330296973221 -0.2896615105917334 1.908876718438977 -0.3023038819460923
P 1.3129241071068454 9.22755419942822 3.7722753673422593 -0.001343915622404137 -0.16904771886170242 -1.2413422331155848
P 7.928185843616107 6.920376350000851 8.740702514276459 0.1753482071584335 -1.7767685529161013 0.5929287848923596
Ni 7.942320194051469 4.30896556196285 9.19401657273244 -0.8758758595783949 0.33801547641508883 -0.5049016688490982
Ni 6.56473992900769 8.229286999576669 5.830441596458344 -1.4310204837434453 -0.7313420666976566 -1.105439376436967
Ni 5.5083740281463305 7.673611405852777 11.40701960552613 -0.35793972614284164 -0.09912888238337766 0.5046059919855502
Ni 3.0702490906699853 0.5534824274575076 6.736101707823921 0.1024494621161784 -0.3645335773102754 -0.06265341316516307
Ni 9.2701684853412 8.641019984870793 1.8871451809048911 0.9151188642394175 -0.46789063884238774 -1.1877547868074319
Ni 0.9716057188159111 8.871192233480938 5.859557072579319 -0.0022612852303509445 -1.3184773848366906 0.27693917792905853
Ni 8.371907095684998 8.362778087021741 10.264836431173507 -0.24437589928105655 0.729175398063641 1.7554448517376604
Ni 2.568704660991589 4.800297257603481 3.9074866392165357 -1.539616939297626 -0.056935022624147104 0.18513074046649408
Ni 8.454123278334347 7.253741296136475 6.6773738950500965 1.9464173956969122 -0.40946849014975284 -0.02666696776822504
Ni 0.8911538043398117 8.315608480890479 8.531977007145622 -1.8111719700966358 -1.8717823846898407 -0.5686038349937498
Ni 7.186568691143474 4.7347502406722475 1.6333357797830588 -1.0733525232047514 0.2270147822947897 -0.47419189847006715
Ni 2.2515037543401983 1.669680989927891 11.65127201830291 -0.07487746603518071 -0.5052045448014977 0.3695387438343507
Ni 6.813115090264283 6.859834674841723 2.954605490684974 -0.3359912468962084 -0.2719959749911703 0.3591005792201622
Ni 1.2393869115669276 6.908639053148095 11.404681330268922 -0.10581195083050808 0.7896983951493626 -0.08033771781880358
Ni 1.5859310603502075 8.329338730338735 -0.11514214739646626 -0.3807901483784539 -0.2981793182547574 0.4963758907662741
Ni 9.144548183031347 3.8402635216001464 2.5001489285290845 0.1108014336252995 -1.5649114521983565 2.883752391022053
Ni 3.972046363963364 6.329929703159172 2.3994827805843504 0.36073708638232066 -0.3503855679446675 1.316198873215159
Ni 4.483757607112809 3.377889335330986 3.62313730599418 -1.2302692631308747 -0.855461557588101 0.9145879314366121
Ni 6.739642183517768 2.523270852282213 2.841182609306376 0.8469879728994509 -0.6320098100542212 -0.5393603647476002
Ni 0.3812325448809784 6.428374214086159 4.282784410055064 0.20152769376727875 -0.7078067025798778 0.47219569397564487
Ni 0.4009921647391192 2.4886100085245446 13.029535581379431 -0.18882310171641675 -0.6059187693941241 0.6137272096949494
Ni 4.42828556251919 3.853598854174639 11.751938166247644 0.17232587539234193 -2.3531132081975343 -0.2755775216948415
Ni 5.2289565637893345 0.9521353985280847 9.391893805182153 -0.27793650884532134 -1.1217283434049778 -0.35619291865506403
Ni 4.673336074745504 1.4817648468103364 1.9773542973969276 -0.5333910345380427 -1.6389556236989644 0.8500624980597167
P 0.7601562036674476 9.205236804003967 11.518251157461012 1.199054013870335 0.007166435841452173 -1.1026589854783524
P 3.237941816205562 2.6012072381135782 5.737760116654287 0.9919791650325819 -0.7514079842095963 -0.05468247914454453
P 6.5425419270569 0.2957899832141221 10.994717205204719 0.5927670625035146 0.03534726915104235 0.9799834261232866
P 5.132183561490831 8.451156809724457 7.541310579496997 -0.3793649858961531 1.5829410560065578 0.8160051513646914
P 4.423087354366874 5.624911242359647 4.710195595237561 0.45562236299799597 -0.6295685476025802 -1.7013853508890957
P 5.450605955216883 5.373835951780118 10.73957702605944 1.6912714023835451 1.3526614869175673 -0.08555037236799459
P 6.338250509848215 0.7068984488009021 4.2441248033477175 0.9059346266369882 0.047197997842041296 0.14231595929381297
P 7.576884324120991 5.9912747077378 5.164800021618279 -0.5426349217338139 0.5521197212957976 -0.3320608014935507
