# total energy = -340858.816349216 ev
CRYSTAL
PRIMVEC
9.40604425313654 0.00000000000000 0.00000000000000
0.00000000000000 9.40604425313654 0.00000000000000
0.00000000000000 0.00000000000000 13.76669654198377
PRIMCOORD
 96 1
Ni 5.750093683185642 0.6500348006136403 7.420469848110985 1.7586235065759586 -0.30926257265211254 -0.868240197410008
Ni 8.243175168992623 0.29338487284316644 6.959547333452665 -0.26678280622134704 -0.12729891705969043 -0.44001268148519707
Ni 3.8606356934989443 4.679723449687594 9.088236776307687 0.9834302470213064 -0.310555066211291 0.11356202708957217
Ni 6.817914878639489 2.123442751264411 2.6987408851473917 0.5495167364553116 0.47354166648057805 0.6666428267470583
Ni 0.5583747787201486 9.394851250660704 5.402809353867609 0.11955295456568443 -0.2951227908166208 -0.6397686280640336
Ni 0.929618184444788 4.228675400486112 10.114530285543266 -0.6683433543779328 0.614269969572297 -0.4705694712261315
Ni 2.9686981230950122 4.836277653406016 6.760852169418257 0.8114296161788671 -0.5475202748505732 0.24846986684477207
Ni 1.5216722458995067 8.037041705012257 9.74574750104506 -0.48390629754435377 1.2582816891834008 -0.7392080997092947
Ni 0.8618786741756846 1.5607073303402328 8.90895286619143 -0.8449439458862287 0.7990636384143464 1.366393234681363
Ni 3.6821089699603933 0.7165882086784122 2.795149078275987 1.3215238849724982 -1.171439594587176 1.868167927865705
Ni 5.901954270726733 8.290280639565914 12.135315467750788 -0.768742875943618 -1.399336779486919 0.14533931950116905
Ni 0.10450021316337979 6.4452097736083225 10.801873220837797 0.11451744902430601 -0.8992860109722189 0.07362045369962805
Ni 9.128359199486088 6.156143215769188 8.047116519215741 -4.0770437913769975 1.7309306686463801 -0.5341484815293576
Ni 1.7443321299671872 6.150490183058616 8.319284177607596 2.3614734072367716 -0.6711551127951151 0.9255868536502769
Ni 2.791394185334122 2.7061754226755728 9.893766660035405 0.7347991720083216 -1.0003038828481934 0.5011977376349497
Ni 2.555246033534393 7.847255946274778 1.031336089661766 1.2239230091978728 -0.4236900330657736 -0.8321797042420249
Ni 4.984056017658606 -0.21204234109980316 9.658328664591165 -0.09310401634553643 -0.8788969057929057 -0.8451434634915446
Ni 1.3478579506271733 6.691159023718229 3.0281226900760183 -0.5943909712601828 -1.341394141533864 -1.4895521614307508
Ni 3.851276679277614 6.934954289650563 8.279759978855804 0.1719669493910264 0.8009551990101045 -0.9181900469655735
Ni 7.213203896379616 3.479107718779729 5.829632135604733 -1.2823153330938366 0.5776651738650697 -0.1270225234698522
Ni 1.765777911298478 4.683880921331642 12.3256956884971 -0.8961441229091275 0.3235126548132235 1.0156960490335476
Ni 5.6644328364382455 2.802051233688663 12.939538851905299 1.4620711824016628 1.031218827259495 2.2905922068451776
Ni 0.7849786172230093 4.708270794573763 5.87795286712013 -0.6732680453730598 -0.47061215153860886 -0.6464792073149899
Ni 6.756587468867552 8.960583584746512 4.183602576117071 0.24385447955994777 1.615644716887166 1.1686705164824713
P 2.98873299775977 0.5852074017042596 9.107826745070266 -0.3423560127719717 0.21885667196402953 -0.8261463535637513
P 8.462768682571706 8.449995274217368 11.175735269335522 1.0772814259455123 1.1897980424897057 2.4136647445283463
P 1.270192241656793 3.960132831622801 8.021813319058152 0.10086411990692952 -1.025812568642259 -0.853830449742581
P 9.17960332961454 3.93677762326947 2.72386442985611 -0.5739013359472632 -0.31158633568928273 -0.21126754676286197
P 7.680411529935115 1.434497025996699 5.167108929783393 0.35621862968667684 -0.5325955352199409 -0.6672382942392122
P 6.43158041520962 7.352723753610771 0.725066817139827 0.02469724563636392 -0.3467988790346737 0.2570537518590411
P 5.001786411434695 3.053973322020223 11.015133644693043 -0.9008749527258937 1.3564950017310444 -2.1903898888919633
P 4.473317210418365 8.115563364027 3.109882850192675 0.31414998265140087 -1.4806121786286437 0.4602068970448849
Ni 2.557211896823095 2.7652077576032834 4.765769003652732 0.1393998140882825 -0.31854836882941273 -0.3174901027682274
Ni 5.067233668672906 6.5547055369756695 10.126107245044386 1.3921415472900605 -1.2037097674747914 0.18280286366426582
Ni 3.3223842062613236 2.3909130310611566 12.48010249226906 -1.0428204160541652 1.2721535620694864 0.12131853110653945
Ni 6.905155940853401 4.749572735725385 9.639275780966312 -0.2027037163532509 -0.3841081570080933 0.20604357935976128
Ni 0.43761903954942827 8.637043874021774 1.0338305726481953 -1.0843113362091004 -0.5732567603847288 0.9927201569636646
Ni 7.306530669348504 7.060910630794121 10.268744265404134 -1.407222609992899 -0.7738912529137769 -0.8872079967617624
Ni 1.3630581184479476 7.842186088319706 12.377127939514423 0.3455331249483726 -0.20087540489526048 0.34537191678016
Ni 9.152861945261533 0.9202817447301218 2.7924777616540193 -0.3746328705278064 -1.1201620273591224 -0.7846369214660551
Ni 3.424402164296051 7.741033486373785 10.940710199242352 1.2094178736031624 -0.6758939130316811 0.8460580048860138
Ni 3.8642288024763802 3.244210570890992 1.2467570819256921 0.30757181521325094 -0.5418468786148798 0.1198676575926258
Ni 0.6950662383871289 0.5947197344500201 12.967223662515996 -0.49759562210598823 0.16043272349918178 -0.1351721491601801
Ni 5.396520472552654 1.6403389025993147 4.871786411784855 1.4189784649772466 -0.6557333789234062 0.9202381877438539
Ni 8.030974806346167 5.459983054413275 3.8989483937264064 1.2134483349187941 0.02032945558597144 0.19632943739579092
Ni 2.7449847620496537 0.3808366304526145 11.2219095415089 -1.8860540641175065 2.1405840211134297 0.801608259213071
Ni 8.017035048480828 8.098510205450847 13.39214642327552 1.7264785464122974 -0.20625183871582542 0.31274153233964846
Ni 3.8642476145652673 5.7230701174993275 12.51206893431046 1.0340930634834966 1.1552429302226557 0.7353082504342562
Ni 9.274942996094348 3.526532994864101 13.526591719529383 -0.11911355303542068 0.1670556281323381 0.5754578818011057
Ni 3.2292549602257496 0.9092437515756175 0.6586046477061575 -0.47225842889278025 -1.9358367919675887 -1.8838747970780005
Ni 8.391696610756254 4.054983383791544 7.954011728895721 -0.8160434608017947 -0.34279798540539674 0.8545079354255799
Ni 6.45578216756287 7.038392560396265 2.970728888090374 -0.37253587878946165 -0.5288648645329149 -1.4605801996784329
Ni 6.0835567707983245 5.045618578541632 11.870843834922647 -0.25632638677471337 -0.5607198042599827 -0.058675916574653784
Ni 7.116942437544339 7.421133914848699 5.8879336208791795 0.2300995918677005 0.9182306703955218 1.0592664774253304
Ni 1.7153709191255013 8.94037940128177 3.046845421540902 -0.32485168533962117 0.8716242833908924 1.3490609140505023
Ni 7.446558452979611 4.317129842433242 1.1465648371174573 -1.1377460589894728 -0.09716713067131653 0.7041261684044972
P 8.84447537213535 7.910436346802094 3.394881293809974 -0.13729459481982162 0.7875445820311533 -0.010183368290905041
P 5.663266486927245 8.011099834436951 7.966029831881243 0.8321249397446895 -0.4053873781018438 -0.8134075658408444
P 3.668432581339474 8.592177042026048 12.94797795498005 0.24709072710905833 0.050271494561042455 0.4039272486165495
P 2.787744640090025 -0.002517057493093586 5.07644218618314 0.18293116171201398 0.24258101216416283 0.4402132275317773
P 1.63531607486646 2.168977412415629 14.076584772045884 -1.0131861381275002 1.928569568882214 -1.8386922870040916
P 0.8026516341279926 8.11874260704892 7.628360361193406 -0.3467657118038931 0.7962310540615577 -1.243690421632787
P 7.982740610439651 5.526220419384743 6.043924402535433 1.0171901170805706 -0.41735663464857803 1.3027748864997692
P 2.2169764572110573 4.982588674725413 4.09409183537893 0.5810957968131735 -0.1168818354914245 0.7151495160981941
Ni 9.349457680176139 2.5375062337138607 6.708786891609883 1.11029593319832 -1.95220674868518 -0.09143845571765542
Ni 8.531065971276313 9.012486137986013 9.16015351091417 0.7753560103847615 -1.5284758350791419 0.09597619568700891
Ni 8.523390639010376 6.423895676899241 1.6765079652980919 0.3467099188652932 0.48639178297036884 -0.9643248936504232
Ni 3.857776255988106 1.879591049065415 6.587502532741435 1.7494734646455743 1.7918637566863267 0.557399224527182
Ni 1.6957593164607028 4.205696433910522 1.5823167768448412 -0.7718755080353288 1.7776064754363643 -0.1069820598792093
Ni 7.1500329018967435 2.443549255767254 10.760751875739492 0.9317783271729695 0.20406408703588727 0.30893604255062923
Ni 3.516129909709536 6.10944220510697 2.410603644499281 1.3696675345572604 -0.8206796740222254 0.32869008524910487
Ni 8.072417838164442 5.908801871081637 12.875399975449184 0.5413866511490096 -1.034163768820432 0.5920152719391546
Ni 0.6556661994219929 6.951320806982338 5.16432850304588 -1.66541201811828 0.37954033513175284 0.9840323993816793
Ni 4.21692725097612 4.373490860738984 4.820435993354192 0.3283491569699184 0.07783346333971111 0.18067167625387592
Ni 1.821903778493132 2.038948254028014 2.37317229063618 -0.3801355455135905 -0.2302042357663648 1.3153450098552961
Ni 2.010034073408546 0.9784637732401356 7.060347208731953 -0.8931603576904553 -1.8662390862741085 -0.12504585935945559
Ni 5.017908371610938 0.9734221334183936 11.54213644338062 0.7012933269413921 -0.07920257577309585 1.1544487164561343
Ni 6.045546945201945 5.8883343183724755 7.500784299196669 0.6515211406142715 0.12405984129710247 0.04240417599782375
Ni 0.39315572686033007 2.2127249251225733 4.401143690798572 -1.1770690249588116 1.6359204364170665 0.21227593342271828
Ni 5.548597399115946 2.1497608636174594 8.939610927450731 -0.5742672039271143 2.407388938821964 1.1093291984096765
Ni 7.43256225884761 0.663814655723439 12.756138856740545 -0.4462434928862573 2.4117320462820078 -0.4734743035777523
Ni 4.850208005226911 8.731499372323889 5.85880310123751 -0.7649494703394567 -0.4942570446510585 -0.9519229204416444
Ni 5.194676164838546 6.557169920619881 4.865301884745473 -1.1441043971073328 -0.2298710207966622 -0.4664590486021838
Ni 6.050955420756986 4.370311617717065 3.5021515870619786 -0.10542062892936037 -0.1559014112877315 -1.1039625347811244
Ni 5.4643944892573 1.206522726818413 0.853434868078711 0.7873682043542892 -0.16043529460234307 0.2167231705607945
Ni 7.26689359806339 9.308513168713374 2.0079280600576355 -0.07738480583806673 -1.467376653774976 -2.3290543674761177
Ni 0.9423445625769091 2.4799412417193434 11.716120047452938 0.12304425554839454 -0.06692658661922021 -1.0069458136447431
Ni 2.8056349366216544 7.322285793791448 6.085774716078113 -0.1310604409846517 0.1465852760931282 0.2099388006491094
P 2.689536130054935 5.805429442647038 10.686962397684297 -1.2235412003784218 -0.8611691494958394 -1.404747408979529
P 4.962939447882841 4.9124289892209845 0.47587906592800633 0.6433339768177888 0.1578431083951346 -0.30132069209721657
P 4.6130722187606095 2.5197570278488843 3.225027883852819 0.2467991640105685 2.9190564656399856 -0.9998400558378974
P 8.008795353548281 1.57530551131662 8.758262390579116 -1.1257379787850033 1.8771115102122382 -0.2446461222233077
P 5.408795360551484 3.8729670177644366 7.354238126766182 -1.056640352656393 -1.685158861727904 0.03266380878160826
P 0.7710285127087825 6.285890192823497 0.04998560138190558 0.054694306219086455 -0.10356043579217004 0.6896408303041284
P 8.43669512737419 4.242107231951499 11.561079276285485 0.28574546336677886 -0.47422275170800254 -1.3305602841431536
P 7.682010557490518 2.197430696857363 0.6359210309260959 -0.7597237031641432 -1.0854613906531434 -0.09652461199131118
