# total energy = -340876.8136432608 ev
CRYSTAL
PRIMVEC
9.14506812124442 0.00000000000000 0.00000000000000
0.00000000000000 9.14506812124442 0.00000000000000
0.00000000000000 0.00000000000000 13.38473159309626
PRIMCOORD
 96 1
Ni 6.739018901543741 -0.033021926052018175 0.5094068084640846 0.5037642128105453 -0.9391895320353759 -0.4683657787065934
Ni 5.4731311533650295 3.072925750366708 12.360170296591663 -0.17409299459509373 -0.16762949835793714 -2.0085434756036955
Ni 1.2392756002899938 0.8747504461701733 12.055935832295194 -0.2371194748289594 0.022452672576561333 -0.42432869509103693
Ni 5.679553628328654 5.960197475204595 3.758432731816884 0.03189993403239022 -0.6424446322343 0.36443304717666913
Ni 5.212076042151506 1.8058308532116005 4.888090974488967 0.24464817910583675 -0.553116280881112 -0.4305219683859424
Ni 5.135797029938517 5.840854337765497 12.214142765226622 0.5747737112498875 0.877525993587308 1.454485913855237
Ni 3.264780132001561 1.761678464893136 6.042429926687534 0.8149857089612416 0.07585088569204357 -0.3427573619754484
Ni 4.1965528206908145 5.708653234714188 5.689621433693152 -0.5527794663669835 0.0035023567263036456 0.7258499332348338
Ni 7.89351057637796 6.137383167762642 4.588700652713685 0.8672400382802677 0.7104796214263506 -0.7720626843454703
Ni 7.744089310277008 5.505907077087767 2.0951789758127926 1.245423859384126 0.13870047402841273 0.7267356782738967
Ni 1.3711291907571899 3.505652078132472 2.1553297460956986 0.7227134444883812 -0.8953316543101613 -0.20597801622914846
Ni 8.39319709206166 8.513655927797123 11.863489764760546 0.2943830844371188 -1.575153698751655 0.2936433780576168
Ni 4.435293965977028 7.449865037416619 2.3196272943171232 -0.5489858036525062 0.17706930361459824 0.14394166782269402
Ni 5.513698675026319 4.844828401287193 10.017200216196894 -0.3477838686557623 -1.1732193121954182 0.6459145930607715
Ni 3.116739771169062 4.535935439349998 8.719402582235327 0.8495405641179756 0.7454918758354774 -0.40299805193406085
Ni 8.968915703122269 7.06455588724639 0.4031356312284695 -1.9471005378068662 -1.2645654653095835 0.4088583673695797
Ni 0.37491395137122396 6.915207781689461 10.272794807305827 -0.9031701765179736 0.42700598481288393 1.0273991964030886
Ni 8.619052836531651 1.7316826418433091 4.345915558356547 -0.5324338128310959 -0.34992919713353926 -2.400402480201801
Ni 0.10463238104947817 3.0892679868880624 10.560003898501119 -1.716896302040501 -0.5399144374788573 1.5016219481110913
Ni 1.5323567396500088 4.959425248432736 10.405102907652772 1.7286213037869131 0.08075552208251253 1.164105265709292
Ni 8.533116632507499 8.670658455272557 8.180948294273325 0.19399153329123367 -1.0883441115175772 -1.3981422449581857
Ni 6.279762731501287 8.830761160801009 8.483309848642781 -1.5556616514653143 0.38631082108636694 -1.0543980935894357
Ni 6.886492268160055 6.466441004646443 9.16817941885315 2.5444891582427918 1.2487359544764947 -1.1886256194481595
Ni 2.096104456694696 3.318598857199192 12.161259580485698 0.44463423941760843 0.2324845471601093 0.40107589521068343
P 6.85482289766568 8.29225383144459 10.403349798116597 0.22240119478217824 -0.8110719757291321 0.7645902872278252
P 8.047888469336534 0.5671460243146003 2.401395176345511 -0.42320769411271636 -0.009265484462325979 0.43970003534078467
P 8.531196168226868 6.945276765283313 6.815853019384513 0.34498650841628326 0.26020566722446153 -1.2166249328745629
P 5.981798125827672 3.0811563115694045 1.1095646992558998 -0.5304265525930799 -0.32178101683409743 0.8483493720233518
P 6.8271682120246195 2.8513590427901216 10.621172514852757 0.7797654523063667 -0.46820662742090974 -0.26046509153343533
P 1.4533890774441387 7.9693414802588025 12.723632793809534 -0.6230101776587722 0.49077037165403864 -3.76209728096623
P 4.8034469685736365 1.329619727091591 7.781722179616136 0.045697759147430975 0.15986348125927308 0.15316884284791688
P 3.7883078399690717 4.8118878663404026 11.204345270842609 -3.48682057834126 -2.012495261162592 -1.4174900533571781
Ni 8.842768635088943 4.7865468829041005 6.309602173888262 -1.663816648606702 -0.8788678523271832 1.2080392480880808
Ni 7.401524207952782 6.061597989221815 11.781093616560353 1.0880204096295714 1.7990631026482433 -2.0750188336181106
Ni 0.18656304528831913 0.09155767732559482 0.7088269048578157 -0.017651137422859925 2.0920662760187003 -0.015294464265225273
Ni 1.193102151942867 6.116761039415886 5.399346915703258 1.170497799499197 1.7693221239403853 -0.8673860769398287
Ni 3.2286571133897266 5.074771991154525 3.508861082494723 -1.1697773763934047 0.1216517460762421 -0.23264344133547674
Ni 6.5080236288560664 4.394378931731624 5.53854856831086 -0.3237193715073909 0.069265519165042 1.103523390361177
Ni 1.1749766271609292 0.5845445161903002 2.8390223460540804 0.9236888652966156 0.37185453645172084 1.0727264595849786
Ni 1.509256297874441 3.802674741801778 4.81630859221305 0.13090334658149713 -1.956110711725276 -1.081291318435854
Ni 6.408351532691413 6.965551381045955 6.45904264463202 -0.36157526601289985 -0.4101994547785065 0.48998592807953023
Ni 5.76217017266772 0.5033445428848986 11.731262141012028 -0.4118215637629617 -0.23547165481289126 -0.7686130352339731
Ni 6.953242119513922 2.0146219007880015 8.006184215722472 0.43947583514512056 -0.5502384451126846 -0.4020030350106431
Ni 3.7672101680861596 3.5115140667223925 0.5225208359803808 -0.06963267269647364 1.7568247628043228 1.3627540952668789
Ni 1.118414381562399 -0.2222882534420229 9.680305970541324 2.0617288013774235 1.38319050874436 0.3540365344336935
Ni 2.3096143593606433 7.481808759951083 1.02098374156528 0.634704583277565 1.3591190696174529 3.323765329617566
Ni 2.2284427357660506 7.283836327822227 3.4519622983936826 -0.17789668461190009 0.9665928637489933 0.9176945953863936
Ni 4.930462818067248 7.157991047032999 9.878962453756806 -1.5617927040637167 0.4263932909295496 0.6857463803457287
Ni 0.40626781701949566 8.50207827170533 5.089116030317224 -0.11422948547024199 -0.36940273247711863 0.05704403739818562
Ni 4.77247262324749 3.38037379155943 7.206593425441722 0.13780110214259494 0.26622230573218664 -0.6361251177741754
Ni 3.5885704097156363 0.10218973338587795 9.072519264021409 0.06044869220436042 0.7887458014281061 -0.5603107417470221
Ni 1.646039079995252 9.508584456115067 6.966779563678757 0.04873320353964511 -1.587452570723666 0.273399025986284
Ni 2.263943889753681 1.6333640157430993 0.7519138927539313 -0.4002639408323494 -0.1442417155616161 0.317701190337769
Ni 0.07758675693741787 2.3700724039284493 6.486842736854327 -0.1623980747556687 0.22579196563128212 0.1864350611002144
Ni 0.611610259451967 3.925282668517945 8.444775275598557 -0.820215075680981 0.18612241495580203 -0.5987898716588268
Ni 7.822188191022594 1.4996173961992831 12.387702438321481 0.07062846095083965 2.604153406872644 0.31744099469784687
P 1.5493025506595606 1.4334985545376224 4.934240645659285 -0.5943158950478733 -0.38764805184055173 -0.6455474395293398
P 2.659513806223272 7.323855145403337 9.625790391161866 -1.0681360120008185 -1.3339307432772833 -0.3896195737446258
P 3.7433415405983403 1.3930133384883592 11.680855440686315 -0.7025521390491578 0.5680379351879508 0.4177942364066289
P 1.9204825707651612 4.535020932549699 6.731944276936624 0.6340103854240178 -0.41873037506765304 2.019081913241174
P 5.940352677638093 8.038313583137398 4.562199160147802 -0.26125596286584685 0.15500692449792014 -0.028813067576950378
P 2.7353812903761265 7.595271618664255 5.850760275426343 -0.8372301221817388 0.24781166443548291 -0.2630336235915599
P 3.4017000901424166 5.601820550303188 1.4820780702763372 0.05788427391129387 -0.5298593672357004 0.49763727397720103
P 9.021353523051447 4.363349715997458 3.4933748243384497 -0.8709290570960807 0.37802441270785864 -0.06074565461948894
Ni 6.553538632306977 3.228254730397595 3.3229336194326122 -0.4966345437442995 0.6680875296133849 0.4569863332250581
Ni 0.35547245130365485 5.132651126545486 12.817486797710682 0.43354275749013715 -1.786699695986884 -0.5808628548667608
Ni 1.0301461851974818 5.821942337135302 2.1671753526799793 0.10336477484159619 -1.2674317311137848 -0.3175690356352789
Ni 6.718314467584959 7.779407562904578 2.508673225568256 0.32561864541263275 -0.4645451194089225 -0.0303097067271349
Ni 4.642585222400938 1.2798248318152778 0.44093311179165223 -0.10618784611268808 -0.26274180338275394 0.2106129438979986
Ni 4.609891604290227 8.676081480598334 6.625790156571447 0.24053724226125672 0.5125231899500979 -0.3187345166982897
Ni 3.830375152782853 8.79942101275474 4.423077984138626 0.6033507515566319 1.2940719594091323 -1.300037175853632
Ni 7.2173791186444545 4.416381965346832 -0.17056466332387799 0.569829736981051 -1.279683037677312 0.9743498819865929
Ni 1.2783707660028016 6.6824658010132145 7.961332229701778 -0.7199960455572181 -0.24744965311037384 -0.029511893416187887
Ni 4.381648997071454 8.056868926115477 13.32326850121838 1.4343806584649297 -0.05206021103034905 0.5343901652265184
Ni 7.242317719088625 0.16822718394231218 5.922756652293529 -0.3469032658230219 -0.44162527738795554 0.21527846769446796
Ni 3.4634384442306425 8.356827156613745 11.284492646820866 -1.4122390893708838 0.6198808880011711 1.2926874203567802
Ni 3.659481267010867 2.5265902427997253 2.9553220048617805 0.08512305502258888 -0.5592123664765208 -0.07464658097129726
Ni 2.430521303428253 2.36680761465138 8.100639965098216 0.6092807438878216 -0.0007746733824954401 -0.7084348230821799
Ni 3.6059368938533254 6.851155725396478 7.717275056385424 0.9772829964729879 0.2717144391950095 0.804747319062685
Ni 7.029347375434855 4.302873381293646 8.37497371505209 1.6344911601697076 -0.809502060138851 -1.0345512340668375
Ni 2.7081381327952014 5.742517421529282 12.929704098161846 -0.4441511291336028 -0.29060767655508657 -2.0101082489876543
Ni 4.756276707814184 2.509534690974138 9.836291566454825 -0.2972922876641138 -0.7050052285753408 -0.3019321004289703
Ni 8.995847928391091 7.68350323475716 2.806924986377165 0.6010820101271132 0.256909512971693 0.3338361482264186
Ni 5.81982982642661 0.8984809831311475 2.539591785979585 -0.3295339213066389 0.379656806104959 0.7672958590844464
Ni 5.637358284562831 5.443482842899317 1.3852528337810168 -2.2666470088834894 -1.4072817453656086 0.018292627661600752
Ni 8.170725022752777 2.8337182066123425 1.726563232775232 0.6171817439024533 -0.5541789178176715 -0.6378642119524692
Ni 2.177696753417426 1.99587451138186 10.246574068327636 0.5937193991144549 -0.24541745317169347 -0.17579146534343917
Ni 8.212920366518599 0.9195182975652395 10.07531620884913 -1.0299165635083036 1.1978772199534145 -0.23831658046085405
P 6.4364360365286135 6.916286899713816 0.16404697335814275 1.308964817360565 1.8318030160834258 0.5766225915331682
P 5.282932029038719 5.430222494294972 7.743990543542576 0.028972218862633976 0.41033623746668685 0.3244243679942154
P 7.068634587575725 2.307401252903918 5.694439970023931 1.2400546246524127 0.9915719022918342 1.1853682888531263
P 0.2802999923190279 2.7118784656084274 13.251580313142894 0.8143084803885589 0.5896938228948296 0.38037542943853847
P 8.442809085977913 5.11401347795538 10.046150757973976 0.07851094902270996 -1.180936735444334 -0.5817768820405981
P 0.3914784130450506 1.4888902314317691 8.361762749814961 -0.0010248417200885577 0.6751434080189018 1.982013547633967
P 4.652946584448332 3.9043313177230816 4.497377089128967 0.2328136483647539 -0.8808823116540506 -0.3203198589075386
P 3.3308532483232067 0.19171720561480765 2.2579108883921046 0.17432825053435136 0.7781106903117632 -0.6861549286380569
