# total energy = -340891.54782271164 ev
CRYSTAL
PRIMVEC
9.05556507945738 0.00000000000000 0.00000000000000
0.00000000000000 9.05556507945738 0.00000000000000
0.00000000000000 0.00000000000000 13.25373484433358
PRIMCOORD
 96 1
Ni 6.314409312684332 1.9601676186635957 11.447900493544392 1.0772240903450157 -0.20726742446453336 0.21568264511142213
Ni 4.577551929058361 0.4242097575987243 5.869032171695484 0.39912519924221584 -1.0699342415518218 0.4807878065200301
Ni 2.7261054248254926 1.7002185672852477 5.026572123881583 0.04776646875100161 0.43455962879042576 -0.3938593228575862
Ni 3.364894041605261 4.3084295902472025 4.867831690138049 0.4572465288649803 -0.10226280002666904 -0.5350792208737429
Ni 5.12854684232273 4.6488101707254765 2.658222192266184 -0.7154539347124904 -0.40030173604882024 0.429407395165525
Ni 7.288299115496837 5.865253284384812 2.482119523581951 0.470108472429313 0.803369721988868 -0.04779217978261446
Ni 4.965456115111553 4.5246855400823005 11.462876587084748 0.8042814351698601 0.27210421843426036 0.005581093632203291
Ni 5.4989194543681 7.68171814068782 12.342871952182955 -0.2959226610100968 1.1748499058203057 0.6025020304030914
Ni 1.7772633150427541 6.413087805433927 0.3190456691340469 -0.6958341035990339 0.2597305273602559 0.6195970382121653
Ni 2.7616847400510736 1.5870330592667856 0.488845664517948 0.044688601156626255 -0.8037633578828609 -0.3268265496778049
Ni 0.7968453553592579 0.14058130907520677 4.710973908376036 0.056841948689708564 -1.4004991752261364 1.2968490079336374
Ni 8.479785091777272 2.474514660022154 1.6408919381763467 0.4518600677420863 -0.09271166600312421 -0.18302886363214282
Ni 6.730023527902776 1.095813931139618 4.519046639702823 -0.08228430002221312 -1.9665874428868841 1.640916346969761
Ni 0.8381477877196232 7.520230248496986 2.715584669307783 -0.23660139754196027 -0.42947064430329257 -0.7079252304356132
Ni 7.503884953515521 3.663238688951149 3.96599430205076 -0.24017883048057345 0.6729507712429572 -1.0276725046691333
Ni 7.653962833697134 3.9294632469345685 12.509219966155813 -0.6397843117933175 -1.5749356692035779 0.7973679958794784
Ni 8.028673061419026 8.968640717416815 6.651029116982106 0.8111344535359514 0.737964971330813 0.6421502409223327
Ni 6.871100176388224 0.5807705168258935 0.4029174074104045 -0.055789596165794236 -0.07473502692004548 -0.6236254426452679
Ni 2.1354290253512755 6.492432666723451 9.288973182349679 -1.2979478974247711 0.45003972670389586 -0.26906954537299466
Ni 9.140868509800455 4.892069815649067 1.2549736375466656 0.504417273013512 -0.7872306503351604 0.4485585141726791
Ni 6.4824172117375785 2.0352835310576385 7.062239610898896 0.13230151248060443 -0.23564546138659417 -0.1077860438377434
Ni 3.4709709310306764 4.214958047422452 0.6390802059755598 -0.31695068532498966 0.5563946945220676 -1.2336682615100947
Ni 6.2216350483712555 5.901937378550967 4.650761645001658 -0.32196613626171006 -0.8902858643561378 0.9032845906086507
Ni 5.263402317593626 2.6046793525781484 9.339297674205907 0.608829772393332 1.4013810636104573 0.44599461010024477
P -0.13619026556467376 5.59146732955401 12.441943456457313 2.2510383558119553 1.0190958187437158 -0.24753398529406404
P 3.683939710739308 6.060319211917069 12.632002562053142 0.8544729684225865 0.3647878594129266 -0.3039594152716443
P 2.36747788069755 8.513906461023897 1.5741198234531746 0.5431586554477678 0.22400530604450455 -1.3933306825021552
P 6.4566450735008765 8.04488252292419 5.6438247957722 -0.9521512344023667 -0.7896230618267369 -0.9604116746389461
P 4.753030669308122 0.849644733153677 12.502738898223273 -0.45696319329660656 -0.5467702840584261 0.58028512798642
P 4.113091995762344 6.305417136553255 8.211192503523684 0.43844893654250294 -0.45102111678055873 0.17122724301152448
P 4.513864139803713 0.9597268990169324 3.6623784102679138 0.25144617586427664 0.39114989434622316 -0.1380299303239494
P 0.2781154204987444 5.6277892011167 3.5094697604402043 -0.19350893722786028 -1.54855049434183 0.4484276450217697
Ni 1.6582007452830345 1.3011035916547418 2.7720587954143787 0.4785573745276146 -0.6140198012347038 0.2010029316120603
Ni 1.8703273574386048 6.239329622550636 4.943722758903511 -0.011545024525122053 1.2689800494375114 -1.5800436798541047
Ni 6.118546495424447 5.534353880552295 9.078490155257342 -0.484950679648468 0.9720711132547453 0.6078668942594305
Ni 8.699328211738836 2.3239115570655144 10.382870050360447 0.16712736191053798 0.2560955017108299 -0.34862179117602543
Ni 2.3441779117295125 5.509315243087614 7.0639755627260135 0.10252068167374602 -1.5876993966271495 0.8724295529010072
Ni 0.5559999240877784 9.117595707527679 9.23913859656464 -1.1570177627348912 0.20598058733230978 -0.12882743788907491
Ni 1.2356046893827572 0.8017163438193852 11.73687172546905 0.5412529537846227 0.39663482872019434 -0.8226193142470992
Ni 4.009958164990102 6.912773886917144 1.5958024684967305 0.1659981334021012 0.21642389415282082 -0.009441862139190191
Ni 5.906754939177084 7.900491537617016 7.815542187095343 -1.3339124884448383 -0.481611587972906 -0.07255935942496536
Ni 5.2107170399193 2.8667655173169537 4.839998505287617 -0.9081907696610166 -0.08662715037194113 -0.1787520906336599
Ni 0.7533523818044238 7.35716668798107 6.834553726811386 -0.12474941116495933 1.0204680165008941 0.04470737020970365
Ni 4.795591825215536 4.192962079826897 7.20071459553494 1.1143456777876615 1.951236157241794 -0.7361831968400417
Ni 8.234107610975537 7.200242800593924 8.866921365911113 -0.77298982414543 0.6454206841434884 1.0590263363900665
Ni 4.706430731372047 0.23927791295497453 10.373247606899337 0.02353047902177238 -0.7554857538233957 0.531446252106846
Ni 8.266245811468178 7.280502273957203 4.542147386238954 0.018930004135283524 0.3174204258725566 0.22706106215169283
Ni 7.391007334710007 6.312444255060522 6.776727604837348 0.05132616107780193 -0.2837037503464017 -0.17042557304583553
Ni 2.452111191997698 5.269541990722398 2.591860294641439 -0.8296867626168422 -0.37045225678755556 0.6057935566701695
Ni 1.9532401113722824 5.2357737885141535 11.404282553191361 0.7597944085010785 -0.7313942600918306 0.04593661463111444
Ni 0.9884873737322405 3.363390817800872 3.8451731415512063 0.06010159327758682 1.0073880433884843 0.03548276628764212
Ni 3.8015352789549848 2.6731394246334785 2.358847021613432 0.03210587939560922 -0.5168927797727034 2.010337077169009
Ni 1.283110183827501 3.5973775640756966 8.602137548332983 -0.2726276950378982 -0.2771170982678195 -1.785685138679441
Ni 3.672239920647313 2.3389800173697566 7.354524274088774 -1.2118452520977323 -0.6304771754597787 -0.9588764689413422
Ni 4.138203077747719 6.67201357795748 6.035035168638538 0.7535152603605861 1.3989341447318617 -0.00826429689132125
Ni 0.7436203660057645 7.440550331299255 11.304534598205029 0.02279540062796074 -0.46341769067269867 -0.3262706771743349
P 9.379844872438042 5.616080355459617 8.005017208743082 -0.41052212822524786 -0.5992650115230325 -0.01803268913199475
P 8.639706371208108 1.7318134338726878 8.03066347462508 -1.1398895876950368 0.5088868787490912 0.29611420819561257
P 2.048586156169977 3.14512453251653 10.475778337036806 -0.19226658018032694 0.2821618597805786 1.7981416192752386
P 4.1709661122313415 6.133913789376549 3.9216609720558817 -0.9681254983434359 0.8378129912684024 -1.2383299286518221
P 6.9359108557136215 3.8079828412967043 10.416415485667558 -0.5205185494507487 0.8287100005258695 -1.1243873782943796
P 6.243631015966811 7.714372508390402 10.130969585231144 0.9626935286945872 -1.0250605209675832 0.3149547379408834
P 2.4639558711310805 8.476190032437858 5.997977985190811 0.28115270178977386 -0.17155711554711744 -0.6379074064855789
P 6.8023865485104675 3.9312743599519053 1.527400352057955 0.8820308234361971 0.2282620244383295 -0.49871739441525725
Ni 5.35476391375318 2.656359462527853 0.3994409759736266 -0.02256785799818694 0.8525464408238349 -0.32731814460224273
Ni 1.413655210117136 1.042440430518703 7.190097851027312 0.5187064359426744 0.4979398928192844 -0.7202518703217661
Ni 7.0248093381695975 0.4996743092486045 9.126270033324213 0.3592659011534329 1.15342824561142 -0.20366633737683634
Ni 3.004120328551775 1.489993623797881 9.422185978113852 -1.6192105798615533 0.656302878273631 0.47206251083189027
Ni 6.229911834860485 2.0180417351325923 2.503166467956422 -0.10888724732172214 -0.03055087620366351 -0.08148391560810482
Ni 4.173827670798733 6.7922171489181205 10.48318760039073 0.1959640836365722 0.1747141731188604 0.26467604429098934
Ni 8.246577124099902 7.527501867261593 -0.0759318188083531 -0.31537202798396013 -0.37840107932098704 1.6829639109591144
Ni 7.560663346609029 4.145402251991633 7.914573846883318 1.2996497106072264 -1.3122044073437853 0.6849490812554139
Ni 2.899401773889362 8.360478021760212 12.678244805168294 1.2678824454979583 -0.3111453914971222 -0.5421901208869113
Ni -0.17532841786932155 5.101280535846724 10.113659872567947 -0.046219693089172016 -0.9396464170671365 -0.13528322081674768
Ni 8.536871374083727 2.4284037226007595 5.700564249935835 0.7267709023872063 -0.8927932041590236 1.4927169323119776
Ni 3.7502536138690945 2.6507812344344557 11.83986610053896 -1.2440303214707091 -0.18771187093010896 -1.4297711847173762
Ni 1.0239127443513478 3.117613725783184 12.6368663060612 0.2604326956336031 0.3725515625187455 0.1333497512394607
Ni 3.2620771556110526 8.49622999797469 8.099079174411486 0.31602200286313314 -0.45683078148380035 -0.33598507624862134
Ni 5.840450091612384 7.896525200109049 3.319384393705622 -1.4074288124664343 0.930021749493179 1.7372753799174856
Ni 2.8817886997957625 8.231698830662479 3.6368779389838117 2.1841801605368256 0.07134914116694809 1.1947263330292586
Ni 3.817762851590323 4.5087658566599105 9.375280867634356 -1.4944398285403553 -0.6075755882712569 0.3029996224615362
Ni 7.066265715136436 6.042742360083816 11.397827746397573 -0.4705756418737186 0.4239584562358118 -0.41246382533265097
Ni 0.5127025507388167 0.4159320655529866 0.909593479584033 0.006260893308047282 -0.8972826073889449 -1.1330990471357647
Ni 4.757793896543718 0.31786844567277805 1.3927024436195667 -1.0242426530519781 -0.8999532122425727 0.8577320987898326
Ni 5.7504649413460065 5.588850271243959 0.2789775102949967 0.3861714672950252 -0.27676922801009757 0.9268839751951456
Ni 7.811611166291214 8.840259971182897 11.304879615234832 0.05744538660166235 0.2767977672551878 -0.40217504181213315
Ni 9.076936220288466 4.802102776512862 5.818747524325637 0.25592169513712704 0.16885000102859954 0.020401446474487446
Ni 7.952216925392155 8.850302592864029 2.4269312877176645 -0.7183333131428145 0.16717981241502822 0.8762815796572457
P 8.648037491087859 1.4709950482460183 3.696585807382862 -0.3997191240724729 1.652671173512844 -1.008195112670812
P 1.736685327889324 3.12944934935148 1.6595925856368579 -0.2361414271864062 1.6505721248919702 -0.5332676215863009
P 5.003009543526031 0.8586713204320835 8.23936979984741 -0.09196836007919645 -0.4883507064689525 -0.9046876416037646
P 8.462380295680665 1.5123880362572504 12.601902769261512 -0.38573026599254856 0.9691166586121116 -0.6173984878989496
P 6.368126924778541 7.584551927307702 1.3567581891209926 0.262267949070129 -0.25322126548682844 -1.9839133357598415
P 2.031199471203544 3.476567270254247 6.262137874334466 -1.2178716607974702 -1.0911658972370886 -0.1320595716731274
P 6.595620830886214 4.022454844809726 5.980536061277348 1.2068071754531926 0.9381430930487327 -0.4240458737432955
P 2.296572806068815 8.590136207923601 10.18383869087673 1.7169952895122107 -1.0714344802464324 1.444860217840015
