# total energy = -340872.11904021254 ev
CRYSTAL
PRIMVEC
9.23889898304768 0.00000000000000 0.00000000000000

0.00000000000000 9.23889898304768 0.00000000000000

0.00000000000000 0.00000000000000 13.52206254391389

PRIMCOORD
 96 1
Ni 8.438838117822762 8.478482233687913 8.247119875655216 -0.8646504231762207 1.297527779168217 1.7453437587479168
Ni 7.054786366387005 4.308172542728343 9.013860728068847 -1.537641303628494 0.03543880042358413 0.25523161104863784
Ni 8.847696356810513 2.4668599601310923 2.538645281935018 -0.5400123965093022 0.21191392209760923 0.7342553836897097
Ni 1.2159315052464834 6.942441353821112 12.152115178427614 -1.0720309761798508 0.8108187220677455 0.632197500584995
Ni 0.49406583334560156 1.4380438775406155 8.74193221204484 -0.15761787975820596 -0.2719797770412542 0.23287766883346991
Ni 2.709279432558434 5.894861067240393 8.516668451281445 -0.1732884964159274 1.948322068918793 0.21452539157852735
Ni 7.920110891217116 0.20464253806215432 2.2475830059583806 -0.09855681192999155 1.2933394521184822 -0.6722784277662809
Ni 1.2701546038278344 2.133455809763872 11.323659404185124 -0.9643894283397714 1.0390462937237137 -2.680340592858184
Ni 7.97483289034769 7.355651114265979 10.697723069000867 -0.2381592289473834 -0.6624182471427495 -0.10515143442837374
Ni 3.925635927161663 6.9820485140900255 2.5143054023622504 1.8531722257878211 -0.3468022214687834 -0.22212762940581746
Ni 8.748331997423492 3.6851843402340365 10.333573710342794 0.48284186083558134 -0.5985854689575045 0.1770621045257467
Ni 5.002429612569137 7.167657996199301 -0.18559285209096885 0.20543705612401392 -1.2567817075991066 -0.24836188051199806
Ni 5.526524639528467 3.4486315687096014 2.1971995938262388 -0.7189465212467812 -0.3789073295334442 0.6351367857189771
Ni 3.426208760691721 8.086974647134271 9.545507631119571 1.2723895893396926 0.04057663587078173 -1.1279419284148575
Ni 6.043838314577979 9.122488931543026 0.7457648559885014 0.5443477906598625 -0.9765877701781761 0.7095542813986038
Ni 8.08997728932867 7.718434963643029 13.485796452189913 -0.2654558598798073 -1.2898787472633915 0.9303109985988237
Ni 8.312422261988953 0.9493615506770982 4.5886442687128515 0.2520277593993595 0.4818617563104992 -0.19136746540482524
Ni 2.4764222206578763 4.201481736386983 2.0831823405305405 -0.24702516397844557 -0.6411426255934248 0.27547004958269977
Ni 4.453546619432647 4.84778892010796 0.04845894945800722 0.9911546122487574 -0.4115536548135557 0.34857602553975453
Ni 4.946137000598414 5.709380929717953 9.091126564794985 0.6275132077354483 0.806696986589888 1.1842056360035929
Ni 4.275023372902156 7.910132880232645 7.1638266247592455 -1.2513391964272964 0.36786367012477295 1.2247259647151423
Ni 6.20898363527003 5.2616823590832436 3.6332293913718403 0.10409291125687233 1.5617955322771941 -0.25936517360103717
Ni 0.7477539909560538 8.873805485553211 0.9054777040334521 -0.059582487549323195 -2.466911519667629 1.983222480340404
Ni 2.175104766724978 5.519503076243097 13.494031082921818 3.462969739865591 -2.131321107754265 -0.7375852193938911
P 5.684352752165239 6.817494482937794 11.116433669945877 -0.02470573027679616 -1.0620586954584872 -0.4205982815143272
P 9.309946193464242 5.102255916909144 12.613068797543267 0.527007499609202 -1.3996951912676023 -1.1373557655295896
P 0.20038894893507067 8.230787349897486 4.45738538199195 1.540299052966315 -0.4683596080590063 -1.0652424925031072
P 8.325393676268765 0.6830770780886576 0.0989800211861384 -1.3232737777840693 1.6010737610515264 0.16914182123740548
P 1.4658067692149992 3.3636983696538234 9.097427493953697 -0.28218885636377206 -0.48799666556364335 -0.39088969870630097
P 8.810232621123449 5.83405987252854 9.313658383106429 -0.5139324115927988 0.12756554045751578 -0.7818529309630148
P 4.33854080393756 2.3323600676200495 5.9716270795274005 0.40685110713156386 -0.5039020239399902 0.3742009251967104
P 7.265987598891638 5.320127634534876 5.721779532256065 -1.182532362066228 1.2498842091483247 0.5577126420025428
Ni 3.445444148534006 1.7414123670647663 11.737772728958028 1.1598932845104735 2.060216221387639 0.7182980890295049
Ni 1.2707366544685952 5.075185942664238 10.510996603995274 0.4671036241647181 1.016910381056623 0.4659610259198427
Ni 3.851124206245222 3.8779816858117555 7.6957710203596905 1.4706802642269123 -0.6283686137572082 -1.644999258789883
Ni 5.734667796444339 1.746336700263584 12.89188029336675 0.2619236783568328 0.8208843338338637 -0.5043679078328152
Ni 7.069097421030473 2.1479608812875934 10.694436792605334 -0.1960119061553721 -1.031992729311042 -1.2767638071479883
Ni 6.515012927723373 3.2617840741263255 6.778014819475905 -2.033403729180485 -0.2285008799220129 -0.026864685601327928
Ni 1.755584838222339 6.253699906718955 3.301898449953616 -0.9708374979579601 -0.3723355898531975 -0.22742127370458898
Ni 8.57226629804288 4.055248442070127 7.27181364863868 0.8214720880165337 0.4214850549946548 -0.39984819345116945
Ni 0.23065465836472612 5.863347182547773 5.309302416506631 -0.5828279490129317 -0.2494124332636995 -1.7208519442541395
Ni 0.2648219548672909 -0.1407019654498159 11.899901549107089 -0.46670844560882846 0.21714406014829699 -0.7886193031525709
Ni 1.466028502792432 1.9956114357932198 3.997784337698635 -1.0346275958307278 -0.853424215443098 0.48285137391727817
Ni 7.9878135435265625 3.7581439261084495 4.616269500791246 0.7626727584901382 -1.946704073699396 -0.7067268392521376
Ni 2.196834657313381 8.700844056256658 3.03802902557938 -0.6230343460284883 1.1701602136541203 0.7505402368926622
Ni 2.5332044942787633 9.001801193126228 11.497620482359935 0.404338110901723 -0.9343175486550553 0.636562205311594
Ni 5.909310705369757 3.982492111975028 11.438759456450617 -1.0432541611574744 0.6888494447510847 -0.005905566851157572
Ni 0.6026820262510021 3.4041832253334077 0.7120391788609901 1.0537380914079337 1.2394190479509428 0.2076500046149327
Ni 1.2885954463509859 1.402261621482416 13.36524729725901 0.9682378555515839 1.7389165150653343 0.6682896183218621
Ni 3.56748076621352 2.5370755929847757 0.5272214704011297 0.7971905897613497 1.424146382331431 -1.5564553510112031
Ni 5.043108485128975 1.0087676716309384 7.908256459833621 0.27119610479769424 1.0389236521029204 -0.8290041347275208
Ni 5.282987260314901 6.926134696980749 5.469944697796986 0.24034209553131508 -0.8024050440827536 -1.3622272762291314
Ni 2.3170234951809556 1.960873175328766 6.863041331412186 -0.9180339810036835 1.3363992594224339 1.5126499237904787
Ni 6.625565593871687 6.320885180681058 7.532491957277698 0.8595005035441649 0.19418179492516882 -0.39822068515007547
Ni 7.048605542916069 9.170143172892935 11.923700953084863 -0.524691964102148 0.25274689695357117 -0.010636653778239746
Ni 7.73540682121569 4.779781384129543 1.6351825817864853 -1.1837310103600196 -0.5883218822479673 0.7456888223376319
P 0.43051791394330013 2.620059384338958 5.943311701689247 -0.6758211508122167 -0.3404199720915234 -0.27998027874822745
P 8.235351366032976 0.28378387129740923 10.132405922216991 0.18454324339414024 0.7906227067358448 -0.41297110398637266
P 2.3713759383491424 1.7623939068293344 1.966202172306398 -1.8371100301186363 -0.7796973180725927 1.2269450838536482
P 3.498050439779911 5.795912458311058 6.3242684655167185 -0.9508919080739688 0.06825533273297277 1.1016832518286446
P 4.084295540713809 8.449721540915082 4.23447476881906 1.9491144829131015 -1.213806489589161 -1.3633351645813294
P 3.0674345935065777 3.8635874810767503 12.217440662009 -0.12462291288942408 -0.28695079652878963 -0.2783609979772496
P 6.290710936352093 3.5759066421559615 0.258029516278603 0.6325705676536976 1.0644927588212763 -1.1549986754223334
P 2.001034669541261 9.068598433327823 7.817293955251486 1.4212124965140878 -0.26242812879707705 1.038575267624566
Ni 6.269960369064019 8.166262878864575 3.4321835567136256 -2.002861337617254 0.009273197771809835 -0.3234987708561526
Ni 3.699504633776564 2.3406473600765962 3.734929344441153 0.6800842969639449 1.9963410200002327 1.6935748537057411
Ni 4.58559820369287 1.1547237989760029 2.116324119237479 1.838906974118059 -1.1753188750369243 0.431938646227811
Ni 5.13542356453345 0.625052172544242 10.65487120738219 -0.24295022257812351 -0.13768154584559514 -1.5979149037075708
Ni 1.285722148743421 7.597331474768546 10.029881859351555 -1.5475084262305607 -0.03869176014324304 -1.8070849445114554
Ni 4.79200444758552 4.338975032193367 5.3596590358315 -0.3114652367303861 0.3187625417227478 -0.2211102438848966
Ni 7.300864442841986 5.477798685887634 12.954987517283904 -1.853219791196305 0.7108331481110274 -1.0038633180646774
Ni 8.263151213303598 7.254827008827525 2.803204852069013 1.5889831484355796 -1.8039733954656674 0.274570677696882
Ni 7.868816523637689 1.3169403886661308 6.989554195686121 -0.06575030692293192 1.7748019161080335 0.10206302531103714
Ni 2.012823504741432 4.348722070701345 4.859477975198286 0.9082802440510293 -0.3962044260509951 -0.886967341505866
Ni 3.0821429208096123 9.235942611996084 0.7156460450538951 0.6917126252314927 -0.9361432890098845 -0.7653335931517529
Ni 6.046129561544784 8.272537934748248 8.973673364938985 -0.45343101177363204 -0.9741981869000771 1.606843316545452
Ni 1.6033277817185623 4.527180644938417 7.139513537993752 -0.2913386411838401 -0.826265652750435 -0.16146090765337998
Ni 0.06376318575039229 6.786950682646442 7.301561979720994 1.2074196122262109 -1.975739027479165 1.1437868658669141
Ni 0.43518540574825815 0.021092406553284107 6.389377758860108 1.7120022071729937 -0.4058794872469139 -0.7016190857119271
Ni 3.3499046933576984 5.891405718992067 11.351041653218246 1.5840332606294718 1.5166217639540331 -0.1678668111797238
Ni 0.4421672417676698 5.896625696960796 1.0625084996813732 -2.393858508435697 1.4889011581103133 2.254108252986531
Ni 5.812912032580898 0.8371357199090748 4.8645889341581094 -1.0898482068669295 -0.03971223098795741 1.408902054577851
Ni 8.337940101191831 2.9218295443257816 12.611838176188515 -1.1146560099392286 -0.31257029686910687 0.18845980483972705
Ni 7.637659269164114 7.6650987993714095 5.445821008462216 -0.37530058601879235 -0.02077759886698357 0.7611488656464439
Ni 3.102366870851285 0.43992126540625787 5.488104677788724 0.2420644775390605 0.5716940438832993 -0.046243090127939715
Ni 2.3143811700498826 7.45169870889057 5.338672876617402 -0.52351234197175 -0.3890670436752654 0.7391564205357528
Ni 3.354311648209173 4.060117341874586 9.867089686250006 0.7215983570473314 -2.0344622523519864 1.9585239491524593
Ni 3.094190445183455 1.3269553552468405 9.256297754404404 -0.8337385640887125 0.5440559704510566 0.3387212442328618
P 6.731360227004256 1.9585542116647825 3.322357068031405 0.6509632112282725 -0.010546665167594739 -1.2060183610033102
P 3.982150272709819 4.870618239684466 3.392279827784896 0.4574851272383476 -0.02567786438207836 0.19451655255676825
P 2.1550563557654394 7.2642876414646524 1.3071822634792807 0.24930444693092552 -0.12005740500592874 -0.4645284072383742
P 6.506171301323246 6.840591730587032 1.5349978081629625 -0.31226433559291383 0.09031565496712188 -0.2860552812977138
P 5.230353252371818 2.8537665749530072 9.284735085710146 0.47051599228037677 0.027966146195622803 0.4548690297717392
P 4.616696337927803 9.083454583015815 12.572502639551958 -0.9730908127685113 0.811009755032629 -0.36185191671305417
P 6.620724410764406 8.898547257235075 7.025117489836606 -1.1665354724173393 -1.1407203111264481 -0.6582756857292856
P 0.15398380673803366 4.595825664951953 3.043302589162654 1.23307947888616 0.3596009158953484 0.15808144965818582
