# total energy = -340865.5015237706 ev
CRYSTAL
PRIMVEC
9.31120884707574 0.00000000000000 0.00000000000000

0.00000000000000 9.31120884707574 0.00000000000000

0.00000000000000 0.00000000000000 13.62789533911187

PRIMCOORD
 96 1
Ni 5.748824242733832 2.054778981579499 0.804953087664604 -0.8533671369529173 0.42177687520346074 0.22023221215531746
Ni 3.9478781299352663 2.681386103016044 2.4372676185936872 -0.680694162633802 0.16365508709122137 0.4739563854204934
Ni 0.3865930179451389 1.22669591961686 9.939096421183079 0.7278643925617013 -0.15117263835349448 0.8392245269039482
Ni 0.7673125252477111 4.809351187402414 2.9168740278084146 -0.7497545077665733 -0.5178654280986178 -0.9233705627252484
Ni 3.476004679802105 2.200322489591485 7.618238468734659 1.1823793814281314 -2.9308125777346494 -1.504418537019622
Ni 4.368847200418915 5.219388898510075 4.7383103871511025 0.003084038241962431 0.1268389467041364 -1.6809216837181051
Ni 0.7310937844464171 4.475479165984348 6.993086689266144 2.541003513687037 2.246844629445582 0.1333510367910413
Ni 8.776056581952883 5.069068740276724 10.436447201405318 0.9665111026684645 1.2567858213641645 1.5882295580990067
Ni 1.6408212514792557 8.258008846346533 9.76519097053118 1.105103076143471 0.7101430640225382 0.7461235958822054
Ni 4.701853279399192 0.19121219483601495 6.727382960120264 0.7332495681330146 0.44927148107930365 0.3283419578810668
Ni 4.080981862711886 5.024086289556623 10.42106135963966 -1.4863855907773111 -1.3513090866547308 0.05653238786908974
Ni 2.3589948023054674 0.5557572009699081 6.027945424060971 0.6287033713888075 -2.094856694279644 -0.8666756811363655
Ni 8.49320998590144 6.204133052040858 6.513766134167977 0.40361048870707905 1.208679966995873 -0.1713290586967114
Ni 2.2153880257672505 5.582861253366188 12.930773908803145 -0.48464291860006214 -0.2395391400140455 0.08888329339596951
Ni 0.41717754617538466 7.773853911531147 11.614087947481757 -1.806004566963083 0.8440108925489982 0.7582412050813457
Ni 7.002308510668169 8.904234685164003 7.883710348776226 -1.406714560008229 1.2730292798062204 -1.8324581331689216
Ni 7.597117853340661 0.9108494677183641 1.6860979364040263 0.6963254414131556 1.4331182468127381 -0.5023076828696769
Ni 5.214044264539192 6.722916373158882 8.503602226275836 0.29005668914762306 0.1744830309446608 -0.7576578217740499
Ni 3.8879604999655184 3.153566823046486 12.1533568595394 0.7590670434167508 -0.09646521950828547 -0.9590587601554774
Ni 8.249824293628052 3.5774409907407896 0.9631281818175322 -0.4146461776959504 0.21823369366804996 -0.7545012784229393
Ni 0.3091572793467841 1.205959857154913 4.583088808495673 0.5288072718221022 -2.8233834030156926 1.3956541884290092
Ni 3.0132282808702553 5.130960346556275 2.4696203454146484 0.6656740350758859 -1.7415374976279492 0.604378678600514
Ni 3.725805795082354 6.540323564502043 0.7599622568563948 1.5122557736758537 1.5178687489872569 0.027909581926074515
Ni 4.342692014314017 4.2183780628414285 0.783811056489886 2.0268960099689544 0.9229280758711912 -1.3070902260456716
P 7.921781089049312 2.0849752323940898 3.825118219246198 -1.6859561608182188 0.40833617631752256 -1.0943106135136573
P 5.301113379977749 3.1123181671387963 6.591023097553369 0.7693889941680492 -0.23520066053969174 -1.561343018120808
P 0.5102700827215455 4.045757559032701 12.964352921850526 -0.9352148636583443 -0.4123501825729221 -0.04231855826255292
P 4.31839907001082 7.070643473581608 3.1863245874593176 0.8537031801360975 -2.318249820661446 0.5799166889034078
P 2.0247317101090436 0.7056360078962558 8.590453459423594 0.5571719390077242 -0.19082599107905845 -1.536648343587605
P 4.4532253764540135 0.11514427284100996 4.673223173939831 0.5269661048483053 1.2124869994467893 -1.273304130734162
P 8.576787397961807 0.6361892866272006 11.993148197339014 1.8913996447001362 -0.2723788122518857 -0.4181716743507056
P 2.253964364689499 3.4002207496818597 4.046435415048521 -0.1545911771167402 0.4253501943770159 -0.5736930765911992
Ni 1.1901866690945007 2.2279581579287364 6.772287196684694 -1.3675875120997802 0.18429050395338584 1.1121687247410008
Ni 2.450309829051904 0.9607491679158584 3.4507601299382387 -0.04875017282050959 0.5226877891879257 2.7220490283405634
Ni 0.5233197421469692 1.5170101052931269 0.4215882658827148 -0.836106807210573 -0.08994952987695476 -1.6964490899297429
Ni 6.122762396515507 3.523966717404929 4.262819532318136 0.9221721715417731 0.29338035420421726 -0.22606398834574618
Ni 0.04201589952999089 8.824772827485397 8.209635253305532 0.11941128678149757 0.9852976392473483 -1.6981835561223464
Ni 2.1414290926126727 7.065606109508005 3.2183365240305672 -1.2986459519330602 -0.29719304308208816 0.4958398157571461
Ni 6.262179128999896 8.113396459235396 5.5528493644899655 0.5025869046729925 -0.6657151727264664 0.1350777896741609
Ni 4.0668660698549886 0.7428957418647008 11.555419881760951 1.659616751592742 -0.5965645818727339 -0.1930332831430224
Ni 3.1931022164966105 2.1171920155635267 9.689637958394345 -0.32898267678885923 1.1886852690415013 3.631361313200533
Ni 1.3161114597255612 7.183532571600757 6.350013625818953 -0.48207027277687947 0.15686968873827176 0.607184009259793
Ni 7.287287373582561 3.625598563732792 9.486827721617331 -0.4182922590889699 -0.11982600572141297 -0.3814218684251818
Ni 1.8040746790254243 5.49997287077245 4.96471057195117 0.6185778529190314 -1.3956770712471447 -0.037296422457613186
Ni 7.354616725923082 1.1214606354027041 9.942013622965446 -0.5355145086389487 -1.360732951071792 2.5124748101197247
Ni 4.985025767765933 4.035589718795411 8.48023016054358 -0.05372217211380425 0.8087160739024459 -0.08630370559425136
Ni 1.9772911002106959 1.5222336935468996 11.956611013189628 -1.1674615837760345 0.07427171413038178 -0.13349244746491204
Ni 6.6832320003646215 1.4814692205076523 5.650915948888471 -0.09912965371432604 -0.39606661492155015 -0.020589908336209703
Ni 0.5858026101985613 6.519987884027462 8.454651338276308 0.15847919931723675 -0.827615224799794 1.382730795499122
Ni 1.8193916178444196 6.189374785762372 10.704984331452488 0.7544570554485652 -0.1956280404533921 -0.8859227022914355
Ni 7.640405664021213 7.6803041946226696 9.563117250386739 1.578250592509424 -1.6643113288549336 1.9643732088443848
Ni 6.296928561019648 5.898129479185256 10.693182374034205 0.4732004810910753 -0.17852763332767962 0.5861271885894938
Ni 0.4273835623696101 2.3957182106350228 2.488044434679783 0.21912483802375166 0.28127714318278013 1.1142150657470682
Ni 2.628405323757634 8.220503296460262 12.074683661263814 0.0554718078150593 -0.13479831076052912 1.2454032905588357
Ni 0.14802028960824953 3.4820197208216013 4.940507015254454 -0.06363994544814847 0.9814795510528388 -1.187533157714929
Ni 4.199997736258634 7.293078945585853 10.603879499554507 -0.004197583021115352 1.4388376657950188 0.16080784745041338
P 8.420303219364824 8.540631973381771 6.073639251149323 -0.8086955050771557 -0.04515757037324481 0.06255365436250518
P 5.924154308364035 8.664871435182292 10.264967320700135 -1.2432512772128395 0.6160545722765455 -0.1725287354317674
P 7.890448870735684 6.753261603317609 11.942533396289667 2.1656836443945346 -0.37983061267866197 -2.29302806998018
P 4.048811635587492 5.931463607435714 6.660401846996661 0.69437860209943 1.3100320822828146 2.253065156433997
P 7.786861670516033 5.671755365770412 8.618321907986058 -0.981678297327206 -0.28547858285863736 -0.9007106592338874
P 1.6350576131029895 7.169211932145672 0.9531940529263553 -0.7002224624747166 -0.19837912083596804 -0.011212580886367784
P 4.567585645496507 5.914964145072639 12.416893870348998 0.445463163076807 -0.342566586120881 0.31923202515999866
P 2.2898404529992797 4.975835604474534 8.813555613992847 -0.06366874180355488 -0.22442799540421993 0.16883431729931567
Ni 3.360005637974114 8.558248780825867 2.1725862601969417 0.8282173771601673 2.6385097728653264 -3.0071745987351566
Ni 6.361501795493649 6.467323685875342 3.1228733536708404 0.7927209840257702 -0.879411126425163 0.6607714555679459
Ni 3.055212522289618 4.045031284730038 6.73069495716459 -0.7280960489565331 2.3812593316144475 -0.9069815798442636
Ni 6.172409762948871 1.8778287655818149 8.193894654476649 -1.608889400441203 0.16710936418840897 -1.4646142605384906
Ni 8.466961687706457 2.7161914022898466 11.46805094539232 0.9248751722952329 1.2014086301454407 1.1331281006014873
Ni 7.347717120047777 9.00271934284699 3.5398320864345254 1.1704453489947069 -0.48859470415895845 2.4703840515972617
Ni 1.6991466647085491 3.9017224668800927 11.067650335608464 0.15789787289247 -0.8178152079902368 1.2670522362871792
Ni 3.6764284537102365 7.611708517856992 5.395270187713582 -0.9721803851390999 -0.6752053716050886 -0.9001851257477207
Ni 6.232271525664569 3.7381524582276353 12.765536262617262 0.2412802910748683 0.3972428946178384 -0.6251781318443684
Ni 6.318865769443692 5.538986836518099 6.457823459323961 -2.1018174418681927 -0.9319508481950918 0.6494812273661072
Ni 3.9632788696353387 2.3066285628416194 4.9777118130897495 0.12454398002237262 0.23347262210499142 0.3412977467107864
Ni 8.544403013030216 8.674164021772782 0.16739598443405354 0.770800272693279 -0.8345222363322724 -2.1260374907578226
Ni 6.583006146597043 0.8713531813460753 12.609483192997374 -0.9334991665188181 -0.19795540303498813 -0.23516235110258854
Ni 2.867824440993397 8.031793023484832 7.723078026565953 0.4598220029016404 -0.7350573107657147 0.21052809749367613
Ni 8.08498796055044 3.709762581960695 6.842130575457511 -3.037101725311892 -1.6644563390732303 0.6922749254928658
Ni 4.301499225660378 0.028718561944940806 8.8877044958112 0.892128059771199 0.29272266601556035 2.090164688120613
Ni 6.657188548767825 6.653799268688729 13.438222695195112 -2.0752474046891485 -0.8139030174200242 1.6485818339348188
Ni 5.502999013700216 0.9063856741196853 2.9779136584636876 -0.8352627140427229 0.8045768549230916 0.4426496048874118
Ni 0.5433127701300373 8.759724721351962 2.323010703971188 0.3262421379292446 0.954631063401427 -0.44904573822174276
Ni 9.12447271184224 6.87712861675779 3.5896964040377877 -2.225933847434844 -0.9160889414621707 0.9432711583039174
Ni 0.7535719741138559 3.4616002394659433 9.049808920165717 -0.8555134938719589 -0.7779106584858151 -0.16366151484912458
Ni 5.768778163639064 8.172429524349335 1.507504292016341 -4.709166215749683 1.597975838852493 -0.9979022153852362
Ni 2.3279791650981276 3.2777690400109725 0.1649313074095015 -0.8735706084839857 -1.2702221493747285 1.3588699297211242
Ni 8.829763635513956 6.1369340566264565 1.1357607901979705 0.7643326626910643 0.1750666713622727 -0.4525177559307432
P 8.358122965606007 1.7527419837615204 8.132446261745901 0.6416463047027208 0.3971886443411353 -0.5729806239052068
P 2.3441620463549144 1.1332672484254922 1.446832454116904 -0.03381720565976112 1.195486865344367 -2.0797177817556767
P 5.37561236325482 2.9937771652514824 10.437605515805977 -0.06149256008784249 -0.016977508394603023 0.42857564329284903
P 7.618552256478245 7.844386319770595 1.8122098823361577 3.8054900461295684 -1.736962219552441 1.2503318382087047
P 4.477136561187862 0.07614799839247817 13.60555908789151 0.3839837156150871 0.09126850579869443 0.39616688794484034
P 1.0978939654021709 8.32479814856456 4.680895610162841 0.26165448385584616 2.1368379238074358 -1.3397136685076474
P 7.564081683778474 5.389830579410811 4.731755296009113 0.5617685572394712 -0.41416563851510607 -0.8749970565178673
P 6.290755229447006 4.024518691284295 1.953722567968361 -0.6327680283764845 -0.5748881253405647 -0.4187835969030917
