# total energy = -340857.655212119 ev
CRYSTAL
PRIMVEC
9.40008838650153 0.00000000000000 0.00000000000000

0.00000000000000 9.40008838650153 0.00000000000000

0.00000000000000 0.00000000000000 13.75797952913622

PRIMCOORD
 96 1
Ni 1.2184394783783603 5.663553353826277 0.36577624581591384 1.75483987116381 -2.005003580771237 0.8588728972624949
Ni 1.5573032706639758 5.081951074808949 9.03783734146037 -0.6493662990547978 0.19401852987442714 0.4925194931346615
Ni 7.869199532241465 5.974198080272578 9.202740274937828 -1.1472473136116885 1.2079369181822617 -1.016546827069617
Ni 3.638652078128717 4.50951388213184 7.926990336663024 -0.31729135649386003 1.1340644963728277 0.5889967968278049
Ni 2.9782112564084176 9.239845244487302 12.518124247700984 1.1413098650813314 1.0100257381216478 -0.05654395783331552
Ni 6.662547764909908 6.353049849267201 3.523487833217402 -0.3036071741385481 -0.9109742459434246 -0.6746366435858123
Ni 3.203766381263291 0.16145404098696992 10.035965064379315 0.27844121639588176 0.2811357325089094 -0.6551489671748458
Ni 0.9735107710135511 9.074093483013412 11.159042524394362 -1.2203396627219885 2.4650670102597223 0.24075244359585635
Ni 4.179222970607534 4.784269070478707 0.5170734911202127 -0.2576934423255691 0.4440387719254546 -0.8687117377297877
Ni 5.5640064160386915 7.5582258026957705 1.8085554175991068 1.2126497502768987 0.6513866719189363 0.04575072387255347
Ni 2.468106050933336 0.32143414808866183 5.086875781202426 -0.783488923904541 2.1772196700585926 -1.8323326633346506
Ni 0.6373852245237355 2.546248987083307 8.314429086551788 1.3971225454444196 0.4708859740252858 0.8799927099602459
Ni 7.008066819891803 4.044453901007854 2.35925960553921 -0.9512878579608067 -0.14392289876961664 -1.3685213367679594
Ni 1.640475254190374 2.004653484952096 10.744871802675537 0.9435408670255363 0.4100726993926551 0.3201090284483132
Ni 7.787390561555407 2.18085814489811 8.15486352335533 -1.5196309830940022 0.7827016521165552 0.21493419698117178
Ni -0.046122474499392545 1.7659382361215263 6.152898463729698 0.3933528155348129 0.45196265475822156 -0.6564052081794501
Ni 0.28742744772660817 7.266268452294957 10.043710737347867 0.56810041299477 -1.9044112264684556 -0.4776790856877192
Ni 3.944596760297985 9.321203010922765 3.2551651254680825 0.49187620312370767 0.34072336226455513 -0.02946149979422668
Ni 7.827058935253576 0.1582984312593691 6.976616943616456 -0.6811667313948463 -1.4022333843084238 -0.07004173520943421
Ni 6.6640987795213285 7.907345091593876 13.251259714245318 -0.5266881685965703 -0.04239723401928827 0.8751716344225186
Ni 4.402625475183527 5.695081250836623 6.149266269512406 0.24635256339145312 0.5588765804036568 1.6454576864835406
Ni 6.879699210597444 4.597038106658771 13.211884623310034 0.39202329809011194 0.8367696376055523 0.7521870284674659
Ni 2.851018658183316 7.985403426946861 6.150601082087083 2.3855759567119303 -1.5872049734892342 0.23830655315852503
Ni 5.770845964582414 1.428625458447332 4.482803530505454 1.818092351365553 -0.3561823771321027 -0.22138406637157357
P 8.54051625641882 2.8447111987635365 3.141166491537472 0.5992367293882583 -0.523612357884724 0.9415955703737074
P 2.1252472210122413 6.1815828339524375 7.075467334842186 0.6017808359663507 -4.439517143724134 -1.5080623044197963
P 2.4745545116814265 2.3691607188132107 5.912133995594341 -0.9953174853771954 -0.23462319076966692 1.3162415535276364
P 6.702667342858671 8.41082323463834 3.67009255431551 -0.16637994222155217 2.019443410345651 -0.627514493287029
P 2.622624706585114 0.8000725571289993 1.673397184333288 -0.5826338307242547 1.0313599808230496 -0.1690747154448959
P 1.2818994762068765 5.699038688117885 11.439210283730663 -0.5853134344389468 1.353522549366282 -0.3506786737050541
P 5.7350410272799675 1.6632046683141117 0.6174636168510981 2.476043563875884 2.3688820409960174 -0.2551714472346638
P 0.9567880134758632 7.688642631294917 1.23322581767391 2.5765351309347437 0.341850791000779 1.1809256797007404
Ni 7.926389671004419 1.954015207911329 0.41399588007171906 -1.4955762561376436 0.47587237149628364 1.7453555858224588
Ni 3.6148228536441533 6.756642651336133 9.189078186233345 3.2249493504889166 -0.7103456669516476 -4.003353403671383
Ni 7.825338719048181 6.53818459333958 11.457204873249717 0.5970934577930103 0.2935834713539589 0.9555206650952317
Ni 2.581734321374916 7.4501529845896455 10.737979657747694 -1.2668267505399344 -0.35635541237485724 3.710777290536016
Ni 6.209040492618872 4.386635924553056 7.562142819596252 0.4928691631645963 0.5716138254646672 -1.9553964592670707
Ni 3.75577718151241 7.009091429544196 13.200094092236666 -0.23287021263430216 0.5564893111184028 -3.7914443666697797
Ni 0.06186104276546945 3.6596612760470597 1.282656183335479 -1.65908556167962 1.1533117746382138 0.5043632798471249
Ni 2.2678747646431225 0.9422648766598273 7.63858151969137 0.7055320476130881 -0.44455402099897634 0.06990803784504734
Ni 1.9908447548661694 2.9977164401581096 0.5360259496629256 0.9021805589111946 -1.3866872090437083 0.2331581761883662
Ni 1.762187600788453 7.80461152378646 8.097588783795391 -1.921769515241245 2.7653294362957537 2.774164260978564
Ni 0.8072354246071994 4.700298079425214 5.306783332854016 -1.0970280124448204 0.18305843131849764 0.024637081822389828
Ni 6.076912847902885 3.706304515452348 9.710615779407885 1.5087688435685178 0.27406391326379254 1.1566434101146081
Ni 9.311746521837373 5.8448528617685955 3.2032568964636607 -2.229863264396237 -0.8111257117852031 -2.0542355783241715
Ni 2.062398228939739 4.3017437248212635 2.59026960178201 0.03889564862393301 0.21019951050966382 -0.18423856766952787
Ni 0.4025484522305744 1.373202536332544 2.2113200718664245 1.019892089392766 -0.15273072686923372 -0.5888983235767277
Ni 8.339974767206325 6.9515628875932975 5.256896122888719 0.4282354863446109 0.17503324702117595 0.10303104565126128
Ni 7.041643936206936 2.465784229060481 12.14012412672936 -0.4758376616036063 1.07035873068375 -1.348070782223091
Ni 4.380995871420615 2.9529626185521893 1.8482604516426366 -0.18310625383729753 -0.9555476616784252 1.0432230508092228
Ni 0.37995627939972615 0.5830292124598343 13.751596347695012 1.616750291246519 -1.6138855681042144 -0.2187808244207716
Ni 6.294365096424151 0.3688688749502023 11.70649992174789 -0.5549173386455927 -1.7926847099257255 0.35647676844406995
Ni 0.4889427861133072 8.63796697445885 6.041652175727719 -0.26701497683681114 0.14844315523747337 0.3165678480642742
Ni 7.760111504571501 4.566093015138779 4.508310670796919 1.8161064312837754 -1.0845815591513517 1.9117434984638106
Ni 3.468557475742847 7.013161667888109 1.3993517026722517 -2.2775780539736967 -0.405657858154411 4.779581789358768
Ni 1.3337785649367806 2.5682451942998274 4.157179762948244 -1.0807493298894548 0.1329442882709259 -0.6342284149720948
P 0.45586481450039557 0.11778592960904463 9.008656646561976 0.10188459075164388 0.8988610076196584 0.041587593633799345
P 5.62571799739615 5.848612897190224 9.141654739478069 -0.7013020686921406 -0.6931107911305999 0.8474690263009275
P 4.728178742076581 8.198108630748322 11.34110155949185 -0.8528554874238214 0.41260035091051517 0.514712484291933
P 8.502210895560992 4.031773181548416 9.115486772961253 1.0250157837725766 -1.7227147084944912 0.7968028674046277
P 8.52852174342383 8.733594075319388 12.512084690804997 -0.43137403197359253 -0.27409810893583764 -1.489210718930932
P 7.106053342979413 5.956159310337321 1.2623115716779085 -0.03761601058056102 0.7686258907497795 -0.8201148026576908
P 2.954560633606381 3.067784700240136 9.288108119150456 -1.2536411050875957 -2.1623329827547466 -0.10350618551546689
P 0.7981427189488489 8.291385709470344 3.842548458946162 0.4083814277331612 -0.11664503689027007 0.7901424246653166
Ni 5.7695863527161695 7.35432848186947 7.587388637425914 2.282936747182449 -2.020175403415669 -0.15603665131401515
Ni 5.514026145196709 4.066233906187631 4.442671732441569 -0.44603960440556734 0.9408761757091797 0.06404437997541874
Ni 8.860420070090882 6.9848580012518084 0.031777939365884 -3.6511559793289567 -2.4001386850174535 -1.766124442938694
Ni 4.514166925966103 0.14149765298668243 0.8623697640033775 -1.3674008500102706 -2.80050109910088 -0.2501840213224014
Ni 3.948704598996113 2.0840654330568666 13.286260003967536 0.09468627323099177 0.7008017320169544 -1.291895520583104
Ni 9.386326824425351 3.8484150542127553 11.328595681679516 -0.3529924094398953 1.2894933388995147 -1.0377417159796771
Ni 7.8149422211073825 8.544013089360936 9.698922069246624 -0.3288631204918594 1.3300933718090642 -0.3691103980476804
Ni 4.2590767228743465 7.050301417765234 4.413037013266013 -0.19448544220851666 -0.5287316813891604 -3.1503307945420778
Ni 8.29990218970033 8.033325078395501 1.8754737080066648 -0.3853096335153622 0.0377075418531028 2.206473681827703
Ni 3.8432074051538017 4.649979405395285 10.335228163604352 0.7614931363597401 0.6944973870654814 1.7549604559020744
Ni 8.673743711495636 1.6579970192551576 10.363253587619452 0.9420660822522227 -0.6977408337034435 0.3473768630253308
Ni 5.429970553346228 8.70231058061145 5.428871682994258 0.3430820923047188 0.16246698032039117 -0.17028441948228093
Ni 1.3946347382358202 7.573895750315404 12.821102261922588 0.3761212821478748 0.016231888477830112 -0.37916418273925667
Ni 2.3975771865121596 4.225903810367039 12.368065934068111 0.9280013766290406 -0.6390767442033316 -0.03150526969713283
Ni 8.618358389735064 0.2666870923409114 3.810919040979432 -0.9577420982265828 0.28871405907679953 1.5363935472643218
Ni 4.6399025104653235 2.105384833897494 10.540305195544187 -1.1008211609386653 -0.02587121133980706 1.2425064286270149
Ni 6.972807087725492 0.5473229760872051 2.0130402439600363 -1.1111999330698283 0.19404681200920132 0.8975448599113961
Ni 5.501589828039676 6.267180040325785 12.01959055123596 0.16226643427381085 -1.4599783044283758 -1.236416256568877
Ni 8.819548485057792 4.710929579579865 7.111307052472283 -0.44200425799392906 0.702510487177945 0.159079551905397
Ni 2.9647973300417614 4.435478784679996 4.999800880908379 0.1704559120631387 0.3389323318024034 -0.16969692240992712
Ni 5.124289073656474 1.4890586277614384 8.184663684089438 0.6245266143032987 -0.7310219643540765 0.6440703407631811
Ni 4.447275895815352 2.972496002567544 6.612896497167318 0.6190200826627728 -0.37362499808858235 -1.6991312647475965
Ni 1.7438950284622357 6.393902634123184 4.011909854424814 3.2485214813819026 1.219272654910055 0.7959672588772099
Ni 3.896073503181883 2.5128128720964855 4.32184957422956 -1.2600773476312426 -2.0549166635515963 -1.9364728828896909
P 4.612228649762146 8.924594474649508 7.3572171290821355 -2.9191515964569534 2.452228463734157 1.0697516932273705
P 0.04777971011147482 2.505085999305041 12.925965889796355 1.4624545338830106 0.9188042835108047 -0.703026507582415
P 6.4234471124486205 6.090712177900258 5.682816015291274 0.04904096458805102 -1.1275737464421614 0.4661214627571069
P 5.123856669582986 3.7455874855198004 12.157224767826921 -0.7911582675243406 0.6767192371464539 -0.11804680233380314
P 6.640382356099414 1.4049090350254172 9.91855419830358 -1.0245033629125324 -0.1955588777783535 -0.7333896932553047
P 6.703851754016485 2.164219988157409 6.34977579842382 -0.6749066094177473 -0.09011022382453514 -0.7714790439278585
P 8.549305339216875 7.297401545586032 7.453646997505192 0.2477921240514571 0.399465356190454 0.32452772634129917
P 4.020333273778115 5.067399737727252 3.101048793606419 0.23838188648115072 0.392965093178091 -0.777068365090178
