# total energy = -381167.73856646754 ev
CRYSTAL
PRIMVEC
9.24455816805835 0.00000000000000 0.00000000000000

0.00000000000000 9.24455816805835 0.00000000000000

0.00000000000000 0.00000000000000 13.53034533321733

PRIMCOORD
 96 1
Ni 0.8882402517947494 3.3470384759300393 9.509113297181697 -1.3715400689896249 1.7922854176047776 0.003360431831800664
Ni 7.770578006690492 5.728029876978602 4.329778449337947 0.5851316574454439 -0.7884753213755388 0.6649302149313258
Ni 2.4746849971970786 3.4598128399572463 5.729803907674301 0.40004231173984656 -0.138327149849394 0.7232356355404383
Ni 0.7512488434191797 1.7079505945368152 10.936605262031799 0.0628264484079176 -1.564342467068764 1.3692337894539515
Ni 2.778109882523826 8.71454907687511 3.9181987056569483 0.29356213119772023 0.15600836917924102 -2.201314249113951
Ni 4.342381555369449 3.4091619062327556 13.30747294752612 -0.009991821105389244 -0.4528018628300653 -0.3010826079444815
Ni 5.276072676968261 7.303700089937803 4.427129192663212 -0.8790020639122024 0.8590032521927723 1.1276637350528063
Ni 0.8126641405729095 2.490816751048007 7.102240831330236 0.5258379047811331 -1.0866209581788835 0.9949382476609058
Ni 8.865216884475359 4.165792006910746 6.096138010740629 0.11890195124524684 0.6968756574896708 0.5503119786630974
Ni 3.5547082286562617 1.4668987425809639 4.9051967225168545 2.4618924691864823 0.14063702892949326 -1.0968164106546465
Ni 3.320672996283708 4.462348185583489 7.667727675762982 0.08320758316743089 2.1051696461698777 0.20838688278095724
Ni 5.693372028733828 2.512559951653957 8.955099873782986 -2.4239118761776512 -1.4705627648124417 2.1973791757256023
Ni 8.24290096815275 2.56978376617387 12.16401078514933 -0.1234142372933036 0.7616507449835269 0.9446731808577666
Ni 6.68620058837527 0.7460450816755192 12.894391887612805 0.1057661851942372 0.373230333753325 -0.361211712025894
Ni 9.270905071291489 0.952143259528012 8.872212241575072 0.22309539263572548 0.77487727097613 -0.30999199461896937
Ni 5.809465189112028 3.8512181845386 11.069472673047542 -0.11840007190816383 -1.7594136065774215 0.6117939972279786
Ni 0.4890140110770719 7.914035058987746 8.694829510033038 -0.4721010773793095 0.2854387307596375 -0.3742271504489555
Ni 2.6254637394942955 7.976029065477332 7.832852123289925 1.9664704576930454 -0.5090357456221298 0.41468885800842775
Ni 7.207085213435767 4.9997158577019825 12.861053237806157 -1.3775181409499309 -0.2863766691928746 0.3948494546849974
Ni 8.906059342076162 5.223970347625091 11.207550316997601 0.18824948860113386 -0.22539087353812148 -0.3774245743403306
Ni 1.9475787845482293 7.729421234114943 5.588154166481835 3.751850663537558 0.43225412058570073 0.49871199509861847
Ni 7.497475271868642 0.6811889600041301 10.694831410089842 1.0790732277386128 -0.9975690004155335 -0.7666006327896346
Ni 1.9548080289673848 2.2501809042057896 0.16059276515575333 0.3171337478700732 -0.8670662317065647 -0.016644036314584238
Ni 7.044750773537598 7.748437290087068 11.93832431317951 -0.20009096132075216 -0.49734802487155644 2.2282306138888206
P 2.1672202399890375 5.146288326072454 0.11916327811682148 0.23469569587881514 -0.07179111380037313 -0.06583566754788661
Ni 7.322290896238214 7.930897132927054 5.955949834180732 -1.6739244264646658 0.2644873253189509 -2.344728326567949
P 5.7440229624583194 7.563481416565277 0.8787618063945448 -0.822766124237609 2.2295043383949213 -0.3948687379587071
Ni 5.686660479567195 7.156452768827437 7.603729449081487 -2.0862504406678712 1.1628392545126747 0.8852742700741593
P 5.810029107154954 3.684548046900554 1.476309702707179 -1.510435175527347 2.104302413073576 -1.6861176260967479
P 1.355067323477994 1.1600441262062535 2.334877696430109 -0.7483296023945886 0.14152585929234981 0.1274488123739934
P 1.154164587266889 0.14180042748918173 6.891032261770699 -0.24353720542984514 0.9596513994341536 0.14003307679690724
Ni 7.4466579360986955 6.507660438161527 1.1354813353856705 0.885795946905584 0.5002703407246739 0.6203534567622155
Ni 7.071994486201601 0.3058229236928975 1.578653431851863 -0.6322455802141113 -0.9722428629459191 0.26225637910590316
Ni 1.3569901915587925 5.894912639452505 9.463692009963493 0.6613764361417964 -0.26995349063984475 -0.28596272158390756
Ni 9.204325763993845 3.416548308139284 3.9926423585138946 -0.12095523422984976 -0.6334218599103993 -0.4419484650553292
Ni 1.4733144658890123 5.323321613319033 4.661096015305969 -1.9413124703701792 0.5298089736137391 -0.585251985073392
Ni 8.388105241927267 1.55950148087595 5.7341192673864 -0.48122669382966154 -0.6771660948758854 0.18831530884206277
Ni 3.956393521823422 7.316041574975619 2.1036306227747126 1.1631642419522612 0.2937763040910554 0.8918493521885156
Ni 6.403686893427205 0.3459720394376439 4.250490648046681 0.1505925974803084 2.2708710742671663 2.378191491322401
Ni 4.869358344205167 0.2418875600063522 8.401843579691088 0.4412889770944594 0.08397094369601668 0.3323629061150018
Ni 6.869289061164748 3.2226991697437994 4.831293876307632 0.7232225229143157 0.22261562478582952 1.137123080693493
Ni 4.684226824079841 3.5218992920276393 4.197748595284322 -1.0380001118473867 0.2562322843990103 -0.06561840933075795
Ni 1.5667677035274283 3.721211964248854 12.067174039253356 0.08513153966302113 1.6893561876387035 -1.3102812221791436
Ni 7.130216712994236 3.327024007685191 7.647391496896923 2.6495837712913013 0.550535150417497 -1.4046162827183035
Ni 9.183553241986376 8.367175562432424 1.8570532984539903 0.5851103172892053 -0.298140494597022 -0.06210936773623496
Ni 4.771541675152632 0.8795115400548945 0.7746301797170413 1.1412664134379056 0.10489946631856771 -1.065137591494127
Ni 5.611631646183736 4.9782777275126975 8.897961109197416 0.6787244405019408 0.6390628602462607 -0.532048147356903
Ni 7.937802817813384 2.7938718540515244 9.825926151521005 -0.5742741459056497 0.6847765602332916 -0.28141186898843146
Ni 4.786924619799018 5.997074250802998 11.668285224905626 -0.3179017363843492 0.5984234894583436 0.3831864165247723
Ni 1.3743144934021392 1.3175991295766685 4.7501525411211745 -1.1170101119937021 0.24743319805014158 -0.22891431331034773
Ni 5.773402168038978 5.657318252218858 2.853319909245668 -0.06077522230584371 -0.7878189187384625 -0.860736175723479
Ni 3.683290787001571 4.648838655746687 10.196630157192109 -1.3369520466021105 -1.0504648199733007 1.2060594986538906
Ni 0.39186017683892693 9.109143793994328 13.054686053542552 -2.36078949379587 -0.09764432741805118 0.8728319305457484
Ni 6.953072491050688 5.523697409719534 6.765687147665272 0.20751913546402326 -0.8605037479976987 -1.4054395499505472
Ni 3.657110198516855 6.128550355827586 6.140192027818689 0.9137505231369812 0.7104490252987313 0.78684215664749
Ni 0.4840256475366931 6.484160771520232 6.271071858847066 -3.628481420549577 -1.8445631439625714 3.179533127137647
P 2.013427771757492 0.4275765269839483 12.088997667514608 1.3987837351969263 0.5025388250438765 -0.48664812195554896
Ni 3.508337525323163 7.365139422942542 13.235072342005022 -0.036978634106878246 1.393098511886691 -0.7455183581980386
P 5.637479430577545 5.198196519695927 5.07489445292635 -0.37010747185362713 0.40122167675992837 0.21091890517419157
Ni 7.813759337485728 4.437554280810887 2.0960537829717207 0.4733308360213526 -0.6643853981714494 0.5406163486418882
P 6.743858897124978 5.781260042407625 10.883944561380552 1.3080461622010378 0.6399025825387367 -1.294614462176164
P 5.576446858128358 1.406245197013089 11.039760663375976 -0.41668172006874044 1.5344960731312927 -0.6046069925612361
P 3.604739776989342 6.331246536306359 9.019666640786447 0.18870714496384275 0.957100607987842 -1.0725174288979658
Ni 1.8979355076545412 6.923009188172053 1.3562275155171295 -1.8367487901244755 -0.5338839150140612 0.40921266538520495
Ni 4.042931830017428 2.5186428708710986 2.229543352746298 -0.4475411286517583 -1.8934333873007132 -0.2109572146112947
Ni 4.954907484684533 3.161065701019364 6.694368155439623 -0.955956981301702 0.7428678079490689 -0.7460120100050055
Ni 3.2534095916880887 2.3170560373620166 11.078971456475525 0.5824096305285904 -0.2051370083850919 0.9400002008621294
Ni 6.746595286316883 2.3741596726268797 2.6436671988111224 0.1549992111884363 -1.8291267548028434 0.7153739734041744
Ni 1.9857772985379352 6.3372092762684495 11.624311635482869 0.41877176982854974 -0.17240069449433534 0.9418351971883392
Ni 2.3092443857837734 0.7319841088346812 9.186955239360096 0.35213108988086456 -1.407544512108692 1.3515029478330916
Ni 4.674122522097568 0.17968370204833353 2.865524574823889 0.12031322977047666 0.11740222677126878 0.46985059078223596
Ni 2.654870678749197 0.17760182756854606 1.0100104952903455 -0.6136904429197431 -1.449371218336491 0.13094936932808415
Ni 3.5163710462953444 4.673752739774339 2.05160594771942 -1.244981886750701 0.3543818335882542 -1.920639001181228
Ni 2.8807891891268422 2.8669315965637807 8.975679184526568 1.4900794946891305 -1.2414689885014363 -0.5219979622097527
Ni 8.659691869223874 1.030342976333172 3.293556858521219 -0.154738758438198 -0.15423507932890212 0.30084709489490774
Ni 3.4547930449193935 5.762632257874891 3.92584303073393 1.1717635535854982 1.2913345058733114 0.4161065642915608
Ni 0.05248967632675469 7.819204382195297 10.962218234650358 0.18701330220118761 -0.08602294112903895 0.25836398603003247
Ni 4.786490125569222 5.656837535198658 0.48719098422354573 1.6024436448158597 -0.6033983169651156 -0.39137049499746146
Ni 4.330456075445267 7.9808454802374085 10.174535663379089 -0.09893270721217155 -0.010658251044794547 -0.03410028411781869
Ni 3.1879026531278143 1.3840952358515846 7.181312309962412 -0.6111977584048763 0.07768176825319524 -0.57262709722053
Ni 7.238239374167932 7.79920840306661 3.357271277269634 1.475232402373969 -0.6637737327293793 -1.5593164746090822
Ni 9.203549221115061 6.695537592036839 13.19032775643833 0.8057924724977478 1.1954102464701606 -0.4717586064382262
Ni 8.854345284172384 1.9625734577552243 0.9685199941680808 -0.4411172274032854 0.05104873904669918 0.25236945900949437
Ni 7.396358295581274 0.31245589411584374 7.816061232447838 -1.3450301956245545 -0.09690025016317505 0.45412340985496624
Ni 4.077598922820283 0.3329862087015985 12.06875670759678 0.6715592902120693 -1.2317090809011948 0.869593883224425
Ni 1.092318493706596 3.682856292771775 1.9227700884826981 1.2135331813231165 -0.421833439473009 0.8719191889234919
Ni 9.243735315092131 4.50546480447216 0.22575395724380756 -0.11321389972153405 -0.890994460387388 -1.367447129867174
Ni 9.251399053741082 8.401287981750432 4.927738652940983 -0.9991348022407567 1.4201228629943348 -1.867568089498177
P 0.23318658194073966 6.661341971696103 3.2942733117724776 0.028926453226363086 0.6636878578837925 -0.20032981680443565
Ni 6.858916666998134 7.811133882990792 9.710891493043052 0.20751887835370714 -0.5292770123696692 -1.5812569834359154
P 2.4169249983084815 3.628294910979122 3.6463467595434245 0.15425513393356013 -0.6818028223169483 -0.4807811216518107
Ni 4.318160813197855 8.799996527215587 6.151774534638075 0.6429079450239638 -0.43385437519328507 -0.6490217712311854
P 7.950319949454734 7.364575504899617 7.743173438715884 -0.22509776777773488 -0.5313032987710786 1.5272111094341052
P 1.0903216691611515 4.6169726640423026 7.759193333414034 -0.5815074304292953 -0.0720299692840566 -1.506981926871424
P 6.286752478263654 1.6146452698276914 6.505416783915326 0.35473356050071814 -1.3927061615442788 -1.014093480433118
Ni 8.23488593629673 5.469339408204658 8.715057527569552 0.4762791200163991 -0.5602256382323835 1.1416600493318982
