# total energy = -340896.60431253904 ev
CRYSTAL
PRIMVEC
9.02851700131890 0.00000000000000 0.00000000000000
0.00000000000000 9.02851700131890 0.00000000000000
0.00000000000000 0.00000000000000 13.21414724792106
PRIMCOORD
 96 1
Ni 6.448834753701324 2.014108596084909 11.326202000689205 -0.05827148204738351 -0.6231346190517785 0.6968887701157933
Ni 4.6624253493668455 0.22557478176554302 5.90574599867805 -0.24552055440846104 0.05878313157647941 0.3903063153990052
Ni 2.730385970292699 1.231056312194876 4.7174108219123845 -0.839059976301626 1.039037037752333 0.704368109211974
Ni 3.3665984582022004 4.3733232153842705 4.878953557376087 -0.09404838253667673 -0.7607917394173414 0.26940970232123285
Ni 5.025489092343059 4.590043730799708 2.624726141936786 0.47622332707779924 -0.8832238153030336 -0.3402289391266398
Ni 7.1898683207631855 6.184344356305255 2.626932711423852 0.3487722007109606 -0.4525239265783303 -0.47418778470500916
Ni 4.997654175286493 4.632875014132938 11.394373621908477 -0.3696606141241956 -0.30702031358515514 -0.0903195116218638
Ni 5.743445770661299 7.993379223547211 12.333609313735526 -0.3397872236035309 -1.0781676852052076 0.2587527368280189
Ni 1.8578791427126071 6.321875751544521 0.29757088266861453 0.7869092624399996 1.7420440049507222 0.16147890537550902
Ni 2.767429974406577 1.7699684753821572 0.5122058107210727 0.6545668694191308 -1.0287850210070217 -0.697275978251883
Ni 0.3939132817665397 -0.005613028846599643 4.816014864449385 0.6608460175596231 -0.6302316351078759 -0.48054843681571435
Ni 8.561453495749317 2.550420546456008 1.5769893475411418 0.7808995659108099 0.43003320167498194 -0.45430467262783697
Ni 6.809749709697497 0.8736940775291471 4.792585863553573 -0.12294578229731729 -0.6947017897668036 -0.07756169773556319
Ni 0.9753506615701455 7.312240836424777 2.4339535835828365 -0.3952749722581902 -0.05783388028933266 0.22949666817637895
Ni 7.467323668173276 3.90307292187431 3.878339300312046 0.989133982274303 0.22710271402290563 0.11476941713411203
Ni 7.606110027237021 3.9128056629015493 12.606904320639723 0.4453461778829685 -0.17254261938883833 -0.19273812050010677
Ni 7.94716224644291 8.822070659471281 6.899330652621676 -0.08966156632289074 -0.35068870100738314 0.08380536465242987
Ni 6.866448794717034 0.8018650041854485 0.38790660959082357 0.03568176967232565 0.14094813241200888 0.39618102901222735
Ni 1.7222617930185857 6.747227231391719 9.19613474722262 0.2139443222640767 -1.4609951757286646 0.08519453169047263
Ni 0.0626389461715034 5.061729558468603 1.2513397778644446 -0.4819347756402796 -0.7285344220455323 1.2763948538443437
Ni 6.31813794562126 1.9128718380715237 6.98329314958922 0.7328299640970928 0.1648557922675419 0.0494471988875342
Ni 3.2701377855352054 4.372844703997959 0.2633807926908307 0.7626287926260802 -0.40178397702130164 0.4229413278252071
Ni 5.852392881956004 5.704722462436969 4.758096929672264 0.367349963713148 -0.32030623206078385 0.49782959249366515
Ni 5.322572435108639 2.88006974904093 9.221082344631217 -0.43348542188964057 -0.2852656955168829 -0.13956693579376608
P 0.11516234220671881 5.677375085283439 12.365851049804515 0.48416957850806935 0.11111433688002799 -0.8301379912216478
P 3.9541020983918926 6.239373165731062 12.557905657533112 -0.0971416767500198 0.24746945060471573 0.27818230630754026
P 2.300231319548942 8.559142195468265 1.0902674281220026 0.12028366208412188 -0.20924794522967188 1.2117634910172033
P 6.3147703088836336 7.814163166598516 5.7816914703509905 -0.040943532291897226 -0.5339805884929255 -0.22138740880568322
P 4.8873437579666374 0.9754770608042654 12.595698125683315 -0.2863620139048552 1.8554756771100172 0.7084661905407477
P 3.9712111375817054 6.165050416068511 8.34469415771197 -1.2417273843691454 -0.5087089584103304 -0.35791144400806746
P 4.687687139157398 1.1208903511425858 3.7999654551959487 0.8305563097059889 -0.49484402750278006 -0.2877257270216012
P 0.30000948503545793 5.510365582944046 3.6766512652401633 -0.5589663119039857 -0.3473177276526212 -0.9616686869744986
Ni 1.4098660858910412 1.0318962618053933 2.5871313983028132 -0.12119074727942354 0.20855143338327953 0.34941497650128206
Ni 1.9396684757049607 6.432980678335989 4.804148684920535 -0.18392540730448323 0.5416046806970867 -0.25965185160352056
Ni 5.8945560550517415 5.543139098648014 9.143027206155436 0.39965124694901494 -0.21640229688626603 0.417276673340262
Ni 8.664279272705924 2.1793755946967903 10.09059983032437 -0.21547747107915147 0.5855741442995012 1.0108474626919945
Ni 2.4526055962805846 4.992814890323042 7.116254309663378 -1.0713840866244708 0.9147607095690503 -0.03126589999281712
Ni 0.5445856830959239 8.969894563774604 9.414564360853698 0.02328236756670829 0.16008896700651784 -0.5626489029618955
Ni 1.3605342705173555 1.1108777260969385 11.570426086597479 0.21803469028336644 0.5049255801084981 -0.3294573024324326
Ni 4.261586292422203 6.753935419316801 1.6290929175487443 -0.5135457176773414 0.7964082030693703 -0.43824993315781946
Ni 5.531736082027047 7.688377871615685 7.957136048866649 0.6194438004637525 0.9920768669527107 0.14761937378459739
Ni 5.290981655095366 2.994632597737251 4.830708775415833 0.16845739357587117 -0.2687337593001307 -0.14850409038239584
Ni 0.8518649297966255 7.225485819234852 6.918636329930159 -0.3717712327092952 0.0639559340266705 -0.04300941368199044
Ni 4.87183276623677 4.64274318291102 7.027256608919496 0.8833575126674207 -0.025204267179769497 -0.08119338095087951
Ni 7.9650116240039965 7.168109595461102 8.90040207055878 1.5114595030268034 -0.027469923285494628 0.09243475819265372
Ni 4.699388096830219 0.5076256441875678 10.440775365678707 -0.5002705978349901 -1.1966322918027197 -0.6079658817311401
Ni 8.146204926114995 6.918109967405217 4.860030689176654 0.41148937723452356 0.6191478664898885 -0.4628538477494287
Ni 7.324943959453836 6.1261375089930015 6.944946330512233 -0.4615963211932437 -1.3657010937103446 -0.4272067879697804
Ni 2.350438901044745 5.06759809433846 2.58554599076628 -0.3339292221608572 0.9543559553631692 0.025503029367110918
Ni 2.273389539331891 5.2692500153434505 11.302680908922822 0.3341505941430439 0.052147885648148894 -0.13586171902803698
Ni 1.1729939211501885 3.1917251177972004 3.809638608012817 -0.5677497145235706 0.33767866190096035 0.38011703357082927
Ni 3.5139799651861034 2.677731660765002 2.7753940290078085 0.3443131364983425 0.20407925654453885 -0.07441338191456862
Ni 0.8895960040331136 3.279373958142687 8.114437187173955 0.675022051949689 0.2844169743633424 0.16355584250919575
Ni 3.90332572034255 2.5016394706024165 6.953680517589924 -1.4217344304558288 0.25162229643082473 -0.7136333365639839
Ni 4.060548310554367 6.829197134718529 6.015475882372626 0.23198832424998111 -0.15214991466509925 0.22236802755139767
Ni 0.9273640951881652 7.6622312871862945 11.41353394009772 0.1705099052295257 -1.2027255491846511 0.8283492747523412
P 0.13588278808567358 5.404280511450486 8.051763029787232 0.5769514356274966 0.3772805925632986 0.25159324296510216
P 8.65566606775232 1.4968197304488684 8.110406857308872 -1.700024465985827 -0.5181014553688238 -0.767589221955149
P 1.73289738571811 3.089973734330612 10.544770335550925 0.5670640013104556 0.26651875392668295 -0.9847003719829815
P 3.9068739274146327 6.089391445930977 3.75326725815032 0.570098160151089 1.7197913642001093 -0.18557476998244812
P 6.851416314373478 3.8697125525833567 10.46540606215033 0.4241644015990308 1.4191689837214978 -1.252293589920766
P 6.555506678781869 7.740508527173456 10.273735166382457 -2.0915453705182236 0.21768604869469604 0.15234968938073115
P 2.510189475938961 8.374193030400559 5.771886501189969 -1.1168080232852249 0.06551839341778394 -0.18858938843905584
P 6.887539409781626 4.072809036264005 1.4688584141581833 -0.22163629159169568 -0.1116043891425691 1.2659415197215038
Ni 5.204605835607801 3.0425740215356174 0.2420148078661917 0.6713109216466889 -0.759211539414415 0.630274058310037
Ni 1.3848300090185615 0.8082779596136931 7.084963276405303 0.970395268214219 0.3063333148204595 -0.37422509356642647
Ni 6.838821533545094 0.5580354644579626 9.243771007155754 0.130257228357066 0.7495868718404575 -1.0051231586137077
Ni 2.799842349441631 1.5792139740616533 8.998781303029382 -0.6543809786605698 -0.0999007275523957 1.1375128599327442
Ni 6.44468163600881 2.072351557464054 2.6172731013820685 -0.5883007992020449 0.28366544090929857 -0.16307093245297724
Ni 4.2184390110036745 6.899005626019653 10.466344125037836 0.020479608010590535 0.6617011664710669 -0.29003174944695853
Ni 8.219940822190562 7.286735276682709 0.32522613224239505 -0.03172741301026794 0.14404708305230673 -0.20857585886331173
Ni 7.447749843918125 3.7736401061354448 8.227392057041934 0.8520453328177003 0.0972226664996003 0.1605445664866977
Ni 3.1982888494547166 8.679275638982588 12.340784275975178 0.23997288511735443 -1.0934163838341622 0.06815865925410843
Ni 0.08835125894652532 4.601320348186555 10.421456145595139 -0.39286147772069113 0.1976748956800918 -0.8312839319006329
Ni 8.767393962197664 2.066212166092512 5.900644886729637 -0.3080916922724629 1.5317480780725103 -0.01275935654819738
Ni 3.717130619967089 2.5521811072169647 11.369940649953083 -0.4108208904125892 0.3401741746293045 0.24948185304905424
Ni 1.1459535135652346 3.439946128058683 12.714414092072149 -1.0249723321291506 0.07512197794581901 -0.6454217125847529
Ni 3.1098093855707267 8.317123776195384 7.973032558260582 0.5743836749003205 -0.22670984945986117 -0.034205699347431416
Ni 5.556997871817598 7.939424807611423 3.5895441358980475 0.22705232040094447 0.08682435398441177 0.24577046563573804
Ni 3.162626208399435 8.357544445563612 3.185996523936548 -0.5746744666678619 -0.33411768402257946 0.4948540548051091
Ni 3.2297712872673157 4.114213813955023 9.222126944016052 0.16538595373939904 0.2438750483852381 0.28029035378947853
Ni 7.206643304834252 5.973149293124205 11.245159326029832 0.2764478401149368 0.18528809197996476 0.8471219273741539
Ni 0.36806824979569186 9.435702827056918 0.5470269940177842 0.07631214159917826 -0.7374751761785879 -0.3342002164340567
Ni 4.863752243769815 0.48538750464750097 1.6677178149407952 -1.1139355868334364 -0.38711609059648167 -0.4921988765704491
Ni 5.932114684618823 5.661782836903066 0.3245607305599205 0.33582129697724744 0.3972608923399674 -0.29852821695374393
Ni 7.964867167736431 8.90931321656424 11.465915588420387 0.26440453579715756 0.15300429224559456 0.08655387393184448
Ni 0.2635866428721118 4.5774940925549386 5.732204364489671 -1.0265137084743419 0.8342095901878601 0.7522513060464979
Ni 7.998552563629406 8.717096095534632 2.5674952772822737 -0.04865812732733556 0.6053477273820027 0.5389397322704138
P 8.48284220064341 1.7347392031295727 3.6798229831649025 -0.05861318165751841 -0.7509868375117776 -0.3926403628488206
P 1.730712484671179 3.3092312629451723 1.5909040975144075 -0.2928213963769538 -0.8894798235150746 0.14727561729193347
P 4.723846348632436 0.9318061254158104 8.192480588577995 1.0684586854475597 -0.31214940728160434 -0.24220614532324736
P 8.415110268188542 1.820194113911406 12.456923503691309 0.42249935519178206 0.1895288695341897 -0.133614317754757
P 6.3716138501707364 7.847469364789133 1.3475521663215608 -0.41597183848590935 -0.7090675715701723 0.6954790342524603
P 1.8631247109285864 3.136696308371392 6.045155325395672 0.7227085593923748 -1.432555432330733 -0.2520681257189917
P 6.801669187230541 4.020127641186139 6.117951352880388 0.3030834404245941 0.04356245797198304 -0.7365038134042542
P 2.583672573546287 8.566419179946887 10.183204423499035 -0.6108740565168705 0.467141419381189 0.2693266556891233
