# total energy = -340859.54898987577 ev
CRYSTAL
PRIMVEC
9.41651591501343 0.00000000000000 0.00000000000000
0.00000000000000 9.41651591501343 0.00000000000000
0.00000000000000 0.00000000000000 13.78202287763985
PRIMCOORD
 96 1
Ni 8.703308895292782 3.09814669709613 12.813794131775634 0.10855454657265177 0.0868904313356568 0.19877069984743187
Ni 5.646114625420192 7.465941052827401 7.812105356836463 -0.07098533006962614 -1.64777219354933 0.9924597042134264
Ni 7.06374282988608 4.887727275746842 6.934011491679895 -0.2862172607968749 1.011862277109754 1.8192159234470344
Ni 1.501755356642274 2.8811148408882357 13.605640245397174 3.5591248843326255 0.3481345671269617 -1.4662440828324297
Ni 1.7174783171536694 2.671813944153905 5.122515855802845 -1.4052477456547154 0.575632459705757 -1.1613271887435226
Ni 0.7297102924494897 4.868771829437119 3.2572980556229636 -2.749131229269336 -0.17310029166452123 2.4963408806723395
Ni 7.318280668533927 3.5743681507581315 4.857859970925591 0.8126046103235748 -0.29105042051946 0.42939531098066697
Ni 1.89099645383984 6.291070625740874 2.0082198341060327 0.49479903319745755 0.5322648913533995 -1.793665585781756
Ni 8.19622010283134 6.4910209222836714 13.567133287327453 0.6852185328667166 -1.2458105532995836 0.5659579127304704
Ni 1.8277363006810137 0.36685050592321994 4.595739953753855 -0.3180002096354265 0.5997391229459735 0.5278834744562523
Ni 7.350560484703689 3.3642386006332115 11.17110084147104 -1.7965400791160737 0.8339331965980219 0.028818724003905203
Ni 5.667235870364409 5.437096224159925 5.019536838990561 1.0689111996039462 -0.5388646560581043 -1.4858837114402281
Ni 1.1546249181119113 1.1018265140092707 11.110129843303715 0.21409756001248936 -0.346321682287939 0.15869414354152026
Ni 1.9749070261527757 8.408788530549016 2.615952347460826 0.6943256373743074 1.9307213251178943 0.515500527410867
Ni 4.159943602430472 1.8189036088585993 7.722563708073843 -0.8026266731752564 -0.9863641328386498 0.1881150199057986
Ni 0.40711552749320234 8.973402818045777 9.401517175777768 1.1528338065605308 -1.8431505798857613 0.5617531306205035
Ni 3.9553886296604226 4.004957168842927 6.124096967537194 -1.0896767142860717 -0.46075634179045166 -0.7309900826748765
Ni 0.8183573722109057 3.2644141166146468 10.554135434372242 -0.3661014360180275 1.5909783244887374 0.5334650823090877
Ni 3.4193063850441696 8.673693953095029 6.363325434793911 0.15607804607491185 1.0915942430237588 1.8612927980124265
Ni 6.75402420863765 8.034660941213897 13.114807184164981 -1.3860200077733549 2.477479267881146 -0.7351480707073081
Ni 5.953884027897578 2.637584909213099 6.498954336846981 0.19399590416660784 -0.5967309322472691 0.8920748379357604
Ni 6.345545169656296 5.700984662999304 9.651619835482805 1.3107465918513361 -0.6499064878289839 -1.3931090534096522
Ni 6.142628670635822 7.419837791460087 1.5144789527941356 1.777207440225733 0.23884134261607254 1.477252003907159
Ni 5.0600400984103375 4.825813684347723 11.418501902792439 -0.25995395622497164 -1.2294547376493794 0.16154421139580566
P 5.8291716926139365 3.1908805447156774 0.3768527290082609 0.6386345144595904 0.30857943054215886 0.35122760422998867
P 4.238383179062359 6.889057045240444 0.9878612482106208 -0.2547618705010709 0.4666796492534221 1.506614002009044
P 6.960387152441711 9.29948734375834 2.672293244808234 0.22522889403896051 -0.08905272909429823 -0.4857094121913635
P 8.85151543750278 4.988173249808349 5.589037356537055 1.2866363290666938 0.5575766306453107 0.22081482413166487
P 0.4793157207545875 5.372046932998691 10.74084045978774 -0.22259865550496505 0.7475472157026093 0.43419813168594895
P 4.803788453886499 4.677578892590318 8.056929117782815 0.5346902129654404 0.9518385882579542 0.22159026884510868
P 6.027728344818018 7.559851964922218 5.437821295876691 -1.1488118298853311 0.8869753119256659 0.41106591654385977
P 1.828470788913581 7.10233171164328 9.048724586295574 -0.2676587810683971 0.19913888182012804 0.4912606810268959
Ni 8.286524489373935 3.3554718244214126 2.9252208592539137 1.1085804931691103 -0.23305096118654056 0.2407359885356241
Ni 2.768907638589847 5.534726659996589 7.88597698165273 -0.5431637976540903 -0.25461917427561953 -0.021675685201220735
Ni 7.3725762986491095 1.0398093409363276 10.818777194475793 0.16220652757015291 -0.6159782105126553 -0.04089982353815537
Ni 0.356659952522136 1.7072708140241415 8.90506057130853 -0.9492250618945071 1.199006448461851 -0.00849055396951441
Ni 0.5969637858834571 7.831622027487994 7.004244574790212 2.770397080626648 -0.860248180343467 0.7575115260041728
Ni 7.834512897839254 5.702293558695803 3.8175374298780462 -0.269400189239536 0.45370020627461866 -0.743825800986964
Ni 4.176846248295326 7.537666653692358 12.380156987525682 0.5887813383828892 -0.9034177737524054 1.1204283936466317
Ni 5.711531160697709 3.1482237281319496 9.312939778233288 0.6167580261014733 0.18072489808931455 -0.11969693634271644
Ni 9.390017726680185 8.222765260877594 3.9161754329055407 -0.23048140068715145 1.6367856126308393 2.3018610948907776
Ni 1.7043046115464653 5.557834789775059 5.705357692937822 -0.19810889789371686 0.001808771073964627 -0.4664058267667452
Ni 4.143040956565617 6.432026450783218 6.257451781024046 -0.8001676701118026 0.8253061170506432 -0.1422272562347486
Ni 0.17201055250624683 1.1117044390857231 0.1473505809235832 1.3312876492274814 -1.6110090178873673 -0.3028445849409107
Ni 8.631376131080177 3.040131543239099 6.776868675973659 1.2526265477801524 -0.9419933200327583 0.13931368213237943
Ni 6.108248971442181 8.204600801895252 10.581919805898057 -3.165169916437439 1.2769540687819234 -0.9074592908116307
Ni 4.0543750437725965 6.8221150344029775 3.454339590434479 -0.03244860744700863 -0.08714317077641122 -0.1266008625514013
Ni 0.3829772308859776 5.411831712262764 7.754578920149564 -1.3479396559618657 -0.277219942394271 0.369595308103899
Ni 3.158723143251344 3.571015871132567 9.221620291287223 -0.20117930928892452 -0.2232080069541898 -0.07345358910446059
Ni 4.877613937775336 0.38948875156316254 5.006747327228084 -0.13753345030350506 0.19192128102576625 -0.6049296660079776
Ni 5.586329166592358 5.71179482314017 13.602635435204709 1.5010624760631954 -0.7277432936028048 0.10174857939441186
Ni 7.314156234612587 1.098474234383706 13.701121832327788 -1.598609358671434 0.720001959094489 -0.32448093226376373
Ni 5.967180148210209 9.501735270156862 7.08444221492236 -1.0870570172750373 0.5800660699970785 -0.40055010461420043
Ni 7.587188110295852 8.80182448361485 8.741923201642647 -0.25234400508819765 -0.2724034948422341 0.5107203324134043
Ni 3.5023129718400994 2.1527096775289234 3.779375116286683 0.9320557492040721 -0.14620963792126432 -0.6212926807470333
Ni 2.5725921171466775 4.8734047552117765 11.673208297073145 -1.127263414290594 2.263665814767979 -0.833871490122151
P 2.8831488083014998 0.658779445518234 1.289406333742788 0.5131690510642131 -0.03943043808148048 0.6099610577842979
P 6.52718975947972 6.419135240650078 11.661162690059037 -0.9711673704935532 -1.4776068161434166 1.72801915142654
P 5.37620903298324 3.129654358970115 4.428287936547427 -1.890410027093357 -1.3407981598210779 0.1395761917651467
P 9.18543450436273 1.3139617820000478 4.995997432788353 1.6489690420709084 0.41790068007750614 -0.002229403551150999
P 2.1908183169802142 7.704320150358763 4.977528820345602 -0.6697895999061562 -0.9500269889705121 -0.6576308530564351
P 1.9661402499409766 3.201050381781997 7.052095541490405 0.37941203708400467 1.2606473612020999 2.6507651931939122
P 2.478474041704214 6.3703953548581636 13.576684459305572 -1.844325316920153 0.4375256533972852 -1.4292824180064159
P 4.0234417893625425 8.959513457237609 8.746554244114144 0.31233118427510725 0.3397687116607697 -0.7372589464027237
Ni 1.7456713654652987 1.099613632795766 7.298642524828549 1.3892308014011687 -0.7133839395573391 -0.845350694406344
Ni 8.40402377355313 3.5886624217457914 9.24928036480445 -0.8757041098872209 0.7358970330581907 -1.3831840809864564
Ni 4.738484916798607 9.130432635562387 2.729943037852141 -0.6932606864449028 0.2001135870285715 1.2168938702652332
Ni 7.491704640062077 4.294910523422651 1.0716720054560538 -0.46778419517151054 1.3072020690331876 -1.0301317648429031
Ni 5.0267244655023395 0.06124313547400644 0.5568418953536673 -0.45742187810057994 0.44988134674916064 -2.400522293609117
Ni 1.060280846290196 7.400656348771113 11.674682923447762 0.6299670685925796 -0.6685528992855776 0.15835398659328212
Ni 8.160503258393796 7.236036819517972 5.950347184562291 -1.67491301563018 -0.6908741884905972 -0.01420868740021424
Ni 6.2393457044396765 1.9101119809181992 2.5373809396077074 -0.20912273250571725 0.4687542723942637 0.11399191553813917
Ni 8.159476858171361 7.571434279358859 11.080787980064223 2.527546873961499 0.19707788552604125 -0.6102852738929361
Ni 8.930736584946247 1.1083992420391693 2.6657054503530517 -0.28781005920529146 -0.13282833151835188 0.6569212285839202
Ni 5.2650941465179 4.382116876266338 2.756239599881218 0.2096058427897229 0.834475185144421 -0.9707477664576313
Ni 2.7745292985237286 0.9043894855340652 12.867654718860758 0.5732516181784063 -0.5592912993435722 -0.00728573502813584
Ni 2.178802842816674 3.986981040176627 1.9093887925045945 0.8112308699044997 -1.330994543467095 -0.2961414618891222
Ni 4.555004106393765 2.4411281400328972 12.610054629274051 0.47890267368217515 0.2672134660008624 -0.7093871596931203
Ni 3.0525330945505273 8.71281957625295 10.77759688756984 -0.6112818334782505 0.2130547205702718 -1.4687714772399736
Ni 4.071522519048307 6.286447116482019 9.776636324226853 -1.1910995349099485 0.8712450456746028 0.06744852056096126
Ni 4.082756422400269 2.6729533425659646 1.4713823849224474 -0.8028030508521206 -1.899864487638038 -0.5772604822274832
Ni 1.775399305852678 8.390699403693091 0.21437639875168837 -0.8362240495147276 0.12079788271637906 -0.6144959695401739
Ni 8.980192125939125 0.3498574615066647 7.122080970235125 -1.385828203477523 1.237831391748849 -1.2804715950168786
Ni 8.559189120940916 8.753527174065635 1.102557235635517 -0.7407080812935889 -2.3106743223070336 0.5275847122689108
Ni 7.182522760214368 0.7895428338563345 5.3129422882633515 0.7042377542816968 0.09208585949366722 -1.6022040180012278
Ni 0.6687769603453739 5.044672344621233 13.425950524254276 0.21621332080391148 0.8459464190088141 -0.16109221146005162
Ni 4.280540920308574 1.3650369637108954 10.172841876511688 -0.14534240482496258 0.027465295299804314 0.5652547160158587
Ni 3.5029344618830414 4.545502841949397 -0.031156425834565193 1.020073609275953 -1.0268669780487023 0.5978755873746735
P 9.27094588436203 9.249965887154847 12.183197376401647 -0.8454915908595826 -0.8704333484065847 0.21171928958829989
P 6.79059795601319 1.4859356100946663 8.38600244561098 1.1444733504109774 0.9763957087720282 0.9096290447694398
P 7.807365082781663 6.6687670745650065 8.34021840412936 0.8274529881903168 0.0027204842549566053 -0.7900010139914458
P 5.008239844982725 0.27882491620474575 11.974138484123433 0.3454500783162631 -0.5678440740095898 0.5477187640146245
P 9.044092602172498 6.905083955135699 2.4655762400100123 0.43199315361483015 -1.6355597106435378 -2.681078242355157
P 2.768719308273804 2.9101177095588495 11.251643126081547 1.4197140575916904 -2.8100679168537086 0.7713345479301942
P -0.07435845868323739 3.0431636613273905 1.0906924257248114 -0.46111089691639295 0.7405450733531633 1.9533642593283906
P 2.8127886022278537 5.012486693609493 3.895764193252805 0.6653529042910412 -0.5332141426405462 -0.7538291920565792
