# total energy = -381171.9629499997 ev
CRYSTAL
PRIMVEC
9.14241859661058 0.00000000000000 0.00000000000000

0.00000000000000 9.14241859661058 0.00000000000000

0.00000000000000 0.00000000000000 13.38085374596995

PRIMCOORD
 96 1
Ni 1.8566423312539089 2.472612771810498 12.495750520201728 0.869371997021606 -0.3250100652943564 -0.15495293133153315
Ni 7.568916779701588 2.7877062224046774 0.9947444923626849 2.2678765104152165 -0.8320575768418638 -0.9715237253917075
Ni 0.08952530382281688 5.340625997552452 7.694097515333989 -1.2417772637704743 -1.8249409988562701 1.7687446541703604
Ni 2.974659536526261 6.752864512182759 1.5868623632805037 -0.3230305729704824 0.04598238026738532 -0.0878355688577455
Ni 3.060525130258468 0.17505171383191276 9.736819145509227 -0.5523351797407132 -0.949020659193185 -0.34793839195575565
Ni 6.134014209826165 1.9146784033378157 4.92360555255861 1.0328563628629182 -0.3621524786726085 -0.18885524050593283
Ni 4.296296684686574 2.5939600914024474 11.021461497562493 -0.6938918922709985 -0.6606470141749397 -1.8080251969375378
Ni 2.023930303369745 7.858502882924297 12.349965516192595 -1.1976339935943567 -1.0680341963156317 -0.523496658242466
Ni 7.067034578517254 0.38545167421474197 1.0921322760204355 -1.0132660994358162 0.49086344558847717 0.6120552213091652
Ni 0.943250734894916 0.5228247390423375 11.410294952348098 -0.4185611964796404 -0.8771521551876571 -1.18766325553489
Ni 2.7085237365321633 4.854221910740843 5.476381768562839 0.7841625529327979 -0.4496468621408515 1.169571945250818
Ni 9.112851831567037 1.1115078033624999 2.5591283914918495 -1.8933853076715972 -1.288863932845632 0.8147314268585905
Ni 1.9466768677823139 6.840549447179097 6.9289538905045145 -0.3284648566121763 0.13261827239007482 0.19297903286631926
Ni 3.0427248416089148 3.0636701221924416 3.3952043838182044 -0.6931655556279352 -0.09014827615132216 -0.037101275727671586
Ni 0.5982250064175118 0.704619900695468 8.672452394208202 -0.09211388451812523 -1.0143968706061497 -0.573426967414006
Ni 5.879068729969229 5.429097180532284 5.335401105429587 -0.7474795956894675 0.3732799560443377 0.4647191830929416
Ni 8.519591158347628 3.52776670807703 5.874716938804777 0.618701008760457 -0.5599438453259066 0.5651246181958977
Ni 7.32403710251705 9.453534911298402 8.24232446393605 -0.4841340972844437 -1.583735269773079 -0.4750624740004786
Ni 8.251681729181465 1.0379570472322177 4.807098229274351 0.6822013433069477 0.8183451123517776 -0.08368580835543006
Ni 8.210513419069013 7.4363060006251755 1.6050329198757722 -0.14679199278729557 0.2822618756935526 -0.33331395717436146
Ni 6.1028751327124615 7.116961325469084 3.795653281197162 0.015888646205798444 0.6107940952085545 -0.6805275551489506
Ni 7.967654216353686 5.3799932512375985 4.400547681846748 0.5863411043725127 0.3825665235525863 -1.8206876228965545
Ni 5.870273723456198 2.8796515243813396 -0.6867684145028031 -0.10131946227679325 0.5644221928122345 1.0832561554717088
Ni 5.569058464012519 2.667913113942889 1.9126058170836535 -0.08412958076106801 -0.7719055899423158 1.0299906112793487
P 6.240075405832057 1.7466498953305496 9.752835748326458 -1.0410748941179684 0.1135165185636174 -1.2356017310873817
Ni 2.394591373076399 1.1060772068253477 2.710519526471659 0.21497019242542978 -1.2375961358095913 0.5249110220914894
P 6.410846639363137 7.267802086860448 11.032098701385685 0.3400538470013563 -1.3783321522107939 1.0598984545823746
Ni 1.063116982704006 8.183643851354049 2.6393595127563017 2.1258158616653193 -0.42120043387470035 -2.2464350527119894
P 5.900507701147043 5.009423605715072 2.693900438281028 -1.5025292904167091 0.5001731530251773 1.817426949867412
P 3.3092994776868223 8.015734194786146 3.4956009373755794 0.5843420716646129 1.4843328220133405 -0.8390874871054517
P 8.055430575534151 4.7048347938771 9.419986806932949 -1.3147719109606455 0.12842223203085623 -0.008402108020766174
Ni 8.615403703312868 7.871402835304635 4.027623863582948 -2.0635422004370785 -0.25437749057845865 1.9327380984376072
Ni 4.727571988469519 0.13671023949267383 2.2847269310108174 0.8022530918859215 0.664230874871456 0.41056635119962187
Ni 7.159793555732647 2.3598958952001503 7.539562302662047 -1.8647141649891497 0.14617749913174827 -0.8761815637442716
Ni 8.067635704115123 6.742515294539567 6.4329658064708575 -1.8903287802334603 2.194300536800279 -0.7144841146000533
Ni 9.110639366311158 7.5911877109549595 8.494687210591396 -0.6450908116078954 -0.27078652806410136 0.08090053230080906
Ni 4.242082143499181 0.5231099824968142 4.669704136884407 -0.2618144064724781 -0.6452756739251919 -0.4260793592335565
Ni 0.7399169497032732 6.314668397661388 0.15994843861410962 -0.29669167796563745 1.5650217525239756 -0.44153297478446546
Ni 7.667069783780483 4.937765330196221 1.744595593913213 1.477012119982211 0.3894866477111873 -0.7549735900736675
Ni 0.7672271819857317 4.18824244146671 10.449670879743502 -0.3945599484690366 -0.6121961177624038 1.8102736266520822
Ni 3.9427319374116947 4.989026870236307 7.5322026558398125 0.3687257610147521 0.756064509145001 -0.05046869817351308
Ni 4.102879680747201 6.7530107908773624 12.899329781645198 -0.22302674418131915 0.979098452415172 0.3447846768181223
Ni 4.8204498171242784 3.683224390766815 4.425502827146092 0.3751473482703797 0.5510863949352768 -0.7507844916929844
Ni 3.5174997721995527 2.0295986027856276 0.8340418042295263 0.36314106783812294 0.7179682164939118 0.05589578272635535
Ni 5.390817874638251 3.80064961285971 8.930582178398286 -0.3190160524944506 -1.1702111214967137 2.484998716186643
Ni 3.517746617496696 0.30807298749505657 12.177740638133892 1.0204631314048878 2.1674409934052736 -1.6154017476384244
Ni 8.358172618852754 2.167237711989033 10.317548305810327 -0.2744922590504627 -2.052535050693298 0.29140189032160785
Ni 7.711008246671985 5.803698632574817 12.781793022047667 -1.1985706464760133 1.399972870409021 0.26133078196784026
Ni 1.2087008535080597 2.2412730162951893 4.395610775903883 -1.0264126641201035 -0.09551288289734518 1.330483151048315
Ni 8.274098939129438 3.1366083362890724 3.5883169452244332 -0.8508649393563539 0.03636619733385995 -1.2793395382949644
Ni 5.8908898769768685 7.295814456877003 1.4797086482742923 -0.32206615217468404 -0.33819956740143686 -0.6419684639288299
Ni 4.118412649630402 7.627501396890258 8.085099551767088 0.15124231524916534 -0.7640531837774326 0.26347842443846237
Ni 6.666212670467058 4.6784680591748335 7.375820674648502 1.7001399085177689 0.5353239898946973 -1.317694741034395
Ni 0.08143792049493029 8.944000505902626 6.420373953591026 0.1253811312116873 -0.8526328298900542 0.7358839204320682
Ni 1.0364668330309454 2.8515111605070063 1.787266917612713 -0.1417937682417558 0.4127623304096762 -0.2539833404638336
Ni 3.199736735428861 2.282349902223512 5.935933658254467 0.26905797540876886 0.321006343451602 -0.3010746375246815
P 0.49006013993485403 5.530980291323566 5.769261885139648 2.1562664648456926 -0.8633391605639648 -3.0517873523485246
Ni 4.045958983709646 7.315964347058624 5.746849246400881 -0.1784420155924088 0.18604168231653767 -0.9511672732225425
P 0.41285333068132757 5.862310677018725 2.2510608894478406 1.0265615309931417 0.4384975303922513 0.7248202064187388
Ni 0.03770881898507914 6.732074652712248 11.146839709432609 0.10443538219795563 -0.3351386690879261 -0.39871073741261653
P 4.899202609331395 -0.4450191013827784 0.13268848963292104 1.2977478655988233 0.5001582406268419 0.7099232347022484
P 5.309404638673036 3.1552954395246595 6.473108337237401 -0.8645750898535949 0.15651667627422722 1.4426876356687282
P 3.13575809137669 4.305759087743732 9.727158351972513 1.5438826565525152 -1.5889111575470636 0.5491359560771253
Ni 5.002676500926489 0.7224467023584186 6.899007898993671 0.6011020647317712 0.08633610149408356 0.8385596396264398
Ni 7.663696231386192 3.995748821787022 11.434848745479123 -1.4438060655438876 0.1159536672502003 0.017169826911067203
Ni 5.548003474408039 5.344538952633094 0.3110982137478236 0.9854313366117353 -2.3422652097394376 1.5698346005315869
Ni 3.783955556838095 2.10948505487592 8.364772530704892 -0.19080105137839395 0.30709513268714855 0.43286450047619
Ni 3.8868626184916013 6.89214011428204 10.61606106637121 -0.10328609908486083 0.7238205615096308 -1.6900123331654635
Ni 7.863951764298274 8.37250793092389 12.603493006953718 0.658552079319124 -2.0476309285234606 0.8925420073801661
Ni 6.6723289483851635 0.9099193058458441 11.640780805983658 -1.6345562090796881 1.07472137852782 1.5733163884326
Ni 3.6461793113584986 3.9335895189989807 12.774339208315782 0.29642505456781204 0.6459963541413003 0.97783141277729
Ni 5.207466673371277 5.028668396473834 11.518278798946183 1.0879471331894748 0.2394735768834328 -2.042842505995882
Ni 0.20543836991024944 4.094596649665283 13.060796775957659 -0.5381797141759377 -0.1705297027238676 0.08483894812326678
Ni 1.8513305861561222 -0.06592415069039632 4.796514051477953 -0.4030494739972865 1.3217300874460334 0.3645022098517077
Ni 0.43756254492536906 9.61645280741296 0.4027473013679138 0.04174288826474101 -0.21410835864576674 0.006873330081065582
Ni 2.7722646777056035 8.980762170340148 0.9254413038269496 -0.43570274125593345 -0.7902969479653098 -0.47362548444363595
Ni 1.9755851948033147 3.6531824038626373 7.473714948286317 -0.094334803428844 0.13063286652892986 0.4932874816489376
Ni 6.43962697252636 6.31912075542838 8.950453224818318 0.06715258658709725 0.9702127198897679 0.984613211585814
Ni 9.107640653071789 2.981114083925637 8.45631099506219 0.6727373696805704 0.8519810552386682 -1.7485221564758981
Ni 1.687041327279656 5.654576645845043 9.092035459083128 2.3802380894387847 2.134516217652795 0.22045486968908484
Ni 2.0424071309818395 4.646103897993827 0.9629956159408538 0.47255821952138616 0.10486758463936778 0.034827906312462596
Ni 4.02444687318453 4.320450954132963 1.9316732449252092 0.4258315048888086 1.1118193118213822 -1.2335998701660045
Ni 1.8022083720246111 6.85801146634738 4.463705336725457 -1.792269476765178 -1.1822292290035123 0.5925433765284828
Ni 1.7408170323832381 2.1279070279775385 9.905618359388685 2.0900039941730326 1.8982367222266274 0.6397640000783433
Ni 1.3068812848421927 4.586102205951187 3.7731601891763624 -1.5578512029174656 0.17175509049053647 -1.4997830951301396
Ni 5.398150094205247 8.569243632747076 9.753638452663095 0.5243003850906841 2.1002927776935505 0.0032956400321362597
Ni 3.7614926347980573 5.961661337909685 3.6354845102993063 1.9172736842534206 -1.4596921406465249 0.2483701080421142
Ni 7.914591619886296 8.749422414824839 10.3677794952953 1.2136805055342583 -0.7986023825072117 -1.6553952573122264
P 1.5213715632228701 7.64071219149663 9.889614555957229 1.7023834531363067 1.7046398532706513 0.9397675160260333
Ni 6.525803408484601 -0.5236566991178945 5.61065921051589 0.909419499861795 0.8297271289364743 -0.17001856741540397
P 1.0066076944950224 1.7804494162023523 6.659824862722094 0.3371107052126323 0.1477021633063908 -0.16591791498346908
Ni 2.3701628310776277 5.624772361819596 11.735596827341913 -1.2167383185239755 -1.6826186118045539 -0.013049891205422687
P 8.879976149758392 2.039892965918343 12.401468416078776 -1.2559257873567145 0.30377918094003814 1.1634064398700545
P 5.913160808230239 7.050468516353417 6.815149980344895 -0.8392039580786581 -0.7638523806205361 1.7582818069658233
P 6.792122056846952 0.24372224701348827 3.3933713289264555 -0.11587499149346496 -0.47541522935420705 -0.5401111268706956
Ni 2.724559538428063 0.09585460008993861 7.039988562126923 -0.9804907047770081 0.4448062462190985 0.29247558300176085
