# total energy = -340866.00139988546 ev
CRYSTAL
PRIMVEC
9.29882356843280 0.00000000000000 0.00000000000000

0.00000000000000 9.29882356843280 0.00000000000000

0.00000000000000 0.00000000000000 13.60976823188919

PRIMCOORD
 96 1
Ni 1.566489125165938 4.795700901099243 5.459436052687709 -0.6665394683999747 -1.3134714469816668 -0.0332181386231815
Ni 3.5989608993741795 1.7710632447167578 12.76888887176809 1.0850852382606473 -0.5284617155572253 0.008960037406765214
Ni 4.209568152115297 4.692707130729022 2.866393995615757 0.6420551101053652 -0.7449974526975621 -1.8833289518768597
Ni 1.55437275799436 6.137697826529005 8.899576764230972 -0.17313962954288892 0.20896975186762073 -1.1602313845761822
Ni 4.02969170808843 9.255416707307113 0.9124861223739226 0.7471998596655196 -0.8227280719108216 -1.810850839311791
Ni 8.885974445045564 8.566466865601647 8.668156940900912 0.3436240808511179 -0.06490338554160435 -0.17358134506599784
Ni 7.593205491838623 2.8814915656386075 9.857283065849241 0.758413726103468 2.1008183111797174 1.221576106232251
Ni 8.277915069975217 2.5119749127881312 5.992462290118623 -0.2032827287851725 1.2259004446392177 0.47207356657548377
Ni 8.707753191622338 7.066901373999676 2.370386374999924 2.5425505464591827 1.076148855002966 -0.13043154915140118
Ni 2.0120143622531597 3.5716781508849933 2.6216498879264103 -0.7672143551142335 -1.9470123489684341 0.7126084948438953
Ni 4.607901859351591 7.420396153759875 5.238835410634805 0.5840283970789362 1.8260949099550552 0.4871363744458771
Ni 8.348307164747931 6.862001795622298 4.795102056858377 -0.5457022478052279 0.2186404421881654 -0.6124136330898485
Ni 7.806241540879954 4.9683521591765185 2.337232349279629 -1.0805451842984486 -0.9416048263450879 0.2499325674332276
Ni 7.132207012254467 5.283721762111339 11.191503385088987 0.588016949413039 0.29472144161314406 0.8355254807858062
Ni 2.9168735894972833 6.388356915920455 11.106373584767358 -1.8036219256635193 -1.800637389113899 0.027496919868688127
Ni 8.078362315177008 0.9631442536688751 1.6343565893269227 1.3514376418127951 -0.4516662065637253 1.3336366090756322
Ni 6.6462504900851105 8.315184755027929 4.072355640720754 0.1925470875352232 1.9814466193869038 0.9869248904381261
Ni 0.9760882161422725 7.431768615042179 6.572865103990424 0.27860936654262985 1.1655859640198765 0.39862589100829415
Ni 1.9607127523639836 5.773360618432611 2.355564980038467 -0.4138902733665324 0.9721832133525773 -0.7104711367859183
Ni 6.695050716421597 6.164478438542931 8.515822682542119 1.5018001255601683 -1.1034146326974545 -1.5481524875724628
Ni 0.3317187946163774 3.736081352414925 7.873645923624864 -0.1518724926339965 0.6432427026555633 0.46367840053325304
Ni 4.356842920544655 2.652563827037624 1.2779010641274047 1.5187120708241588 -0.02835309722139633 0.311952717889766
Ni 3.403620511673995 4.577662084952533 9.328271130573329 -0.41007629893708086 0.5171887137465674 1.2394979808179942
Ni 7.1098340426345 9.339087522203398 12.163362496250725 -0.7299464719017107 0.3897740970446191 -2.905166595031771
P 5.14640603377466 9.006431406166532 6.729608864507901 -0.5639197992545192 -0.3885677354413437 -0.5187624859915905
P 2.0143390681571463 0.1482306874970776 13.24295777782682 0.029675929797877924 -0.7773437302387516 -0.36917853228145453
P 0.6546306733860919 8.87198901432718 2.7387890287812096 -0.4090393730321342 0.17899968786809176 0.24759337777708976
P 6.3920206524251375 6.304825583378408 3.7538467549331904 -0.03364108509321303 -1.7494706364320969 1.2050379993679117
P 1.3909552317677187 7.85160120247854 10.259179152412802 1.1244783953462893 0.21148377653872613 -1.1549734786113528
P 2.646147638742621 6.179654118684154 6.619695839485053 1.4375449151255242 0.4076270660656399 1.2267532795578162
P 4.680181615318341 2.844779810002851 6.728778479558995 0.185368567508913 -0.6486034527468443 -0.5047728565807177
P 8.126790588568857 7.779023884156079 6.7384139205898395 -0.32614135068532224 0.18623682904647926 0.4837646297601669
Ni 1.0426398967616006 4.063911378995114 10.190817920717812 -0.2988940849335949 -0.8206979288546705 0.2965595232631474
Ni 0.2267387955217894 4.921448892857686 0.5851628816808031 0.7194514859076577 -1.3545157665174867 2.6211453134449503
Ni 5.045625383425033 6.064999623499536 10.14431264404974 -0.13000860268136966 -0.7967321620676924 -0.2863054496353069
Ni -0.5160317073904116 1.526969124798166 7.933296947238798 1.2380069980947648 -0.5385072727186855 1.2177179088284253
Ni 3.2234000111733385 2.7923065483380656 5.179864131027196 -0.8199121997285815 0.3050940430967197 -0.20538023474414954
Ni 2.2441037008835645 1.250728971639248 1.5730168993443325 -1.0400870762834022 0.2574985527059437 -0.42696381872103883
Ni 5.831059818969558 4.737750632324665 6.294259330103609 0.16605649744386242 0.46599342181967485 -1.158600790951295
Ni 2.953269185130097 9.330253639768248 6.24474681387814 -0.8300320617714027 -0.14570698725323292 -0.3913329568913067
Ni 9.292602702947281 9.318537122012156 4.9661501977442635 -0.34142938719264426 -0.3787705468452638 -0.13335746454894454
Ni 0.26786005331622736 1.5520015579722937 10.40944535239941 -0.365236516914571 0.04023287937811781 0.08162558339229169
Ni 6.026009656077872 0.11735394368032771 2.22906192380241 -0.802707920035153 0.7358885484177584 -0.9231803010913133
Ni 2.609705548991727 0.3188808387322018 11.004858327352073 -1.5093838514446971 2.1047790955996786 -0.7687752718434502
Ni 4.820305588387037 4.563434884820135 12.789317457369963 0.43000749064336913 0.7098844110445129 1.0347566652094242
Ni 5.811337014080135 8.508209735647744 8.625313540972803 2.059866037137072 -0.0735759736149378 0.3192446235654889
Ni 4.129310005486064 1.1017618173117874 8.194033171782849 -0.8437512111297081 0.5463146845782462 0.4544100878574497
Ni 4.112255962974419 6.657771732545267 1.192634571098623 -0.02567606460986546 -0.21860753206770092 0.0478896245924272
Ni 0.18617918667375463 8.797059093629885 11.732695849419425 0.43000209132673045 0.24679427891456204 0.017831371754466065
Ni 8.404425565270166 8.193416659777112 0.04623096137140047 -0.21874714296935877 -1.243526128140781 1.3989819672506616
Ni 0.13680243327307953 6.2194158884659405 11.070811163730534 1.0194470314355475 -0.3326603827507626 1.2255615732425602
Ni 3.5767088144612202 8.103831793061085 12.344740700291567 1.3091869606737 -0.13146616106350262 1.530547630006506
Ni 3.6740767965437944 8.937815386704465 3.1212505739874445 -0.006491521261614628 -0.3593615461910327 0.6006094413660689
Ni 5.262855201917156 0.9480429641165783 10.71081929590987 -0.2145991822392562 -0.264151539246087 -0.20625312426740608
Ni 1.8353553111974108 0.9789894491104477 3.8916311439801134 0.031993007966828774 0.5927696336066759 0.9352966247388731
Ni 6.589722941323773 6.970258700159144 1.73237362929789 -1.5538084003066595 0.15477321122055926 -1.3521583220289037
P 2.1373346081252684 2.0713966498645933 9.473501087689542 0.7926433367102994 0.3773243013170405 -0.3198102662609718
P 5.512054376000902 4.0009211478206925 10.90401072547241 -1.377434580097189 -1.1229475605240595 -2.5130882753340074
P 5.487570573420116 7.978530144836208 10.833048612812041 0.8150960092868607 0.6792116645510045 2.282610474191282
P 8.017901364026125 5.977851048570887 13.36849468628918 -1.4885460887637396 2.170078688138437 -1.011380452377329
P 5.758119846526074 1.0641108804908206 0.056666101233215464 -0.07004353498164712 -0.21805448777770833 0.5671732731948104
P 1.1157751445010184 2.363481998465084 6.34656149341386 1.1620260145827601 -0.7596401423114014 -0.9470136560654853
P 7.54561411257221 0.48538650428169877 10.044294497236622 0.432970429926435 0.23892567479976273 -0.5631739222274301
P 7.391411720548971 3.851256581722036 7.443236854207726 0.35426793371820925 -0.7766284493392819 0.37074279144478084
Ni 1.2912532449575422 2.3956187328817946 12.556412611908438 -0.2468927521656393 -0.6658735526812015 0.42308556671255526
Ni 4.63304587840911 6.470419034331181 7.56720784077316 -1.5713908892751132 0.2582320884378585 -0.2194889062313897
Ni 2.7697011081277 3.380317659692433 7.54800484012387 -0.9250307240364907 -0.7971921324232464 -0.24869355281980393
Ni 8.666308334766065 5.6231195252697646 6.662104054467937 -0.5181351368202367 -0.8001013356502414 1.8138806272770502
Ni 1.2508870516407191 7.097792066051849 4.156518363386323 1.453520464618174 0.9620985754230654 0.039059942115939175
Ni 4.81851091542916 0.8032760884164406 4.883688229918051 1.1327894863151458 0.8567951887978599 -0.3934865128991998
Ni 8.395433602833547 1.5133370493771887 12.985433366959716 2.107887302211357 0.5343636828639571 0.6077614790298177
Ni 5.395261151384616 3.9181709164623864 8.392422643746704 0.7538091374519211 -0.08707812186643069 2.309747696727706
Ni 1.8709605068228694 9.252199314335996 8.441962126560657 -0.16165631149363774 0.35570800859884544 0.5045669112174989
Ni 6.480898808546352 2.6074552336766685 12.266497608739911 -1.692364378337408 -0.24753398529406404 -0.3798072156398943
Ni 3.789233428203674 8.107635011920006 9.64427677304348 -1.7249528537963905 -0.021013626137189614 -0.9123556996719835
Ni 8.508107448587968 3.6857282225345753 12.17316159657721 1.5256918445761014 1.289010485725825 -0.057288292198507784
Ni 9.237153817725394 2.7268521289054193 3.964131282066562 2.1462062523962135 0.5041650477933897 -1.6077066929870119
Ni 1.5343988848673071 7.074396225834128 0.10100010258696289 0.19748489115647277 0.18549532289476442 -0.3117729977787921
Ni 7.640155252275536 7.3403704777210415 10.176431710701582 -1.1087033919002196 1.8388527238413557 1.1855302683522873
Ni 7.253714740444037 3.093328066433481 0.958593409391231 -0.01695565401773209 -0.06395362003382535 -0.22048829403018158
Ni 2.8105043461544725 4.251933592509548 0.4902051546794821 -0.648289006830219 0.686377071951192 -0.456406292351872
Ni 6.411901537316031 1.6156984997415262 8.542184847493328 -0.6666867926111163 -0.9508129752069172 -1.6697857217059433
Ni 7.701192730490607 4.40773538219473 4.7731224274773645 -2.0353713944298173 0.4376315828475302 -0.0883616165645446
Ni 6.126771708780268 2.876377212649837 3.4369428461017386 -0.30225785919950526 -0.4436803601447714 -0.3881990392480153
Ni 5.913800751504248 7.932194106757947 13.18870937073375 -1.7641968868986777 -1.5755771594423187 1.234290468475126
Ni 3.0011395291049885 3.77882804457743 11.605811541415113 0.8771210448394055 0.01156019403377364 -1.0661768313919187
Ni 3.97746021583766 5.334800200233732 4.932384309430039 -0.8782844690198874 -1.6796369034684104 1.9379098724465333
Ni 7.350199334283097 0.4557585924765705 6.363124558038584 -2.2032412909333345 -1.3654470687180096 -0.09427541094581829
P 0.43292812073469905 2.483613500759495 1.0591257811503116 -0.5693512546827356 0.5888276182397923 0.4108414592378795
P 3.6761504342101503 2.027896752989196 3.2388797628468042 0.7592537055062601 0.00914130017963587 -0.3025165121775306
P 1.3000313344509955 4.71445707916672 12.476469695399786 1.172135849323252 0.442481968961296 -1.9626397710930459
P 3.56368116257528 6.851698699055829 3.441978159089773 -1.169008102327548 -0.3758960535109461 -1.6994580519593958
P 5.662806904462625 4.614857379416319 1.1744981455180814 -0.3402541359376205 0.35241159723576077 0.67554398589143
P 0.11363720388103397 5.032644225657172 3.819227713659271 2.102477958270328 0.6363205216144331 -1.516995088133052
P 8.541611110076223 5.178375389366283 9.260956946417494 0.5065949973911211 0.283974230398969 0.816308027317091
P 7.62697881921174 1.424709961493604 4.229643382419764 -1.848758155880526 -1.5434900490997872 -0.5557956274854878
