# total energy = -340865.1458784666 ev
CRYSTAL
PRIMVEC
9.33806244185326 0.00000000000000 0.00000000000000
0.00000000000000 9.33806244185326 0.00000000000000
0.00000000000000 0.00000000000000 13.66719828946746
PRIMCOORD
 96 1
Ni 5.135252770745272 6.946491413641629 13.028803960197228 -0.30427308985732116 -0.5101328353410505 -0.2842107718898073
Ni 6.083682440344171 2.6037786948645145 12.546160590063316 -1.0012917006827593 -2.339303556007952 -2.8205438766843685
Ni 1.212211262915854 6.559989001173889 -0.2172593652687711 -0.45533054278919 0.05318249756025035 -0.19298906016864825
Ni 6.010238577718929 7.305063680767716 8.011630057666823 0.6183893910573093 -0.5132009327434129 0.0020805366781125457
Ni 6.033154183425522 4.937565984759718 3.968024823155332 0.14823181055761567 0.9681087861728875 0.513916984973831
Ni 7.758837496458882 3.3622161420892023 13.576448650527967 1.387171604879295 1.0685934112532114 1.4996062032326432
Ni 5.605078716106213 3.0609048750416896 1.2449654514148112 -0.4949687260061023 0.09746563574834183 0.4206265636491014
Ni 5.247458931368909 0.39462932837908743 1.5144759461584127 -1.530913755096673 0.6830171543400236 -0.8520183362345067
Ni 8.14323884483372 3.0150176352526947 9.166658760230238 -2.681222738352821 0.514300850675811 -1.8195630223738082
Ni 6.927198976237465 2.785936282687858 4.87842429886643 -1.1393871941373215 -1.0561096769639038 1.1336659753828282
Ni -0.07696991507626462 4.888896002305458 10.219305877868427 0.43471672319358035 -0.46296594784726075 -0.6687894407764159
Ni 7.862816823900976 4.143709265960009 7.093713441534451 0.7348948170459214 -2.3067965845191822 -2.566991967330998
Ni 9.262965935411314 2.1359510949074885 6.871607621758051 -1.3010123952827077 -1.0873593790068046 1.0441589323599307
Ni 0.9848481138758796 0.20318223584632322 10.551214240946186 0.7822625076966077 -0.5429218568466133 0.4644880409187419
Ni 2.3535839826816645 7.49487847995186 11.536824340733089 -0.09857686653464959 0.7906592164007351 0.4997401792528168
Ni 3.691784386670597 8.611150487354461 13.449097086116423 0.9237323169400414 -0.5056313479262712 0.7319046240693459
Ni 3.8342458702320337 2.110318112974076 13.126469823491716 0.8952745758199807 -0.6960248794536013 -0.5083780574334729
Ni 6.9776618667176695 8.06967358739422 12.442057066388175 1.3871469222889465 2.37381830195537 -1.077427978825706
Ni 8.93611506705674 8.192861309676761 0.3612401516209417 0.4049256079740768 0.25089030336080664 0.1501136009613608
Ni 2.3102927243052345 4.895077799769909 11.723777957525833 -2.703360707902441 1.5542205481434137 0.4696392461023783
Ni 8.779086205784512 2.623425978648813 11.214196144302118 0.34291754170239647 -0.28287559801815154 2.6781081039832393
Ni 2.2876479224150614 6.58359562351548 6.997141065374536 -1.1871395218209362 4.116941398902885 -1.0803569795470425
Ni 8.341196434635691 7.051161757718722 3.6778025054870276 -0.9078673248833268 -0.04508840769820622 1.6206257150415249
Ni 0.44914587184919885 9.16919311042941 3.0549882785560754 -0.5761839613338529 0.8611763485846909 0.008330888463198556
P 8.869684089470475 0.09477386529639009 5.748246157202865 0.39389428986057967 0.8067283540484559 0.0328728394686208
P 8.358014285441547 6.489038401272225 1.7237204522674578 1.2700902517825545 0.9528495460209719 -1.698144989574927
P 5.896286199382524 1.816449281846756 6.936403504576906 0.2662025082378448 -0.5779629076111467 -0.413159822958411
P 3.62893922513622 4.156698511085465 13.265860952058723 -0.09004131825981268 0.8550023585634953 0.3853885663824137
P -0.23907961622826296 2.402347345762277 1.306768485159109 2.251739238533722 1.150594889927683 0.4900800304552334
P 6.272273953323115 1.7195855581326254 2.8393331924480183 0.32961465394590334 0.7468059666612106 1.4239448078435863
P 8.475655198518826 6.718530628593006 8.144133431234163 0.291224227093163 -0.7320246945869779 -0.8146478660058486
P 2.606524085279241 4.003180761364043 9.672700513908977 -0.9339599082053205 0.20349021681028825 -0.69038387911774
Ni 2.520464500033947 3.8330132459641972 2.697549652233892 0.17627483273776093 0.6330135687283872 -2.1536575664679365
Ni 3.985550499108931 9.167867105535223 7.125667358065578 0.7357800478643521 -0.595455150858639 0.9814666955370323
Ni 4.211214120749313 6.415174325828402 10.460846073601045 0.9864417801541205 0.03897226749813933 0.013427072039183328
Ni 6.734601434388054 6.141251596489704 10.9188070765778 -0.6565545892731208 -0.2701560935689541 0.18837444421477237
Ni 3.113020602608311 1.527286834287538 1.567887796818789 0.43457171297528385 0.7044452423068126 2.981348638810988
Ni 3.1682085527818873 5.857486549133587 0.7908535978562538 -0.10066820184603952 0.5493462723157184 0.17254879003642543
Ni 1.8220427813651945 2.4529129549314677 11.217585861038668 1.4520215114751445 -0.19763812890488544 1.0057386807105195
Ni 5.7149223468831645 4.721716666948851 13.109549253996873 -1.074097628900892 0.2845198184897939 -0.891712055279703
Ni 2.029609237618708 0.7366396076155204 13.586917552548202 -4.086873118762593 -0.3269237373773015 -2.005208754803508
Ni 0.2737929302680691 4.811520815310828 1.1976728331992308 -0.1123410101982775 -0.5432877248264644 0.5729479708950583
Ni 0.7339371722889158 7.6970568740649075 5.178323650843513 0.5701948336299535 -0.6661373478655496 -0.7264860241569359
Ni 3.367688246793384 5.830648957120244 4.040051167872563 -1.033296792834446 0.31447008499498097 -0.346047602690946
Ni 0.8470024346749847 2.2147083151721154 9.137670612392025 2.332662139432034 0.2798476098251051 -0.6740391192111295
Ni 4.459008950834936 3.0561331250351413 6.065283655534189 -0.14590290531412292 1.7726367901359146 0.18795149774474082
Ni 4.32223434741829 1.7256739749707255 9.983451628474336 -0.8232379216677049 -1.457420828113845 -0.2882615449204132
Ni 7.895602761812892 3.4546909763648253 2.8119848084085337 0.0716900694461346 0.2516878595614375 -0.9259288103707279
Ni 4.457879045256086 2.9992829997125128 3.641242122657994 0.6502708131469382 -0.7114299011547619 -0.2608366159402411
Ni 2.0058998965881307 6.259994400957929 9.491158304413288 -0.5866295821472092 -0.19715270462803464 -0.12192479723197067
Ni 4.859574485631171 7.474147980901887 2.1544694069192007 -0.16398753072997566 -0.8051445545011037 0.2425236765636662
Ni 7.0378270042757665 8.729510431254644 2.3270732228605504 0.8412672683655898 -2.834790873521686 -0.30659248201911715
Ni 1.9707701049547983 2.6627392223426805 6.1315839002435615 1.647108848933718 -0.14246559749779977 -0.6946621947781197
Ni 1.6138226607272226 3.1801706110174797 0.01760131426094329 -0.4237342560401477 0.2615752938784785 0.3689993263911129
Ni 0.8356576223795739 4.711080613607446 3.8558858965826674 -0.6033273545178641 1.069474271196268 0.8238030501425554
Ni 0.4377450311779772 8.43235460207976 8.445713634485568 1.6651551649124678 -0.7891918878265892 -0.8071258465971907
P 6.141344977116056 3.914469166330375 10.47623613462999 1.8039960211734867 -0.15029126418980568 0.022856335772883218
P 8.236358005431166 4.557684258700281 4.936756374729254 -0.34148877967566993 -0.8183204297614293 -1.336333182071189
P 5.638695741592657 4.9757026325615605 7.051167360556303 0.013285661365312602 -0.27877520269653283 -0.6508981623182919
P 2.385118620200475 4.849424011546792 5.764045225375229 -0.8883333686154571 -1.356816132515889 -1.1260948479037896
P 2.567266869961183 1.0949438723439795 8.280026521538055 -0.1102267920687521 0.09077613954330818 -0.6837738300003902
P 8.862923332122646 0.4900811370227874 12.064596699970025 -0.9835667725991706 -0.33979596535427936 1.2513307117868644
P 4.489535077589153 5.238923942120406 2.3250095110181883 0.5192347976423187 -1.3810824612624217 0.4480334949071445
P 2.2940538333827556 1.9284966954055967 3.6328098520984784 -0.014824980827974468 -0.5194104039882346 1.0107199359751948
Ni 1.30646032909215 6.980276524255503 2.874512475813317 0.24517011304757777 -0.8854902427397072 -1.182872004793834
Ni 1.2808833755345481 4.214659865861673 7.8333963237627575 -2.14112858076299 -0.6044288151121591 1.0293632621079951
Ni 3.368584700806356 4.893854513564707 7.7104597953651 2.858817061232954 -0.7395551986360682 0.697957834810256
Ni 4.664847865500952 6.589226475284459 5.815624948146596 1.4081047554875363 0.4463067420240249 0.8488052286138478
Ni 0.24948875464763454 5.612661222965934 6.215035364594866 1.0115653146946255 0.32616860437883183 0.46830792888546446
Ni 4.731269505024581 0.8692363618092125 5.171722574366743 0.2977748837274871 0.09064784149556002 -1.076200534176508
Ni 7.4151407631105455 6.301679512561118 6.030077291787247 -1.893680727424829 0.6780366704062968 -0.13880563214770933
Ni 6.56266902515017 5.415609425239568 1.5893998917113221 -0.8646059430915304 -0.6156632503753977 0.15148605582885524
Ni 6.892498735485348 8.702131231608464 6.287854510829818 -0.6123151598387713 -0.18138310049860373 -0.1691970999553731
Ni 6.823714566115032 1.3897932000479871 10.511182900235674 0.4105056731650155 -0.06795502788373459 0.26756159336890045
Ni 7.531324938416746 6.082477830264241 13.191689654354205 2.2060183394578394 -1.0071823551355814 1.0783240082774137
Ni 3.0603912815967576 8.899145677084288 3.306491253314106 0.20670512420316012 1.0229252197921352 0.2295609457554111
Ni 7.347906712137661 0.3414201136778932 4.25697716430526 0.32118169268720165 1.053942494109256 0.18146948956482295
Ni 7.779399910381422 0.8963998522085218 0.8284663803442657 -1.0075991309580261 0.5755406713228991 -1.3683223333832757
Ni 4.915929693634139 3.561621131599618 8.627419260077373 1.5757597077667702 -0.9950308073747121 0.4853594850511124
Ni 7.040030787057655 5.1829422566228445 8.706798395313498 -0.9541461533452084 0.94227279894639 2.985699973801148
Ni 3.110527339884733 8.655226142992241 9.400914333301197 -0.15577954099788657 0.290124566271081 0.9519368043987153
Ni 4.147453829076693 3.760605908291454 11.13109952633095 1.3903235202447153 -0.048489720070271324 0.28429124741875555
Ni 9.104480336368008 6.761028151645452 11.464825076397501 0.40300242280943493 1.0505846333806166 0.14682695979028906
Ni 6.313473485669277 0.3048065038918395 8.386698946244119 -0.3131241124900478 0.9991386588954987 0.5939523410608674
Ni 0.09264478701558204 2.4741383713011023 4.586629451450371 0.2881389032996199 -0.7959083806148164 -0.9707040577038895
Ni 7.710074133378269 8.103570754759717 9.606879311812786 -0.3271674779569914 0.11776320965511332 1.4147178899286796
Ni 1.6072206504441906 0.06715187602169632 6.388540303580504 1.0209382712690935 1.2618066716175236 1.157119321309762
Ni 5.286351962244196 8.987418383174106 10.886265795906924 -0.5260047693763006 -1.082205345609691 0.5744307260881719
P 3.994804519180338 7.059528661839792 8.29400746891536 -1.0285333100075318 -0.3251404202246336 0.7207720044912942
P 3.263232678156899 8.164753741145043 5.322157829612311 -0.9660763291238911 0.5631530962918236 -0.41939706211737443
P 3.2263099784976226 0.5103550048099029 11.66398354105435 -0.5666842493735337 -0.9266183802385847 -1.5876392328131754
P 5.871493643086272 0.4564006127104259 13.113048226066253 -0.5286859157528894 -0.08365752622065593 -0.7067731191090408
P 8.647942454136846 0.7687158527671677 9.062841915077994 -2.180796074555941 0.3240466729398226 0.1788348801554533
P -0.15367369536742825 4.514785198954526 12.468666809673222 1.3237316912570942 1.1424912869839419 -0.6513013112939815
P 1.9979905575361818 8.57660899366714 1.4879754582061973 -0.37767397134697533 -0.7399290370357193 -1.1623193774534628
P 6.122640837657905 7.407623622689271 4.075094115523389 0.2685015886846666 -0.044838239360613104 0.6325813662869751
