# total energy = -340870.6649261728 ev
CRYSTAL
PRIMVEC
9.28460410814730 0.00000000000000 0.00000000000000

0.00000000000000 9.28460410814730 0.00000000000000

0.00000000000000 0.00000000000000 13.58895661443967

PRIMCOORD
 96 1
Ni 0.599271057481799 5.594865289339499 0.7295099129665367 -0.24272679371340777 -0.3546330303671118 -0.5676990637912933
Ni 4.0374379446016055 8.187915944062036 8.970002713098761 0.8247577007463408 0.3374650032282575 -0.7184814086849046
Ni 2.640624966106243 4.729131665088471 11.457379717851591 -0.07525850352368328 0.184606749642224 1.236041903948594
Ni 3.2331312610442935 1.2408316296963273 3.647058409276048 1.248648794079327 0.9568165010885199 1.1477893021580876
Ni 1.2860476516398571 1.523037171169344 10.819351009034868 -1.4214536659906165 0.3434937259208407 0.04962460500566292
Ni 0.3867947496844082 3.4766849956690726 9.280496586328976 -0.36351876289251583 0.2929229549518246 0.3596942469401031
Ni 4.337627764206988 1.2975234223015006 0.7324967701039562 0.5970533485836944 -0.13246349197976542 0.9315219881877893
Ni 2.425593535261858 6.776646836990476 13.32870095783935 -1.1684370603154264 -0.520023354981885 1.209085687074724
Ni 2.9512692499227984 7.08536920775933 10.948989150634647 -0.5323345682490703 -0.4559072412282664 -1.589477828683811
Ni 8.106564242980062 4.760727172824371 12.923981351488788 -0.0575158348282816 -1.2206065432301303 -0.39807670337304346
Ni 3.4650978097582876 0.6022365600297999 10.732802715040823 -0.08284660028358636 -0.38968745086808376 1.4748734763726534
Ni 0.1970712926826671 3.6822554149404683 2.055465578388709 0.025319452601395107 -0.9383433819849969 0.5502762403291555
Ni 6.216144572368513 9.13104602805049 7.80140623172335 -1.7591233290305124 -0.8656955766112833 -1.8518751042429527
Ni 3.0873444075417664 5.74601864400904 4.6584164064579365 0.3544070303992348 0.1632748209336672 0.3882617741651507
Ni 2.624181932253678 0.9254503408704107 6.160349672518936 0.2879689533806589 -0.46972589227891365 0.7526829942672779
Ni 6.5859967765000365 0.5762573093110748 1.5397921677195072 -0.14659221807166367 -0.4079114300752782 -0.4204874669680758
Ni 3.9607006917549374 8.039789370327522 5.826061215913593 1.0204608174120426 0.31192906374068213 0.8192874216603889
Ni 4.844316463493283 1.625288516069569 5.6642844172383455 1.1479926764181456 -0.6554122481385616 0.4814652922030288
Ni 6.755069417073277 0.01538923128776198 12.661944755491731 -0.7787791771336975 1.082147752898878 -0.37724691111188574
Ni 0.06017908990332311 6.508591032158515 5.41382665100839 -0.2965903765010828 1.0225277272434004 1.0148234166206072
Ni 5.362870886813219 8.892933071425485 3.2602896564831063 -1.0855562643597951 -1.0304246134929738 1.041479842865871
Ni 4.828699759405189 3.583467227367746 4.005453411954118 -0.534691241406705 0.5874657048952592 1.2538498786642922
Ni 4.374079119884667 6.382032593737108 1.7591715786616648 -1.949102141617927 -1.71208345403289 0.9941090668913911
Ni 1.2887680406397453 2.8012486169528685 7.072100580046907 0.8939237182190412 0.08288568105163789 0.9381047836116295
P 5.27943014980983 5.342797572759439 5.624469249496982 0.4474056315151585 -0.08075937873725447 0.21694557098424574
P 1.7711589310089524 5.75499685616908 6.677396276133814 -0.6569857632732685 -0.3575674304050874 -1.5752236327576419
P 0.6705833161556535 0.6754651609888994 7.4551870588557 0.29815335011282845 0.2719401820525704 -0.13283527349688737
P 7.94589416911296 1.2249085336730923 11.011050229788063 1.0238880979260367 -1.5867295765147125 -0.9980659946566102
P 4.26456721458201 1.0462913200900064 7.839101724349783 0.4483119453795118 -0.6336727995789408 0.2556026212348114
P 2.6708742062483415 4.152966273357939 9.327582527537274 -0.12871019558492028 0.12095214890605621 -0.724540727505107
P 8.019725340877837 2.830550827477259 0.6905897810599487 0.8115088061562347 1.9371256859823414 3.2398982584892653
P 0.8643984981821405 7.294207807672229 10.104435565245547 -0.9829525360539393 0.017122518612899543 0.5784753284711909
Ni 7.6285835395560655 8.135355800279218 10.658131286605332 -0.6654395504675764 -0.9197051980585192 -1.5322725831174127
Ni 1.2695396255586258 8.700741766655247 3.830754301299198 -0.09208945903809301 0.4228919626445104 1.3412005374658191
Ni 5.588598181575252 0.6210109579706647 9.910168222999623 1.4738373217986556 0.6780330708618709 0.7833760524757605
Ni 7.250468037779832 6.822503496616574 6.893188116053595 -0.940043138284923 -0.4706280923782089 -3.3570585444530576
Ni 1.7566470948081851 6.991158330005531 2.112784081770307 0.7440363743358734 -0.0290992313588015 1.3711564603979611
Ni 2.239882884150054 6.497616630118012 8.480908338572833 1.1680151422866596 -0.3645001529691787 1.8714471128376093
Ni 4.708324867311171 6.246551650780231 7.550391389247682 0.40001865759076266 0.6714813857862822 0.3509414404481375
Ni 5.43588501341772 7.654970384394569 11.285791878028965 -0.815714102486834 0.05151410871889193 -0.1693433957252503
Ni 8.293890415204428 2.0918862948728743 6.978948147159959 0.14572138543093613 -0.258307164650168 0.7747222334555045
Ni 9.15807351057156 7.384723412996145 8.168538975315393 0.6293165794927743 -0.4116865808469943 0.258727025796406
Ni 4.546717048430456 5.226480052655014 9.985436651478434 0.36148424896099035 2.259434807405767 -0.7433838283535391
Ni 4.552074264993376 5.970780339945174 12.842270336228331 0.7529354765977162 -0.9150507300056434 0.21805011690233414
Ni 6.587816558902692 5.433972384974113 1.0494805815967008 -1.47559029993402 0.5705545309622173 -1.5527933287785838
Ni 1.6533837280615855 8.106350697085873 6.618460394718836 -0.020373935670661685 -0.5779935037387659 -0.148854274632963
Ni 7.401918499780419 7.646456402439289 4.4765282268521185 -0.496227538113868 -0.6095062296350665 -1.3967085978354528
Ni 6.965040738685788 3.8651806848237182 2.5150581234022003 0.46988915732965525 -2.6155827317555085 1.2754427743437193
Ni 6.526612448707261 3.878114138328305 10.741581308212817 0.7484422167130529 0.007280078601181012 -0.3725703315718229
Ni 1.715172768315013 8.982761616046359 9.133002294133345 -0.28096783947247744 0.3500461823273778 -0.08140446852042109
Ni 0.5581133359882726 2.144752830590833 12.994901799869826 -0.9936961477236886 2.559285085605044 -0.7875967754253274
Ni 4.246146560057172 3.156607554091814 10.677984555542057 -1.091564675337404 -2.6795358375687015 1.724235773124708
Ni 8.30889433542224 5.795756268146923 2.630074870472889 0.462386678305023 0.4574409042639735 0.5334442563734814
Ni 1.9318939971047207 0.3820419608480852 12.969816656525465 0.6450440175303601 -0.9419498683893326 0.8936612085862738
Ni 0.893247620026686 4.149131731866629 5.3719995095596005 0.1315515216884573 0.39960573842306024 -1.5509657886515418
Ni 8.72967259301583 8.31091837911499 2.445658493171953 -0.2673972998768943 -0.10788400286818839 -0.7119875734304447
P 5.01965621183077 1.4742001536286937 12.324272989154107 -0.10670232385526139 -0.6404522843946195 -1.7506086066912816
P 0.6750584953295304 8.13650709118702 0.529738657412991 -0.45768078818892144 -0.3621720190566343 0.014873317567406643
P 5.488705126115202 1.837469573456733 2.8829382776239063 -0.2875562913232725 0.3706265775818907 -0.30402497840225706
P 6.5216451855163395 7.029448037294056 8.687162104705635 -1.2734167450526264 0.763629980197085 3.6024811398310734
P 0.8976930884674585 5.738516683900134 3.7229396216251405 0.7999894926627255 -1.1648043486588455 -2.1395486378703796
P 6.565412809221021 9.262924544618436 5.599017364290863 -1.5768501126174714 0.2207304919479747 -0.0038849368767029865
P 7.991704405718582 2.979717276870432 4.924569795910796 0.5754614813455315 -0.7322545512095969 0.2932890800419916
P 0.5658706227097962 3.9792513307371085 11.515689816950553 -0.26745129304328136 -1.2932525488316309 -0.30665161739182667
Ni 8.681671189843744 0.8254031609823818 0.8565335100531131 1.5276201719470657 -0.9894522848456702 0.16247572207113953
Ni 2.7710179460189606 9.186790791037955 1.9223754209863413 -0.08691691369821805 -1.3875894091430039 -1.2818453354359536
Ni 7.426810523359599 5.032654657564024 4.958881978804945 -0.006942749866420301 0.08213260493569725 0.325375161943259
Ni 3.0023252878421967 2.4299665837906885 12.675344296121896 -0.8806054038435801 1.1726814374140773 -0.5448393855843003
Ni 7.531587280573713 7.329340749568392 13.453923341731462 0.7154143397238065 -0.820231273630897 0.3139211544700464
Ni -0.09126208749316901 8.766913140041598 12.097079655405443 0.7699993740585385 0.35747949867697143 0.3437742332757369
Ni 5.198403409871188 2.9208250330947005 8.723227220852953 0.7365938020148992 -0.9096118183782593 -0.5943439200723313
Ni 8.3035742572757 5.843367717947009 9.747140788152755 -0.9646079721084807 -1.1942169974930077 0.4640514676019556
Ni 5.16019726401952 3.460362661669745 13.023316402242717 -0.38227007535809 1.9747936328467601 -0.17273648056719929
Ni 8.624348044160099 5.0378261820450385 7.269725235133647 0.4968237769369701 -1.8240681093330136 0.7223475765085301
Ni 7.5806749824249335 0.9183318349106356 3.97000015121667 0.2338829701695327 0.7364829874686478 -0.5187573437852678
Ni 0.6027759955277298 1.5710107205291426 5.039573544535752 -0.9052432569969184 0.31192392153435955 -0.5240278481555879
Ni 8.119599827129697 0.2215529367608395 8.774429955517057 1.9508864872118596 1.348182625210607 1.4184200213706153
Ni 5.813935522965288 5.939064132356037 3.4850643508649735 -0.5783470304234427 -0.16734307746576987 0.5665245838672178
Ni 2.576988289637874 1.967676861287547 8.87485223341053 0.6010722399351003 0.4851885066908871 -0.35692851126950786
Ni 7.084106501602385 2.3800989751954726 12.625173080972768 0.23503662415800167 -0.5573619435313434 -2.2513869974006258
Ni 6.389432423200966 3.3344448609309048 6.666225968946902 -0.6518990927789805 1.4509154228951595 -1.1148455002422155
Ni 4.007012296981698 4.049656483590863 7.13520803408185 -1.6649685028229582 -0.26756287892048114 -1.2744852955264565
Ni 8.466732605040312 8.690816524877498 6.303672392094602 1.468142328296407 1.871826607664215 -0.10342339599367349
Ni 2.279082482639907 2.209438667321957 1.3588742292416354 -0.21992496532754383 1.1543147619814313 -0.6003803560743982
Ni 0.5286272903027978 6.083643987326191 11.813043190004858 -0.13534672706483145 1.167636418791002 0.5580599980396325
Ni 4.907609609610129 8.107557695618246 0.6372014505918406 0.7184968353038723 1.6749312704626251 -1.2716126019643519
Ni 2.471932994300905 4.374552634693521 2.585462347795546 -0.07159185330537347 0.8222303063387969 0.1983346407512778
Ni 4.6726162799611055 3.783893975970411 1.690085768049835 -0.43211965189036544 -0.09656729230378854 -0.3578196556252096
P 7.276260667956245 3.583717911678316 8.6827593454437 1.7632748893050405 0.30620707365524036 -0.39923524245751885
P 3.0144416961864073 2.8812911888574213 5.199121109767746 -0.8577434116437421 0.6342579826584496 0.42209646332640854
P 6.769506976441282 7.37471460978154 2.0841791450134646 -0.5535464264399951 0.951156731699581 -0.24434273205027596
P 3.323303336016688 7.908839314169095 3.879022172608814 -0.08256686425963844 0.07059323683753004 -2.0690147935158754
P 1.1525350447511589 1.5236221012273403 2.943531460869875 -1.306801748270975 -0.6370602279939351 0.015289322058902701
P 6.530586259259998 5.764123621994642 11.762111565780334 -0.2515780734564506 0.8040798606820152 0.17475042567343455
P 3.4885878581190943 8.336590309438163 12.50185404092017 2.6053438276363194 0.8588363875976048 -0.08821454946371904
P 2.860001591667172 4.520293065175572 0.3533376788274246 0.6444387798461934 0.025994367181232655 0.10554609876363111
