# total energy = -340860.0686639051 ev
CRYSTAL
PRIMVEC
9.30547526696257 0.00000000000000 0.00000000000000

0.00000000000000 9.30547526696257 0.00000000000000

0.00000000000000 0.00000000000000 13.61950366505730

PRIMCOORD
 96 1
Ni 6.132875905104859 0.17993439401128208 5.683691303352796 0.9219065765852122 0.14879668192215018 -0.32565618351878756
Ni 2.903140817961348 6.546374008799721 5.3819780142241775 -1.1620350134438246 0.3221471419242646 -1.2259423536207468
Ni 1.8645194896285022 8.312571845632293 8.705205212444794 0.1261090105166473 1.4108373239273508 0.23472886310959576
Ni 0.12711558524401217 1.3119231400512295 11.815859061781735 -0.4758903692184126 -0.5304419792120477 1.1304137869941178
Ni 8.181504224997175 3.2980744982861667 12.747637713519179 1.9013379868597706 0.6054276886903186 -1.6619590265726734
Ni 2.9196301203231108 9.270979976245954 1.0221664562299648 0.929415740478064 -1.2321597952853682 -1.2851247775181738
Ni 8.902576206210856 4.452595522395399 2.7950214301447076 0.7013848582139339 -0.8995474921637218 -0.58750350011173
Ni 6.67617608478405 2.0561564494694418 4.0795864725979785 0.19834698204645196 -1.4019047973244114 0.34877168649032836
Ni 6.654317523131803 2.7613160677945148 0.5125306948093233 -2.642666732456494 0.8117461189780214 0.19849816291233557
Ni 5.680555358151941 2.418828046674491 11.64802643849363 0.3517258840226459 0.3314943874671194 0.49852918966385107
Ni 2.2412237436967217 0.7334082499162716 3.1377020746049626 0.7823596953961042 -0.08882930022958249 0.7862970827772974
Ni 9.089811676200153 3.361844921020456 4.870402991735708 -0.611085144086412 0.7433766292646875 1.5151143261705713
Ni 8.060849431304954 5.45016109338056 11.371236934605275 1.6630689718074003 0.11597012231043252 -0.5892821892787078
Ni 5.3560362099780585 8.320546638027345 2.013480608859238 -0.56178989739571 0.43046283301323285 0.4128410061664115
Ni 5.841958828504524 7.630889941674448 8.638892533838478 1.4727078361799024 0.6293973121320386 1.171811633214614
Ni 9.301045967177588 6.669746001300992 3.096285264812787 0.5386281145672659 -0.9759385666299514 0.1841310955573861
Ni 2.2813210370809407 0.13502058657376248 11.04765112561135 -0.24888381445373914 -0.28723413209716336 -0.4285828423817006
Ni 4.039013669422176 2.4159805712102136 5.199899638686851 -0.32028334924264845 -1.3757800752129017 -1.5501211812630595
Ni 4.657036816350213 1.5665302517443414 0.9797530300252926 -0.10884765233303835 -0.44283446720470826 0.9677945973665785
Ni 5.9481343025156495 9.115680897738358 13.42733289848479 -1.8342892728403895 -0.2899589872274942 -0.9342949229472362
Ni 9.227207020089221 0.43363329130794476 6.395773264808182 0.5816341858151467 0.24318522140706508 0.7770997325487455
Ni 6.6563554222385894 0.838320040371682 8.030100418480908 -1.3295413559603362 -0.4377038308463623 1.789822557886582
Ni 0.21494624510390783 8.517217860045323 10.624384133869436 -0.9956715262825048 -0.5431159751352904 1.1313396412424968
Ni 6.85217054052221 3.765069779903024 5.393473067953007 0.16217670277348198 -0.5223795139188875 1.1595171321179771
P 6.547983856039329 3.2466524413724525 9.92367439386795 0.5490593372029189 0.43032322211157503 -0.831769870398116
P 5.894590597216787 4.734970172602901 0.6913958897001954 -0.7036757111306398 1.5755856440827511 -0.835703144014251
P 5.2150303416440895 6.625572909703199 10.502775528951435 0.13291266370204205 -0.8852495874838109 0.2751831144699003
P 1.3160361601662967 8.93382399251492 13.059211084353507 -0.299250182721433 0.18971784561654423 0.12255060374142765
P 0.8936289943488885 2.694465532711612 2.68888503913015 1.1772675141228628 -0.6992223033449765 -0.2808698804420324
P 7.598553414751691 1.8535948615400657 6.558172421025725 1.011716238450193 1.9391650850098732 -1.8835346401297626
P 2.274518734582945 4.472295213761004 12.568622700474792 -1.8220166261206237 -0.8444052997739393 2.361375191096011
P 1.5633198627404994 7.862754471554836 6.641401523313447 -0.7711085479623172 1.6742725538327035 -1.6372784931068576
Ni 0.45382338122573085 2.9106317256369794 7.679806964617629 1.2236761832943894 -3.3827528638953677 -0.7147743921469626
Ni 8.695250214890272 9.163846038271362 8.63678112147624 0.5384717914950596 2.3837494450261527 -1.1439586155580879
Ni 3.33037380330743 9.118351569170539 5.255847878822214 -0.7077917901815423 0.38176588202816186 -0.2931962632178693
Ni 2.416641259961729 1.5548891020521487 7.282280778853765 1.4633865587789765 -1.0149853961197681 1.3228603443957347
Ni 1.2826667254770858 5.105393230794039 10.617465512929272 0.6059149127393824 0.3491892336437212 1.829559471464888
Ni 7.5942356741784085 6.79623532805237 1.5340466983106835 -1.8014421444033815 -0.92416940447746 1.0632344609341429
Ni 3.646303997711613 6.596158302047707 8.893658769160474 1.0991298892791714 0.6107907527744448 2.0283921348985063
Ni 8.038618650637769 8.680994226618138 0.4091589605282199 2.501538108602563 0.30296208435538147 -0.9647941199773578
Ni 1.8084260840773134 4.554630059865336 1.2732877368481803 -1.2122165193942218 -0.7039065961945232 -2.175253804581473
Ni 2.4019851362485367 6.054467969608123 2.7806807620466754 -2.3649227992379527 -3.2076142016445788 2.038368529384928
Ni 1.0290366886981868 7.123657784542771 0.9836306216134114 0.44230224885032215 0.9657320584105948 0.25880570155314137
Ni 0.1400092519214719 8.1793918820874 4.699423256676303 0.711546115017652 0.07334971653674464 1.6899390567253672
Ni 4.720937515739731 7.883319572130171 6.704786699367275 -0.3597302423843611 -0.7911436122363213 0.013836905883092299
Ni 7.146781890845807 8.003350898972371 11.304964269543063 -0.038372172020295206 -1.130058717647544 -0.6232006964030234
Ni 1.875490645093806 6.015775803005296 7.64901328551179 -2.0348664297689405 -0.04100446743681971 -0.5522942992004488
Ni 7.394651838368538 0.9836724962525919 10.472757926491742 1.297942240997816 1.3685365062766108 -0.8943155543408211
Ni 5.187411690735674 2.8421062049868544 7.1287478795720505 1.1005573657543175 -0.02493944355415705 -1.434223049841143
Ni 7.135168657579735 8.400899417877133 3.809592757374858 -1.8802935074846456 -0.6389057658431061 1.5683153356735828
Ni 0.7443784748340381 0.6568874648252736 1.3492678738199804 -1.9938452501615727 -0.21950227596782843 0.7674226144702977
Ni 8.91096043952234 1.2076925103931562 4.1836393676764185 -0.6327356324766522 -1.2594032043823535 -2.1556820530971326
Ni 3.2264781707628014 6.543666115466045 12.264049838763912 -0.5012959537757108 -1.234442420671958 -0.983333573542442
Ni 8.776021741131864 6.213358961609874 6.8915643399681965 0.6044519550406107 -0.22488899420103853 0.519461311830828
Ni 5.178441212475664 7.171134319898139 4.332622820048051 -0.7727445409038434 -0.20893555619557563 0.010517097481239952
Ni 8.838694117772086 5.1089572278620725 0.5467878718491619 -0.0001732923530706693 -0.27222326051062795 -0.9797535695006675
P 4.879930867970589 1.6234797610298883 3.145206940493654 -1.2632943119066438 -0.1401400346884167 -0.47714121090637823
P 1.3448086900210208 1.3428266237664745 9.31194081774483 -0.2652990225869689 -0.07052150305933015 -0.14044676729555813
P 0.570923483325293 5.44892346515589 4.979004403176694 0.07629671498021054 0.35519121686342703 -0.451699630904822
P 7.431231662061591 1.229969818437208 13.091298224536256 2.708111078103233 0.4095397097073205 -1.4602251303318594
P 5.666122565847712 0.24782993397862438 11.292652195076446 -2.828207306766897 0.03688941682718162 -0.29549508655437495
P 0.6291590093074513 4.607550298314178 8.80187700445701 -1.600061260626612 0.21369595369869648 -1.7220482785550857
P 4.631456064548584 5.082362179244737 3.190858672128289 0.27971236979882147 0.331023618478288 -2.771916859705284
P 4.646940375570014 0.8455066590026016 7.108386568907393 -2.1762933015895807 -1.3697120146419508 0.38222276705992236
Ni 7.459092255329716 1.2196965736249135 1.9374967496972884 -0.2860635088278299 -0.7725851325078437 0.5998147133789153
Ni 8.712530482658778 3.310180921747032 10.437102136503272 0.2520922940887078 -0.10040286399979483 -1.3678698192268894
Ni 1.8804876853693517 2.7362378116630524 11.05143752354081 0.4179467028240931 -0.3092281198697513 -0.11291693730640552
Ni 1.5959076374983399 1.7504529725006865 5.148118390423722 0.5989585360262071 -0.43110869412734787 0.5519780535116107
Ni 3.703867668371808 1.336685010019994 12.303151446283172 0.4333694651370666 -0.22565801115657913 0.7397616582199195
Ni 4.031718176729386 6.392656861105611 1.2938472541382926 0.9720708561444292 -1.2911002783753183 -0.5056508883102969
Ni 1.998388058351031 3.828300485065653 4.404724434884195 1.1485693748572219 1.4646335438122 -3.2681719086229775
Ni 6.683452966526091 3.7990533759668828 2.4453412071085396 -0.8832122453388079 -0.7493613860932127 0.7123012480161217
Ni 2.8421062049868544 4.200621860232975 8.835012871714348 -0.5331321244497012 -1.1563240791019764 0.5279724346256326
Ni 7.024759192273686 5.471089107495461 3.7808835047526737 -0.3173628331617438 2.3990647352269843 1.3786167733307482
Ni 4.619786998430271 4.753153071482633 5.128968652652688 -0.7221208052097048 -0.9552463283879227 1.94443713204209
Ni 1.5621752892695644 2.289072498067029 0.011364777073601024 1.1538936152836128 1.16756417079217 -0.5383108404371633
Ni 2.2238038937976135 3.906410645350437 6.522530589250316 1.060243239516303 0.1397363714920948 1.0934472370720976
Ni 3.775184831633969 4.332471140799464 11.240135814258812 1.5600219853165391 -0.1296167665595897 -3.2105881966712384
Ni 4.346261855302925 2.18945738419419 9.301658267457162 -0.28218191438523654 0.5847475346331478 0.5249585874999733
Ni 5.992977388340331 4.973748670685766 11.960934214496515 -1.1157096480147237 -0.1436912423747848 0.5027488841721536
Ni 4.247084098772637 0.033674654281460235 9.660695145981338 0.10462075873588433 -1.7104286920382863 -0.5324109300129604
Ni 3.4190549836164594 3.321645267407129 2.315288813836665 0.9077490541379076 -0.7266027522404583 0.8104309997110236
Ni 5.118988530314657 4.278927435500601 8.672859380046663 0.5726795477250202 2.958288414557415 1.3028880150388658
Ni 6.265330041570622 5.624796949714196 6.531764412463396 -0.15307885423727186 0.7794731178769285 1.710819756829118
Ni 6.989351858477689 5.615268142931778 9.248364879445846 0.22968898669284316 0.21773104300001855 0.3430247567042221
Ni 4.217697407543265 3.50272981817457 13.319656451295927 -0.03859097289932063 0.6346577892000296 1.5212271239365287
Ni 0.5868842346858437 6.606664183744338 12.355273274944969 0.4684501108902835 0.5739604713199729 0.37052861855144575
Ni 7.852416088414926 3.875479245209071 7.885870202930036 -2.5277121958947695 0.41670820243130163 -0.07701790941695123
P 3.138764759892611 7.757258297245972 3.1584449097599316 2.331836301096629 5.490800602943989 0.959186029761961
P 7.294403952170303 7.325130631853453 5.838204999738872 -1.1383068165889494 1.5395575468146 -1.4015543559635282
P 8.401606634005514 7.286913044494671 9.235399560608009 -1.4571277223534582 -1.7469365571563331 0.2480392070652567
P 4.305401512938082 7.824992852489354 13.387236535648107 -0.026765183908986166 1.749073658103994 1.5755205951727704
P 3.928362261756418 5.623866402176851 7.014575280024977 1.3504804201058485 -1.0204312497256878 0.6274597287896936
P 7.689300410593628 6.738708879293669 12.98149826786717 0.33823787683854006 -0.44562925634102607 0.9596429147937213
P 1.8990614142147686 7.195514665376593 10.599651110874328 0.9795221702161517 0.28444448516716814 -0.5106568261653205
P 8.576810124336932 8.703988056265946 2.546003186960893 3.066757600505112 0.4455444099367037 -1.7470332306351977
