# total energy = -340886.87185483536 ev
CRYSTAL
PRIMVEC
9.04468125923969 0.00000000000000 0.00000000000000
0.00000000000000 9.04468125923969 0.00000000000000
0.00000000000000 0.00000000000000 13.23780527329299
PRIMCOORD
 96 1
Ni 6.1717556406382705 2.131786081191737 11.464269703983335 1.2442198117736958 0.19321994523253175 0.03526910761493925
Ni 4.968758803560741 0.6496966189590646 6.081791816903436 -1.0104494559226274 0.2857634610889078 -0.6330667905638259
Ni 2.790645866441369 2.049633243942476 4.942559076195341 1.2428684399521241 -1.2459285669346865 0.5432527578234708
Ni 3.4548510581441896 4.481349990775822 5.05083114314937 0.8203911962475291 -0.32650747577548933 -0.4744032431499249
Ni 3.784801019924773 2.973077081603495 2.8951209763242507 0.4065510593926418 -0.5819373188778623 -0.007007027445452448
Ni 5.148187184640873 4.848292697723143 2.407281636725166 0.42654112936132343 0.658914090644233 0.7385573534991732
Ni 5.535534691856204 3.5055284056183296 0.6169865302315568 -0.5734485646805608 -2.446295386079174 -1.551547886407257
Ni 5.811460774203798 8.10476676815534 12.375256302544562 -0.12751540394587071 0.8497753058366009 0.177900541266642
Ni 2.59656510219006 5.556491217663376 11.355812221069424 -1.7093699117564687 -1.0095233445639324 0.6096455834264082
Ni 0.42465591174791617 0.10038600961640666 0.28670281972318573 1.3419726397451532 1.5238259950119564 0.23082515717981536
Ni 7.818547838864041 0.13450706857521286 7.2058403471993255 2.690863603876695 0.2941290594447838 0.5254612381680048
Ni 8.775710247180708 2.7933773600942673 1.4843813843904354 0.058448373944879985 -0.23826438706667996 0.8992464159835352
Ni 0.6851761889995441 0.6191047945146987 4.7581307954750685 -0.7225527505408007 -0.9909610081807126 0.6519749403222385
Ni 2.1306916747943836 6.5772196438362345 0.5622942488748954 -0.4034281974929439 0.8234040149319239 -0.19547814513908918
Ni 7.896992356915659 4.482552933344814 3.7193862692783397 0.8699114144648438 -1.2177266505791737 0.0984349416401466
Ni 7.532111837229467 3.7620898260094484 12.616475230606504 1.1080451894909304 1.1526471444710211 -0.43045203437995544
Ni 7.992088132632793 7.401805118496657 8.99687530859627 0.1380150179256139 1.424354127466863 1.1329884896998292
Ni 7.133413255396959 1.2025265136670957 0.5041468993877466 -2.3534081137301337 -1.0453434395863352 0.12116580757875905
Ni 1.6847798582991933 6.91166481205884 9.05557167021829 1.085856312098717 -0.9239390336342087 0.48810028102104325
Ni 9.255783823699067 5.222299300507927 1.1404727664690633 -0.4487639453152658 0.7758419488822444 1.3558841076199228
Ni 6.595706971738634 2.2981810769942967 7.141226050818725 -0.701514698923579 0.45650450849263313 -0.7581532733532297
Ni 3.4844995223633988 4.422342492128439 0.335881463560619 -0.20256976187854792 0.7622798939270936 -0.42653881536847826
Ni 6.327523136301242 6.166681574614177 4.586581235987784 -1.2474421753657354 -0.8138814201534693 1.3217509133816396
Ni 5.337022033929662 3.37325899111506 9.105280332360556 1.0149928523189358 -1.834380289892299 0.6813608496835233
P 0.35713284596740785 5.670454197883642 12.147327628699738 1.2682989642100868 0.3390968824047257 1.040190434630486
P 4.086594889846174 6.623238980610895 12.7847804630299 0.00899551863039096 -1.157710932147174 -0.98093422007233
P 2.416069448755484 8.723947537990185 1.452836250571846 -0.10429885662009133 -0.15276620809285946 0.29564678164089087
P 6.752297533369863 8.096111008467181 5.937790546714158 -2.91601047972481 -0.7785907152719752 -2.722240061305447
P 4.6987298532054975 1.4454395104746924 13.013927455401367 0.24767256775445728 0.4519899084517312 -1.530393878037461
P 3.945416464587591 6.491901168247523 8.07667579799914 0.3974269856041865 -0.035853262253183416 0.21806965728635994
P 5.175077021164275 1.4288786996188743 4.025722377982806 -1.4028193387188808 -0.4824464251693756 -0.07194152333530836
P 0.535294067243662 6.027167370654048 3.5570640933165087 -0.691511307853964 -0.5019736965690258 -1.1858789099409577
Ni 0.5800498620868325 8.03231887358674 2.3987298908681614 0.4491143866761491 -1.4801486087286637 0.624305242321112
Ni 2.1468454750065575 6.506960562062343 4.870069576094281 0.38657178805723746 2.0741816824287955 -0.7363251217345448
Ni 6.103522567401627 5.630748048425946 9.06703580334759 -0.2872351605384279 0.8538921562184519 0.602901065613723
Ni 8.717571037906431 2.6172321982061955 10.190832891512517 0.9148848938517405 0.3190376497610054 0.07094496374999396
Ni 2.312761102717715 5.543358340895135 6.904176720683891 -0.010996865331135898 0.7197127099888444 1.8103857267499144
Ni 0.834405284789402 0.24063554613938518 8.99467835558869 -1.04542880021129 -0.11777375117807459 0.6776988274509038
Ni 1.340240826114222 1.1693325345077006 11.441209385382574 1.2315532720496207 1.3885276046865571 -0.2497559326460473
Ni 4.4330423497157865 7.05566517778002 1.720848237070811 -0.4435939710785522 0.9376833798034948 -0.15416051733722483
Ni 5.742721198832844 8.373466150408014 7.93422388166 -1.1451433798948085 -1.48577598221777 1.3246719436831764
Ni 7.179550173024227 1.2056288392397587 5.0265796400648775 0.19726840427029255 -0.27798381714348896 -0.7973307148836397
Ni 0.9473670188263056 7.929987353093717 6.870857924927111 0.0811193331798345 -0.49944090284484305 -0.7807951791224617
Ni 4.911460749616663 4.825065956992536 6.777266279655265 1.64401324072753 1.5987132312391499 0.7437052162486999
Ni 0.5702797977031869 7.743440808090303 11.148918761756207 0.7191190422689034 -0.9663915463714647 0.018569535472071245
Ni 4.536866242568838 0.5938701346087824 10.750460768437497 -0.2909113238384345 -0.9723457070723706 -0.44369501543279066
Ni 8.423881202134028 7.3743726011150645 4.846598628977488 0.6249187075353948 1.8222539389424102 -0.7907126953464898
Ni 7.124856987199468 6.243226709662124 7.022655710112411 -0.5462370372627753 0.6112340109594505 -0.7265567294938712
Ni 2.5844180956475347 5.328800418928057 2.6904516040615234 -0.48137093271700965 1.1349422709920904 -0.7911418124641085
Ni 3.465876524246452 4.646270703580295 9.128684348838172 -0.18944993666713822 0.7830739478543095 0.4699112688168423
Ni 1.4607792893995792 3.7833900496934745 4.083068368736025 -1.1821937477798867 0.4359030301921976 -1.145742704041704
Ni 1.7027878181101894 1.537541496790802 2.8063085404768797 -0.8987113694156716 0.011630385150076744 -0.5872651588486789
Ni 1.3295590578888143 3.790055979568263 8.489219072992217 -0.9133725709722721 -0.8141362164767527 -1.6274957026884809
Ni 5.614078701398489 3.5518190828220857 4.422419371916684 -0.1968138332313772 -0.030754250463721225 1.200140047845662
Ni 4.525307140289354 7.279665746679635 6.095227690484167 -0.7169559731793137 -0.3791382145973277 -1.0871539478642178
Ni 8.276751376797275 7.373477177699048 -0.06469931638171726 -1.1069874376503774 -0.7414485590040393 0.8186497880763901
P 0.09368932782632047 6.015364061988378 7.877049739845208 1.0071221913216075 -0.013999142492569438 -0.8560598532937321
P 8.64603665611579 1.824031766511196 8.14420157718394 0.16302542392702243 1.8560840001179777 -0.5884992883660962
P 1.946433434076345 3.4472173474056262 10.428199689949395 0.3716835580914954 0.3267931253367081 2.555303989470109
P 4.1554068226648875 6.188877221714219 3.8407242823614327 1.2965039658893929 1.5051045073430531 0.8934004987257195
P 7.074441935473455 3.925907087735598 10.309946817545121 -1.165311370202251 1.7615005710134373 0.1074631132806859
P 6.230356128642009 7.795158293875977 10.215177554811 0.593985508291648 0.2897730964689332 0.05607498861669697
P 2.5743513657280777 8.790769640995528 5.522110576360734 0.06860217454943024 -0.09446670102101795 1.273682082898871
P 7.157924340825286 4.462292847972322 1.5443620907101754 0.6876495109057125 -0.21511494553341015 0.34102289578284495
Ni 2.5787742147223405 1.7185255629977503 0.6226005637095505 0.9017357580642923 -0.060672635289708406 -1.5889808344427345
Ni 1.6614626707588878 1.3559876156827526 7.01950454326251 -0.26856406649148584 0.3460298620791331 0.06599996103989278
Ni 6.841559489861436 0.9753150830231806 9.220501427703732 -1.0248458338536157 0.4473698931812166 0.7486862144030589
Ni 2.8566720375213652 1.8709827054257522 9.281461672972508 -0.6190941304338176 -0.7068829052140277 0.4252674048552224
Ni 6.485235238372734 2.299999057869239 2.6398429961627548 1.2194742293978997 1.152362780461383 -0.7410860334582979
Ni 4.192499059322294 6.902782935346434 10.352612386616157 0.17405442804767443 1.7576719412959667 -0.6974235595733409
Ni 7.486282438755173 6.030025489840525 11.350848500153162 -1.3874690815150557 0.3057280771362928 -1.1903953097540725
Ni 7.919649282745164 4.108555375241001 7.87810887198678 0.3257420583643745 -0.6022760304352144 0.7727214009753918
Ni 2.782840306764377 8.539182795137835 12.453438524848055 0.8906003102727629 -0.23059478633656413 -0.04637524483042981
Ni 0.10749151098633061 5.246511911464248 9.835874386850264 -0.35845188989256976 -0.6076740615223342 1.8735155653308637
Ni 9.046218565627354 3.0253915163331797 5.6947445930963045 -1.4276515672712125 -0.9556137390296703 1.7904211107025294
Ni 3.9592096030666313 2.924271983090117 11.415250246530972 -1.8292951620599076 0.21994399149093735 0.4820659019015053
Ni 1.1646202557224021 3.6133138687361805 12.968998002683575 0.28420485835253634 -0.2332905880011724 -2.5860692956774236
Ni 3.0970977470622496 8.588584842595223 8.147207124670224 1.5066602818659471 0.21894846034688747 -1.349089710405909
Ni 5.714366123992325 8.182795230882343 3.5252539503455025 -0.08176647984553015 0.626552900704708 1.0764393896601911
Ni 3.3603793654139764 8.915414389441203 3.4685826927926353 -0.680706503928976 -0.733198403180105 1.3519811730210909
Ni 3.9658483988985105 2.904952544538491 7.225471827244413 -1.0461481948758176 -1.4015427859993024 -0.6788851344495211
Ni 5.164521878472445 4.991252925132789 11.342839435154351 0.20549747704830418 -0.6671711884467025 0.502152131128419
Ni 7.721281339714141 0.27157649526918776 2.6775575068708872 0.9388244353864734 0.15119012185499126 0.7947357004629539
Ni 4.644163292914317 0.7656548558012835 1.8100179378164911 0.6873967714649581 -0.09270241003174357 -0.7184855224499627
Ni 6.180076747130543 5.973451010374035 0.16805017242004483 -0.42121971714841006 -0.3883779880280408 0.7730114214119849
Ni 8.08109683805721 9.534088657141737 11.154452297573568 -1.027849653676946 -2.0544435805699197 0.04490431671185815
Ni 0.0973777487258304 5.425732264882073 5.822860690098214 0.09507836646308787 -0.8237585700578652 -0.21936780727249314
Ni 7.2233083395564215 6.425522254609702 2.4685855798707967 1.109821821775379 1.163935315790331 -0.8652001250321036
P 8.758579621423788 2.26640711274717 3.6842133139227387 -0.680950244508666 -0.5283241615380966 -0.698843579849319
P 2.056859944037396 3.5400519528802947 1.7520370104591876 -1.4394986964177854 -0.6948048910035712 -0.5266588580205317
P 4.623514286260121 1.199550813628011 8.356933378063202 2.250661174978195 0.33011396217982497 -0.1940763796955561
P 8.60651140027749 1.921045014593941 12.540252086201084 1.8119265888744729 0.7237933078161212 -0.08020967688137152
P 6.422727448190014 8.18491168622929 1.4053516754800681 0.19335544236913152 -0.2543193836470136 -1.029875425857723
P 2.009501994479196 3.499034324681968 6.469421518165026 -0.009674546975286564 -0.7025187147080612 -1.6273216390044618
P 6.919235210030615 4.382374046922617 5.871734528186962 0.8634088374596356 -0.48495839295795196 0.5323111712103026
P 2.5571393378424294 8.663040656339131 10.214819385444594 -0.727646105903308 0.23064492284820926 1.1803016729634963
