# total energy = -340868.23537300277 ev
CRYSTAL
PRIMVEC
9.28328627341672 0.00000000000000 0.00000000000000

0.00000000000000 9.28328627341672 0.00000000000000

0.00000000000000 0.00000000000000 13.58702783010074

PRIMCOORD
 96 1
Ni 5.553456899775373 8.493269484266833 13.187814442362164 0.4754661371968005 0.34282421065764185 0.8598740848334997
Ni 2.452207964023938 5.086126976901399 11.323619124983315 -1.1692137905804507 0.24595301396018932 0.037738137980722106
Ni 6.574683391612988 5.349493813315746 6.456202663386374 0.24873289069817164 -0.8659398314116055 1.549834503260576
Ni 4.270478863364655 1.1593525108368767 4.755595563065204 1.376184509740172 1.400844217270381 1.2170375949319492
Ni 6.5370303817964 2.6537388294352553 4.40916744952242 -1.9671849672615669 2.138309880367272 -0.349068906015773
Ni 3.389105081804875 4.263980562853903 3.9427380054335073 -0.5560817912673391 -0.8737475003814822 -0.4501459132644571
Ni -0.04915685837790809 5.265145872686181 7.580474563080276 0.5137040976320765 -0.7697911147024742 0.20236767317007084
Ni 2.9232512014754857 1.8696260399485487 3.203019748378972 -1.27457605546805 0.7639320848185359 -1.7935038633929112
Ni 0.8127071683913053 3.17851372882428 3.962697071287961 1.2419970930907642 -0.7368038611431762 0.42953055100695064
Ni 0.8989015546945683 5.204990176529502 4.988545711446009 -0.8984858836684267 0.019603376053224306 -0.9439584141789291
Ni 7.349058013620009 3.6375536769038237 8.00689025760991 1.111449330076473 0.09106667420053348 -1.6454911108246373
Ni 8.865417871231175 -0.16494264854984847 4.467577887827639 0.5804635625458132 1.6983537631516235 2.5845088931688394
Ni 0.22211098312886976 7.156049205164222 3.750902604384232 1.024610835024674 -0.9737335885588327 -1.8905105572269636
Ni 7.97152093625853 4.3816369352442965 3.376946761549257 0.5958253897138642 -1.258264205681904 -1.2490136336179134
Ni 5.165935390459881 8.183430515914162 4.364153721884439 0.9054142353571438 -1.281583597134135 2.2440141019753224
Ni 8.698198032516629 1.5082648318320566 0.31629549407442503 -0.45075320783115275 -1.014055428106331 0.04027453124933064
Ni 1.6925844841763238 7.244834556713986 12.43559531178223 -0.15671902209302044 0.7828464052245356 -0.1995921673074627
Ni 3.6269150306390783 -0.2457703669598746 12.214738500651935 -0.8565671319474538 1.0181311408376015 -0.04151226031117367
Ni 4.848883308540276 5.055009400741339 8.168861326169056 -1.1548788620150174 0.03804589902912802 0.5891999139775465
Ni 7.5907483761877765 7.7616722461934495 0.5725392648003436 -0.8377227455474411 -0.8690472666923356 0.1788636765108597
Ni 6.138740260205946 6.398468048334273 12.567783740771954 1.6940031994924116 -0.8782003939465134 -1.8155999239610021
Ni 4.955947451098142 3.3405349271302236 6.405155727888481 -0.3535313126625008 -0.05300997653812806 -0.7828479478864323
Ni 4.384654003338573 0.6833380734946036 0.9183788179825818 -1.7128385870313596 1.662971784107904 -2.682355566405684
Ni 5.114997997742027 5.8587470577705165 0.9977936201958415 -1.2158453743960609 0.42249447009577556 -1.3148996947877614
P 0.9161805357526588 0.4597928226101465 2.8639421410424934 0.5925575175958697 0.6484813253466831 -0.409108792817489
P 6.665585332471968 0.7991405735821432 0.8577626708182842 0.19356395883551178 -1.4888993583381003 -0.08334925095161776
P 6.270052346955364 4.024657438329339 12.578395465506013 -1.5051608145022852 1.772901099540895 0.44316639662283036
P 6.821201063131598 0.6426262207947404 4.4763143887000245 -0.2251453331862187 -1.5125288248315822 0.7353828124259335
P 8.641012988022009 7.2537557949866045 8.360750570279706 -0.5247014771838449 -0.17414210266547428 0.4699269525461261
P 1.6310177284801677 2.1527198600562514 9.838556939289221 0.4699752892855584 -0.5009938491542597 -1.2062230208149485
P 5.012603348265458 3.2034393529262375 2.709253810698612 -0.5867612226290668 0.30610422952878896 1.4253275471237261
P 6.7054013480299925 0.884550522180894 10.534892542133974 0.03512564005853951 1.0256827279326142 -0.12072974848260498
Ni 1.8933819699585706 9.201064375897975 10.627759754733136 -0.18869068990361051 -0.22253849169099094 2.9663215692745366
Ni 7.442707807266394 8.364742383450597 2.845218680613727 -0.48377722816565716 0.26752714058653926 -0.07793090814952386
Ni 5.442762992217929 1.54486883028048 12.094071558467775 -0.013881643078098674 0.25565712862183065 1.41444689565548
Ni 3.472394727779832 7.104257750093526 9.755812222228522 -0.14534574725907226 -1.226236487822398 -0.007581411891683717
Ni 7.752528209046177 6.218817889071302 10.310625051564179 0.5584238091369543 -0.34839810520099357 -0.10459504770427147
Ni 5.6522589173981395 8.152247956748996 10.789784666353656 0.048283774707052335 0.4055547569176435 -0.494098150475691
Ni 5.805498126728124 5.530211550519768 3.073073233065458 -0.7580409161450816 -0.6043629948712301 1.0843280483796487
Ni 8.657769320053307 2.1827605749888153 5.353791974939287 -0.4192777629306908 -0.2884754607034322 1.5456659737051832
Ni 2.739906294207831 2.0376442412972717 11.834016070327978 -0.4209482086545782 1.5002862600188032 0.9702399735832774
Ni 6.597232494385298 3.9837274283980437 10.178803312388991 -0.8540320242304259 0.682256107804283 0.09272452151893062
Ni 6.65319214506932 1.418514018492123 6.720252749682995 -0.29763707259804223 0.8734821625352375 -1.0850587558980862
Ni 7.794507230345637 9.011044785677134 12.177169968741985 0.11101432096705398 1.1273847703598068 0.5656861471263225
Ni 2.3733278791098487 9.22992611345216 5.560260620410132 -1.2192189188539841 -0.3893238968810779 0.62336961788072
Ni 8.094970079389936 8.767952646856333 9.87189971920989 1.5725553418968594 -2.5566710450209644 -0.2593525751955469
Ni 4.481413697943676 3.757995035227396 11.443538762608737 0.3885029436416793 0.5905039775009507 0.8996691053432505
Ni 7.409390092219123 6.326661827690459 4.647184415644323 0.6096589531628468 1.9402079244520907 -0.23558246935914265
Ni 8.74348190379013 6.783622319606563 12.307333712958288 0.25296209828817084 -0.24825029463479825 -0.27747525293818665
Ni 2.5332232048201315 6.305393818447412 2.382662223629222 0.7131353138816428 -0.9148573830479149 1.36982231496757
Ni 1.5771375339595872 0.18353150132517765 8.56266762040709 -0.6708530081736639 0.6116908959912111 -3.1996455816168057
Ni 6.343213927419989 6.79759366570468 8.4981014348609 0.34929182065985653 1.0479255984912146 0.10608140244181086
Ni 3.9971046441637497 1.3711414077687387 10.24036635477057 1.5533489441717376 -1.1975871995168212 -3.1239898426547037
Ni 3.254757360388293 3.6187921550006377 9.569846643197746 -0.7984977386085473 0.11083537218702848 -1.9786065788349472
Ni 0.5515209759626374 7.334603936626807 6.4574391971407055 -1.0050485966220304 1.0779496556571306 -1.1026404735355915
Ni 2.651724356276922 7.486877684166623 7.35952213409961 1.4372806057205438 -0.17384231203686834 0.05991724518092262
P 0.32031701376193633 0.4595449588620935 6.6386359519252345 -0.2815633069646312 0.24922499984324173 -0.2218031561868632
P 4.679704696386061 7.4869983668903926 2.4406242791992 -0.699967151930801 -0.34116404934639954 -1.1222662181863188
P 3.7786410642787005 8.90177122094561 8.768510572371614 0.18782705635173458 1.3657085499095125 -0.5632191736430687
P 0.7178078443895672 9.31995542538541 12.826358544723943 0.4604881757307296 -0.7829081117004064 -1.726455406483846
P 2.9271873149277123 5.817492132813683 0.13321516047042248 -1.0098416471352996 -0.694544695363649 0.5441950671320821
P 3.7921482460546216 2.9377795447602386 -0.043234121626679556 -0.5066788153541789 -0.6091982114763443 0.3100819832296144
P -0.051744110309831906 4.598141741689675 11.417179799079838 -0.6453651483152046 1.4752180041962657 -0.47483518848102085
P 5.4635111374201175 2.9113871614001408 8.473672466583693 -1.7228913432816715 -1.0262257449202778 0.2737715788343543
Ni 8.083495937345237 1.4434025094483045 8.745426752300133 0.24955075861377665 0.7391736469269334 -0.3805680050653188
Ni 7.764160166960423 5.2007012981924055 0.1285503090323467 0.2756037469470866 -0.6940299605107595 1.0562649715948456
Ni 8.207706309965044 1.7347491712046625 2.8650282855564337 0.5804877309155293 0.08448079345289966 -0.8700916487964498
Ni 0.6396889889638804 5.947393160023623 1.0739304939657488 -0.5948337152245562 -0.254711991099742 -0.5828580309199188
Ni 0.41017736988190817 1.8780923971854147 11.600522849690204 0.15688280136439434 -1.2126667195577632 -0.3769926290092346
Ni 6.445859225630545 3.1396446084835374 0.996763175400565 0.21286625870854953 -0.6028563284187166 0.48471928036395234
Ni 4.611463257736718 9.196255633520018 6.6043964065340806 -0.14853237251717002 -0.7416349639832324 0.8026151032110306
Ni 9.232906048400663 3.5461690051497583 9.544411366670017 -0.6477938123613552 0.6892978451424129 1.1587648273329851
Ni 3.3358654340489258 1.764000806789492 7.4500388185711675 -0.008719639261184983 -0.3753116417623859 1.005606011787397
Ni 3.9808960260326445 6.760794718240934 12.083909144797603 0.0077932707921736745 -0.47757649867158397 0.2723669851773438
Ni 5.383990505741396 0.4213600167322685 2.6934109540533977 1.4742067893229323 0.5773111329597606 1.8807750751067545
Ni 2.9310305955155003 8.706497290597504 3.252910914714595 -0.23893673054335626 -0.5079088311065382 -0.3562183725763607
Ni 7.427176869045696 8.321862883366075 6.7297913265041345 0.4288854612237839 0.048029235494085026 -0.29590903416334197
Ni 2.173013124222687 1.2627219053900582 0.3527314650382133 -0.9403475568992192 0.16859443337436772 1.1203389192566189
Ni 5.981611353855955 9.443887299411902 8.55189250983162 -0.632293145622595 -0.06473883493928206 1.2052717126452728
Ni 2.532053510728196 4.921710690692921 6.408144946123428 1.530447871203848 -0.3602992275139537 0.36466676045403
Ni 1.530126971407516 3.86129944677547 1.993284985353588 0.2110798562320881 0.11205381797516185 -1.1818157956151776
Ni 0.8093187688392701 2.5266599213042715 7.687690023207179 0.5805792621880711 -0.5736473109549282 -1.3050086609262943
Ni 1.0776595901302761 7.028301900409275 9.983476467308153 -1.1563760153858342 -0.8079473140572214 -0.7311291793559022
Ni 1.0627599153877656 3.793447906156772 12.968288854507929 0.3725651893655003 -0.1967238446207322 1.7154778244264197
Ni 2.9114428611188043 7.980664973405803 0.8108876442482946 0.7354131514432366 0.7352917953740239 -0.08625793995798048
Ni 4.628321705918897 5.624390491493457 5.335164132360892 -0.5294888712701591 1.3074195843606322 -0.08474201753408632
Ni 0.4186335155036857 8.368353581877285 1.1157275628509076 1.3769309009878932 0.5091463030580651 1.1889040699205267
Ni 7.674901367802018 2.7845403354302554 11.899451171485321 0.8918645216971672 -1.0780620128652787 -0.5779281977184691
P 5.40125741852711 7.257636208720169 6.544898895386276 0.4746878642698793 -0.6193550974046881 -0.486072451957737
P 2.1646952995689235 5.593050116458742 8.32570987726844 0.023716884000965603 -0.02377267693956551 2.5549810589130515
P 8.718073548793088 3.448053950723842 1.037030358679764 1.6404414642158716 1.1706078427145001 1.5182667557566238
P 2.2175821824400037 6.8930351336347435 4.830093008449113 0.9819726886391733 0.9501072073891444 -0.17718320348464325
P 2.7749971169658934 2.8575626665982234 5.731810183922125 0.050659216917764364 -0.2599750392708942 -1.651284834688279
P 8.266803711467114 4.453294623305006 5.497923351939129 -0.12662014582511097 -1.2527211643764877 1.1070769120403903
P 5.294731706582993 5.965653384458837 10.419280349418536 0.7530645459764127 -0.8067029001271591 -0.5214212637706762
P 7.831603242975588 6.282139185905362 2.3354743503060718 0.30012101536216057 0.7344942391733931 -0.570937625333249
