# total energy = -340896.2036974299 ev
CRYSTAL
PRIMVEC
8.99717866478988 0.00000000000000 0.00000000000000

0.00000000000000 8.99717866478988 0.00000000000000

0.00000000000000 0.00000000000000 13.16828042468306

PRIMCOORD
 96 1
Ni 6.472084616008768 2.0521935151085677 11.513436052080985 -0.7354113516710238 -0.7126637735618631 -0.5801941109345105
Ni 4.499210229629258 0.3604224860845868 5.992450409898415 -0.24382722586643812 -0.22874436339138668 -0.42448604660450767
Ni 2.731516506891557 1.8077401657927195 4.613099218648205 -0.03196344028047399 -1.7662704815982548 1.3093211722587192
Ni 3.3222982616256953 4.0724380481258375 4.829506562057269 0.5377477688448417 0.6491413275281853 -0.5976498445171126
Ni 5.047084438434531 4.252966441722543 2.6081750817742937 0.009855809748157219 1.2802749056250404 0.9148226731552374
Ni 7.395959926074939 6.161969855456001 2.7076748826607115 -0.6731538883926987 -0.8173552376346827 -0.4861017625337757
Ni 4.989052634861207 4.500793733106608 11.638995281784423 0.3168648104794027 0.46198892864597213 -0.6164525790459126
Ni 5.751185660766502 7.863120443429624 12.379408218231367 -1.3764022821779327 0.17163270598005925 0.25485751553867075
Ni 1.7782474135270827 6.543846114505021 0.21539246163494324 1.5376251056785777 0.6407155653583353 0.8475227623569985
Ni 2.565878444289247 1.526479357807341 0.16082727107197584 0.0939167420548189 1.1565853031831628 1.943557557650614
Ni 0.5695978971351632 9.04792293728339 4.512993907625279 0.36819585665321103 -0.11811210835409983 0.8887028361397339
Ni 8.524044204467272 2.266587289891319 1.3439679859924087 0.18815615755637918 1.67948417994063 0.6930861085402515
Ni 6.861077643527011 0.5773192760230123 4.777702605682929 -0.2621617625095678 -0.2740795969930763 -0.2732704708282197
Ni 0.7438984435328836 7.287579909664975 2.3935716727243705 1.3210700852645314 -0.9080164488666814 0.5711607970876486
Ni 7.472022076060813 3.825465488732387 3.8334180951166443 0.793892378626052 -0.2373768422554041 -0.27175789083843516
Ni 7.473002768555308 3.8883827604204892 12.511789108937794 0.7416131096063615 0.913886020273581 0.6651513298031964
Ni 7.901286476105289 8.717123662557743 7.039591568779521 -0.2619545315947682 0.022665559918315804 -0.36275257415045264
Ni 6.9258753255944665 0.608880479705937 0.4458084125112411 -0.7572428457238184 0.4626095929491065 -0.14134819606390497
Ni 1.7388577645280108 6.485382446346965 9.019166154247566 1.9641747196803334 0.33890224989541634 0.6467985383276216
Ni 9.065107548884171 5.057773086906641 1.3501175577354114 0.07588688113630157 -1.1642425626181048 -0.01546261441197337
Ni 6.419460116923439 1.8903432648015088 7.05806637582719 -0.2853801096075601 0.3970474907775807 0.1781540520383448
Ni 3.162931232680844 4.2564663442946395 0.27861293825024214 0.8667641270851137 0.28549812324266316 0.06837154659586289
Ni 5.945875613870869 5.449195352714002 4.888131279716714 -0.035384550146880994 0.9934961158977405 -0.5124702252249754
Ni 5.16049387782085 2.6742764550569076 9.378173384099272 0.5473366980848574 0.5895917500993265 -0.09139269008138454
P 0.19825733451782757 5.687944490639851 12.322573939162789 -1.1418626522610078 -1.1633732726392738 -0.3209634060288085
P 3.9734600836126375 6.282918930717427 12.512895761936171 -0.06744363546495481 -0.27334811814369053 0.6382442209997072
P 2.3409579702536596 8.460650082300196 1.3132966032976083 1.3333818127523487 0.04761245967164058 0.9479451667408191
P 6.360240685742101 7.6543589026060825 5.722473863624922 -0.46069720641774203 -0.2881283617766586 0.3244212826704219
P 4.826257680775047 1.0418463191287186 12.613540903690012 0.061498730735429566 -0.3676482116798572 0.23286481331766348
P 4.027335190557919 6.156130686383274 8.099243304849574 -1.019370155451025 -0.03791965786390889 -0.0010631511571917174
P 4.7919694321831185 1.0393361062299655 3.839159194939922 -0.9861268200168631 -0.6234313243565909 0.04264354570213946
P 0.26395473447013984 5.48480618659667 3.7046324770781074 0.5752462800109319 -0.11370960841102996 -1.1077055467633246
Ni 1.348380202499751 1.0911328648612257 2.501407359813996 0.748328316843008 0.7494115226048578 -0.19438028408922006
Ni 2.1127265344017965 6.3888427173017295 4.610346981638426 -0.7942191658378516 0.5677962514907898 0.1939236561677757
Ni 5.95289341337276 5.743709005143335 9.150651825658562 0.17295193901211503 0.4468039933754176 1.1016490561565995
Ni 8.541291796319996 2.536466666633247 10.264056307041555 0.5860032614171198 -0.5016849616840133 0.18408918657585716
Ni 2.478587815100348 5.1922269276197826 6.6950041174684305 -0.7560444545403431 -0.0354133465022874 2.0489126234493615
Ni 0.5873421332603275 -0.08990880823383408 9.050809232258013 0.3363139203429498 0.15098469071240447 0.18106942591292685
Ni 1.3559108411960104 0.9961856364721883 11.284636894243775 -0.04882499192250301 0.8066782175368107 -0.591250111638356
Ni 3.9126931376693452 6.660818436715376 1.7523166443675977 -0.27200214563875735 1.1139486994595589 -0.9716566514251459
Ni 5.54837125516187 7.808498570639911 7.838366505263533 0.4788677066791818 0.6284334055568725 0.5591766281425788
Ni 5.3531684628631355 2.875390393859158 4.949904110255277 -0.09544243467072595 -0.33149567301870003 -0.027845818567674624
Ni 0.7446398110700063 7.260408429542272 6.641632852538669 -0.4894979326995183 -0.5953857310732843 0.8969951580555132
Ni 5.251131457541418 4.507577605958435 7.352391087500703 -0.6096180726225824 -1.116830391882728 -1.0836865581409076
Ni 8.057837388070537 7.07561537317134 9.079937598780282 0.3561998606335995 0.6480856325701613 0.2119422042323834
Ni 4.63738890238571 0.3495619914964691 10.50325800306349 0.3113798761054315 -0.12805430716847624 -0.9032840763880186
Ni 8.219930562206507 7.07296120541101 4.773303884943861 -0.1505630297939536 0.42904821205389326 0.18825385947650805
Ni 7.366107286655359 5.9772037906216156 7.031098231946464 -0.8799317748153234 0.7794924011506381 -0.8928479686563591
Ni 2.443039961469619 4.952434116947497 2.6273093820315636 -0.6799138328243517 0.804483266768021 0.03530818838299081
Ni 2.349298355046291 5.337990222145585 11.305377190925517 -0.16395667749204018 -0.6300447159080504 -0.36200566868209916
Ni 1.0343696635055508 3.355686792332766 3.914047213086056 -0.6677697412626499 -0.06141748387553294 -0.530954400072092
Ni 3.5558290358193707 2.5755234200149215 2.5418604753529688 0.639395560995331 -1.0772122632704737 -0.29276123256297965
Ni 1.036492997713815 3.3299458636469863 8.332466375526629 0.4221905657021116 0.0729239418532357 -0.4316936200965404
Ni 3.6935488524545455 2.6695799276979497 6.9706164965726725 0.03115894210130763 0.03553007458580977 -0.5219825355907849
Ni 4.188708590386003 6.793175934756798 5.961530705067394 0.11446782673329317 0.8074534051399384 -0.4046183611463031
Ni 0.6803063834311385 7.400962357514747 11.08008063481406 0.8438897935901014 -0.24734809453550305 0.2668519688963856
P 0.26410498735691107 5.572501688833755 7.987035888557426 -0.40638856567284853 -1.4035531315611116 -0.6913210462200288
P 8.520823214439481 1.5729497865602433 8.069193627213211 -0.3480669471138199 0.9722469767109774 0.048415929409542424
P 1.9504534166888545 3.2639695511503684 10.480765955659932 -1.0955815098062809 -0.07793476480426578 -0.5882846012521287
P 4.088902885418734 5.96262836088692 3.8020647262651224 -0.38426036631524146 -0.6476097213750073 0.1288858019308361
P 6.7261649466925935 4.061812379905668 10.317716381412355 0.020767314454338427 -0.28826128781009713 1.334560149331166
P 6.36461331466251 7.861356996375303 10.154521952585318 -0.9223243808489212 -0.3212218018965177 0.1553601940722808
P 2.2838168873863447 8.361888050079362 5.827148841785042 1.6204321109734803 0.38309308548001764 -1.8355887083781035
P 6.886152780977998 3.9951432846377086 1.6017893436414734 0.9850736961620002 0.018906607096515825 -0.38994096163978653
Ni 5.285041824621707 2.898126264809513 0.4675383988663252 -0.27396261179923787 0.18892851694602947 0.033396830292890874
Ni 1.3341286712036045 0.969194099926456 6.932928214093867 0.48092458920821046 1.0032156571783495 -0.1779776743614806
Ni 6.893638433780014 0.8293356538789748 9.256037580947718 -0.7483332019390144 -0.645859828563436 -0.06187436890729345
Ni 2.8866908504929714 1.6862872485157732 9.003495767847 -1.4256044549341964 -0.6685786103171906 1.3664336010009952
Ni 6.265014544808759 1.9253602848801719 2.667709414215331 1.2060489571309294 0.4156638203271874 -0.8756411178597694
Ni 4.043934985533544 6.847096027596323 10.270061024205097 0.33794811351226317 0.47729213466194575 0.19443504858655547
Ni 8.106476136925945 7.311728337694557 0.2088551114835669 -0.673088325262086 -1.5395765729779938 -0.18171143037229995
Ni 7.678867217789607 4.011797062686425 8.434731909191099 -0.5651881244439814 -1.0098411329146673 -1.5682526007564475
Ni 3.0945436762528065 8.554418680260069 12.285676508704773 0.6219948490203805 -1.8738107279737792 -0.10379260640763414
Ni 9.082112216907982 4.9247677919881205 10.2197577972627 0.237260628392514 0.0958926348342671 0.4628312220416093
Ni 8.476206204529387 2.2104628882338933 5.784707349720533 0.5620287528793934 0.8374496943917126 -0.02332453365855338
Ni 3.698965154121389 2.509682065201032 11.424181338749442 0.14505495549153083 0.22126528140552215 -0.18703798479153594
Ni 0.9511007732619668 3.4961597456956053 12.574615509119527 0.14016137484465538 -0.1735414929669979 -0.29711436732535285
Ni 3.0342085948942463 8.31446392036851 7.943304201046031 0.5733189810812319 -0.23090743248097653 -0.3497489628019331
Ni 5.486371695716323 7.598369458631384 3.4632705584146306 0.39031145760532776 1.038816694211411 1.09234860469128
Ni 3.1137796446310655 8.528722737468533 3.5931763252198157 -0.13893264464387683 -0.12919767674430005 -0.058305420609112486
Ni 3.3920623864175647 4.275414402949743 9.054154383353913 -0.276052404448731 0.3299638097552059 0.5066122237823016
Ni 7.104946176217703 6.19202043281025 11.363646520020444 0.540733848056359 -1.1454074321894725 -0.029575399664271643
Ni 0.5221800654495056 -0.045213522867756074 0.35666526419742095 0.6649037325687646 1.2598824580116172 -0.6371054794095737
Ni 4.610397365839978 0.33698303574827304 1.5247680943903417 -0.5198526337319757 -0.6790818238413595 0.3179935247672072
Ni 5.851090334701106 5.686540930739474 0.6232957596571277 0.17577706716573596 0.15786239166884428 -0.8543773233849866
Ni 7.98179323244236 8.904741833087128 11.296383610948478 -0.4716799306814909 0.38436835264801544 0.06773237034996722
Ni 0.10253724846569734 4.7803360799319075 5.763097925562019 0.05823188705869971 -0.3808138025275377 0.7987641048960566
Ni 8.127619507220103 8.80980360187694 2.4414384636345723 -1.4500988405311348 0.5449129191347131 0.5955662225152066
P 8.388717637405819 1.7340172823074762 3.5099659166387474 -0.0902673182276897 -0.3461550748030877 1.0355863601995714
P 1.7962867571184804 3.2217277964562974 1.6226349073157422 -1.751622649778093 -1.0862435202348066 -1.257370490223041
P 4.669121952184643 0.9154719450216002 8.152192602091338 1.3503714053318099 0.6069109581040645 -0.4242682741667468
P 8.538637628559664 1.689589213153201 12.476550758259457 -0.30148344292732593 0.14728718725615922 -1.4670588654242411
P 6.4191991987368295 7.681377430688361 1.487831076345392 -0.9759532219179707 0.386888805077024 -0.13499705703489653
P 1.6869800312871135 3.140078398405457 6.1562242570433 0.2648521648575374 -0.36552216647578983 -0.7723552758852247
P 6.893881357608925 3.9736670187261547 6.113374293059064 1.1038861730172345 -1.232307376606826 -0.08411209725957128
P 2.525652057657257 8.469287373994831 10.06736088277184 -1.0895491875692718 0.4616780822737726 0.8884549817949859
