# total energy = -340886.92175643164 ev
CRYSTAL
PRIMVEC
9.12983174745710 0.00000000000000 0.00000000000000

0.00000000000000 9.12983174745710 0.00000000000000

0.00000000000000 0.00000000000000 13.36243161994181

PRIMCOORD
 96 1
Ni 6.505452613894014 2.0367011672358033 11.764351756059884 -1.1574903314959355 1.3221584332327037 0.7683366416441347
Ni 4.619649308843745 0.3020121013878762 6.48739380633091 0.04411370248976274 1.5621868541783417 -1.0000377736710002
Ni 2.5467483579943377 1.8907151546301226 4.84487039384473 1.1443198555522487 -0.5427830172759038 -0.5873404921713046
Ni 3.8220032823696664 4.861407258424635 5.34208651880489 -0.04308988921093869 -0.3481556501728843 -0.2599968936477651
Ni 3.553951416822275 2.778719127743252 2.6911403019445497 1.255118975184703 0.3096636647452731 0.36579444630057
Ni 5.1902638046445615 4.677066821869206 3.0693107223663727 0.12355359108464527 0.2954043266127816 -0.05884920892772446
Ni 5.457968736578507 3.2156089752241557 0.8001640341211487 0.41406022328549336 -1.2694495328747621 0.5499607659712658
Ni 5.498779085318181 8.220226777346896 12.889976038921953 0.2664495912516443 1.0718054904326058 0.07883387957976745
Ni 2.9441425525338922 5.1843568033840315 11.41934727610039 -0.7921054619289584 -0.512703167171388 1.159272363097023
Ni 1.0138587063069577 7.820833149614057 11.089147731603148 -1.353972749529823 -0.5508395690317932 1.572711922079382
Ni 0.6314392621036035 0.2972463291189478 4.691108503381873 0.02912571372136274 -0.4006197815098713 -0.20935901688623945
Ni 8.90851567692974 2.9951874428702503 1.501589848872117 0.2829982396389449 -0.13279207896377776 0.32860061085909215
Ni 1.5746495029480672 1.4381219962247807 2.5498461099691414 -0.4055323883201403 -0.6106603978441677 -0.4909248949540319
Ni 2.2594690663964423 6.790349019357446 0.3373637236149217 0.3274238169421716 -0.2122741336505054 -0.2562649374091586
Ni 7.513760382385821 4.418765616826059 3.9466875711097082 1.853000218986331 -0.882174805213229 -0.18448976444838552
Ni 7.872599296673107 4.439901177750522 12.969443009048351 -2.0059805999725255 0.012048189413785701 0.27473471407857203
Ni 8.742635760542461 0.3006663641609796 6.873955455282181 -1.5820709946967786 0.2502909792139109 -0.028155379388293447
Ni 6.947272570618637 1.0581657806768996 0.7502110716839553 -0.40529276150550847 0.11078060768969307 -0.6052654520808415
Ni 2.190566224799502 6.426105244565936 9.528830238823211 -1.4064451083969263 -0.47235175993753487 -1.1654013588128962
Ni 9.414773987436156 5.476191881116401 1.282909375467799 0.3374228371364124 -0.19731776945098922 1.2002264369118814
Ni 6.642774415995455 2.1900001752196676 7.2990952090655545 0.4414167609215753 0.018621985976561478 0.3334628240473999
Ni 3.919345550437319 4.89822787060967 0.7972990928606319 -1.3112687829033933 -0.20226174371982586 0.1850554071438684
Ni 6.1725606819597845 5.856102447504618 5.120698137249299 -0.6449632848910957 0.3072023476889742 -0.18679167310868475
Ni 5.510218764729995 3.0953234395093436 9.565403432562867 1.0588435309552988 -0.5881984692962257 0.2612076261264147
P 0.4307052993296159 6.2535879403635 12.620469791147665 -0.9256362188309737 -0.005784725002577135 -0.4790453699076266
P 4.415697993296634 6.377315422716983 12.709476522660658 -1.1032647373831517 1.2143366510610183 0.5655696761531164
P 2.0554903613535327 8.811529472307466 1.1437068279881981 0.8390275804017937 0.5812186955442828 1.0344638165593538
P 6.731105539945421 8.256992610540335 6.16983542712784 -0.48918862898921556 0.9447845096246502 0.5031350638669787
P 4.761873830693107 1.3647820563084934 13.072093361401741 0.5550716048352698 0.11652316660042512 -0.03966595113105427
P 4.273993871867443 6.262918628598836 8.458459698818528 -0.16641928009991983 0.3562633668816832 0.7433511753433908
P 4.678061973549883 1.3216892495856158 4.2859868190943855 -0.24548044519914494 -0.11222428211475512 -0.3928702194714395
P 0.5351861829855352 6.05171822649707 3.8783389103110895 -1.1132334185600892 -1.1285034573452823 -1.1927576393386619
Ni 0.7787600561378616 7.800564922723211 2.605233148372745 0.6368018321262259 -0.5355484472006776 0.08053517854159034
Ni 2.116824572278171 6.850797636584601 4.992779149055462 0.7631939211009308 0.5983604974308921 1.0242835335922422
Ni 6.307490468094828 6.032280814312112 9.672596789286025 -0.7383951168896961 0.41134565256780775 -0.0979996538749409
Ni 8.545714415583614 2.8271528861468256 10.336575685381368 1.3982540879457015 0.017983838171930316 0.08890977575853075
Ni 2.4586363500107593 5.570904757587404 7.2813230782251415 0.04284074931461009 -0.27402971759174743 -0.5360325859259478
Ni 0.49701892059041025 9.52305379415932 9.387322408780577 0.806642993423501 0.606476184559491 -0.5301938677569836
Ni 1.4273487945440613 1.4760473180736862 11.46293583269722 0.05865740463189253 0.5123450125010209 -0.22043892884948485
Ni 4.116184726908768 7.4866630412092325 1.813749758453315 0.29314072738958546 -0.026695249902999187 0.03608260465517012
Ni 5.915473744563701 8.212493809699803 8.270610667851319 -0.5077900461404867 0.20408748407465496 0.9699790066124068
Ni 6.8020625937272445 1.0981727042064864 5.1319488291401045 1.3982456033052693 -1.2453775795272228 0.6236724938331194
Ni 0.9255732315166554 7.619575134487125 7.270405625199882 -0.667210012104438 -0.8726568384204648 -0.3635637571978384
Ni 5.600567581537113 4.780197403382263 7.509205509234541 -1.946950385382247 -0.600434092130469 -1.0962602810408606
Ni 8.135018055917952 7.758613344991936 9.25094554428418 0.1557898254105317 -0.04842775648408434 0.0032493601752331134
Ni 4.660477917247285 0.4679696213465857 10.732090960509149 0.2645688292891637 0.23488004397547937 -0.3266056919162504
Ni 8.194425872304766 7.5011612143185395 4.815739839096704 1.0178328928708922 -0.17981447045990323 -0.0071353254932006146
Ni 7.303947714737844 6.475552414314051 7.14978319868675 1.6685515921885263 -0.5580119184105164 0.7308538142073284
Ni 2.727199486146388 5.548518409688146 2.8279846138359046 -0.6378189605368306 1.103115613399797 0.43229037314027485
Ni 3.7023020558985547 4.21595553027055 9.147533763947594 -0.7335449878862463 2.8825360021164483 -0.7663412084806609
Ni 1.352292446224405 3.7134404508565866 3.7207689669490556 -1.319070024115367 0.4820864707267956 0.7833338863839154
Ni 0.28937550100966963 0.7733451528185102 0.4748635574390528 0.46437902614470344 0.12951777908788017 0.11543996083857538
Ni 1.0203500168111879 3.775760683629968 8.498653783902736 0.041284717681399866 0.3469788562559637 -0.44571178875250334
Ni 5.587749297503444 3.0798392445512928 5.300422530779497 -0.36935542417895095 1.7650373805221022 -0.2323307951910644
Ni 4.647276180272437 7.113335083644574 6.49125572523849 -0.574420955896159 -0.9358396417265367 -0.9373946449184823
Ni 8.336997327767575 7.725983325664061 0.6124565155488987 -0.16463339184409065 -0.006154963857802303 -0.5554017344811789
P 0.1575699433620341 6.061897989102157 8.584053318819077 0.14775641358309394 -1.1963463851311846 -0.38936786274513585
P 8.726220322727261 2.0177385063113507 8.188565433187094 -0.2785263199105203 0.3229706662668244 0.0998359357527313
P 2.1459213466480462 3.421797099594806 10.388154670885797 -1.5120732253514024 0.345151830349554 2.1413921188370217
P 4.150366817665221 6.679713715995617 4.064330933463164 0.8782998956388551 -0.19356730126962146 -0.11768016302300378
P 6.974735105072539 4.2554329235480335 10.814470347022114 0.060835643230133934 0.4517888481845187 -0.37500233805208316
P 6.494496815574639 8.173865490792071 10.608301395298524 -0.3528265732859924 0.5866159553004543 0.37106109401614806
P 2.3118103928672595 8.882203501299372 5.957560443807583 0.5486883270167454 0.28080457442173573 0.3043317110093985
P 7.126975052552196 4.281334256741424 1.8032869710583113 -0.3765578554646612 0.5032618192528301 -0.0422185423495789
Ni 2.6785192222806287 2.0340900353030187 0.26745842647175866 -0.6425109666958612 1.5104727136335019 1.6618111881408995
Ni 1.6794417138728956 1.6971535878225528 6.993041331081022 -0.8135816295248632 -1.1065002136013136 1.8761185501713495
Ni 7.021981985324846 1.2285467042070568 9.631240476596767 -0.12205000995592528 -2.4529126342853753 -1.052135522807504
Ni 3.069659481946206 2.0784518886645573 9.04799668428329 -0.66845776846861 -3.24754934727662 0.5835308886172272
Ni 6.393493484901928 2.214486384463472 3.1711056094676584 1.1762706974272323 1.3147246026624777 -1.8358848994622834
Ni 3.96209142354675 7.108304546249594 10.676342380761007 2.0304659867084 1.9388308415989064 0.3339665031566958
Ni 7.173391118098618 6.674874905071227 12.010434507027348 0.7568867479359803 -0.5298814787228875 -0.3656579207227057
Ni 7.549439765579256 4.2918974722876895 8.487442350289243 2.351580316492776 -0.4690512348093922 0.5291836813249144
Ni 3.0793005844672567 9.160508168107313 12.627056964887188 -0.0008767461779984902 -1.8783171004845651 -1.0977299236078515
Ni 9.162790626090516 5.186237548762191 10.694728949290496 -0.20283998482079907 1.2113379734440104 -1.0464564701448558
Ni 9.021752982392421 2.7429849655582217 5.675224956201306 -0.41979275489389634 -0.4048065658977093 -0.09845371069322398
Ni 3.9411567189248093 3.004810285727435 11.798706400639865 -0.01988825428349478 -0.9686165790472416 -0.8406494322759328
Ni 0.8554424275247519 3.9384451588407643 12.480712149886548 2.9477540906849944 -1.0581742728024164 0.4540424201053857
Ni 3.0137575210215917 8.307553619784255 8.062062481926036 0.8535401721956719 0.49435063280612923 0.6433638016144597
Ni 5.942872370194073 8.148849751296163 4.0940220598918655 -1.5804679118757168 0.0352739927109457 -0.9100813018155102
Ni 3.0313415773241896 8.808991379030145 3.6341268619066596 0.4385903472163737 0.026188742580225865 0.30403217749110867
Ni 3.8799138063194993 2.701526398751318 6.915272509694128 0.7904838671651354 0.7802863578068432 0.20973748327158073
Ni 5.492817305066054 4.6611261353145155 12.29109923538992 0.5152537015073836 -0.2032801576820112 -0.807170840902513
Ni 8.160727662640754 9.342648315166933 2.657186456986418 -1.3175744134064469 -2.0957342117885904 -0.632505261633401
Ni 4.903870106744148 0.8132781247094413 2.033548636269403 -1.0057937023181711 -0.6187058938564636 -0.292721894684612
Ni 6.133567169774739 6.102507481539309 0.9730693561807288 -0.914697717541599 -0.44470828718865346 -1.8293491552262944
Ni 8.055725465581471 9.31206337819201 11.986248669254133 -0.005256363302932883 -1.214061800133077 -1.2838628800866145
Ni 0.29813466176601056 5.257395458846537 5.949409329857968 0.0688590277552427 -0.1821711436175379 0.14233190013341296
Ni 7.5237666781841845 6.625464254650842 2.6097359814820087 1.3801388664022296 -0.5174242267961411 2.211710247636294
P 8.717428294575964 1.839012916394602 3.6072422458141045 0.17416524259392585 3.4509603741095405 1.1667128785354681
P 2.0223947205970854 3.906892459680962 1.6680860289148625 -0.7713111508914264 -1.2105895253137602 -2.1312154354143362
P 4.981428029013395 1.0915809655509954 8.577572051129973 0.4947368125009544 1.1367602980374356 -0.8384295418064787
P 8.529691560541528 2.2793721000099745 12.466347272323462 0.715367031425639 -0.7500113609723857 1.2993344933596527
P 6.312183201708295 8.226626789531798 1.752376289251366 0.3168378138962092 0.00628660433966014 -0.3846799703511633
P 2.031296306731578 3.6408126378310586 6.0557207448164165 -0.2305989001016222 1.1669429922684031 0.24512589007320365
P 7.432888331124963 4.23649765211938 6.2032688716658 -1.1523054448608863 0.19251392030444262 0.23430283131577068
P 2.5295751441287164 8.920402718106262 10.188894262985764 0.569970119213657 0.6709309125994509 -0.0013943092443653407
