# total energy = -340867.49065416213 ev
CRYSTAL
PRIMVEC
9.32189941153646 0.00000000000000 0.00000000000000
0.00000000000000 9.32189941153646 0.00000000000000
0.00000000000000 0.00000000000000 13.64354206081630
PRIMCOORD
 96 1
Ni 7.101124697539338 8.99913800003641 0.9956077587713892 -0.5083826854191632 0.33524485564848716 -1.053856876373985
Ni 8.559936707615927 4.198219956612136 12.541020728231468 -0.14257178405836093 -0.7280083743387332 0.05447087735437071
Ni 4.275330708833344 2.4323166130704514 12.578963655548439 0.716626871974669 0.2943283199397834 -0.1727192541760187
Ni 7.283526304008436 4.022958925119034 9.142428645187895 -0.5738334588238052 -0.19661045897131946 -0.5243098981723808
Ni 0.654972502338113 5.7002482925225655 6.928081345924551 0.913198507288253 0.4666567664352866 -1.2402839670543995
Ni 5.6842146254746355 2.3372239168170004 10.364930504296444 -0.12571768861549962 -0.09079439437575332 -0.49557164969742395
Ni 2.248908241461134 9.214688280937159 4.2824619619098945 0.4405220170214478 0.43910405362799854 -0.48807714109259165
Ni 7.360935357011932 7.486128466578037 9.889371007464892 -1.0690374407691654 -0.8977320362215377 0.4172334788071524
Ni 3.4654813725217277 5.812763618841471 7.434461838895972 -0.846526459882 0.00414307563409609 -0.08679530051868922
Ni 2.2104181186466554 2.676084283595669 2.9317103424067414 -1.1246681427595921 0.16710447909240253 -1.8901624298589252
Ni 8.919668807255244 5.948807419363269 8.94931804063469 -0.42646322493553646 -0.33914521914415785 -2.3272054871928374
Ni 9.017064012671973 3.5313033045132594 2.1855994935603706 1.542830561138917 0.7964858503848412 -0.25438134723320066
Ni 5.380152909329643 1.2962660494284746 3.5391756485958044 1.2909979484694991 -1.5146474138364818 0.5408870858047716
Ni 2.7174082638418744 0.7032776530797812 11.838242728962019 -2.293643334966675 0.563889460237216 -0.658532281824782
Ni 1.8778127463965693 4.519461933436974 12.31124988972513 -0.14581420225505853 -1.164149488683666 -1.016486663255643
Ni 5.726908924939472 3.235789770160682 5.115536810692394 0.754004798402495 -0.6130165567811701 0.1562791063421244
Ni 2.2910339050597366 4.801225666106006 9.369047749491383 -1.450557011114476 -2.142574054960265 -1.7056322990909079
Ni 2.6308544274813914 5.118962608738972 2.6920210028893554 0.41029638536768687 -0.28332811217453785 -0.84675425962209
Ni 0.27206336410503534 6.169438135462345 2.4821831819694036 -0.04643463731345551 -2.0586720168289707 -0.9468053967094211
Ni 4.944279535011551 0.9081282577958713 5.933726450438768 -0.6835401167230293 1.1038445211460215 1.1994265667184052
Ni 4.987961955817714 5.015135292704177 12.748089012825876 -0.22023426903784651 -0.48419374687778544 0.991837240138079
Ni 2.5821288590746874 5.838072575838639 4.848587440623692 0.34502636051528324 0.671006760142709 1.0759323681167858
Ni 0.18261228139658872 1.0140735093849038 2.492061598812829 1.3311069006752432 -0.7729052348514237 -0.14989917095770958
Ni 5.604288659620592 7.299317601670758 6.9763249721298735 1.098110961096354 -1.0859609559973813 0.5885337411484574
P 5.046372977749302 5.130829386734329 1.5391005978191 -1.2910046333377185 1.038830578168482 -0.2779385657278503
P 0.9356576912411895 0.9698970279080775 8.014817197114807 -1.9369896746251094 0.3387353853002488 0.8851572848803207
P 3.65661759877217 1.159858694828264 2.189133425640528 0.3653679002861127 -0.20463975703369916 -0.9050851341524992
P 1.7213726298858925 7.780001346628036 6.2949258170509585 -2.253190883378584 -0.5785943705475585 1.001590977090733
P 1.9961449379700722 4.043989130270273 6.64545533755672 -0.16636914358827476 -0.25744841619429853 0.29606612856649656
P 7.937550769172843 6.577755975016669 6.895200210007014 -0.6417031260825852 0.4528676830709943 0.3913301286778293
P 4.314613193100773 4.781621711570078 5.409281980719976 0.13443707076636846 -0.03474331701845629 0.017104520890770542
P 5.570040001054258 5.895849708607867 9.149877775035568 0.06263592966366632 -0.2450744680099779 -0.5625128916046634
Ni 0.7297369324686446 4.6036573292375005 4.403834957082837 -0.187767920979025 -0.7676997793910844 0.48938866081516363
Ni 1.019265807376588 2.746445980617632 10.670218982408592 2.4793605440642588 -0.8271655388568852 0.943956100186084
Ni 4.533966808975682 3.224706031718828 2.8478850260142403 -0.7071328164413048 1.940438295295342 -0.6418836175245074
Ni 0.4136453050879819 9.096943369028782 0.34614915995586387 -0.5272381275627694 -0.027287889181675587 0.2565068782166357
Ni 4.187928579623232 0.06738987547842831 -0.1679666451762381 0.8676192759965574 0.3750208499948445 1.6122194932557008
Ni 1.1751093223226907 7.826629487659284 12.087087105925784 0.11959049267183923 0.599334174198071 -0.20108623535448594
Ni 3.291786420135633 2.77067359727901 4.941840926116354 -0.4990079290724825 0.5665983745279467 0.5255214019819788
Ni 6.53746672560902 6.605227612685418 2.5517245518400773 0.06922258174224852 -0.3918592617084219 -0.8136801027759406
Ni 7.159088268297494 5.681679068825195 0.5491810620899473 0.48427396529641753 -0.07111877032369687 -1.567481269808062
Ni 3.381630887000721 3.8140458366241723 0.5614030044542155 1.669656909437563 -0.4416556164052587 1.2306546714947515
Ni 0.3571284931239174 3.093034202037425 8.413604326675058 0.29112266851829216 1.0126163816669593 -1.024802639320506
Ni 4.093590957224945 8.009254819715098 9.149004313057436 0.8184551555670808 -2.354862329678157 -0.9135088394398202
Ni 0.3086341078234858 9.449329811904281 5.930015402269128 0.3339233086235862 -0.27848981024563 0.32954060617485825
Ni 2.2687079558854384 1.7578305786210404 0.27281191263058696 -1.083392938159889 -0.16435956935741372 0.8716409955614407
Ni 7.232423651242882 9.029378241840762 6.670369046017358 0.9426008717097702 0.3363172627770595 -0.8132527854305348
Ni 5.5287160208080515 4.742861253671652 7.181224050723084 1.0691960778342169 -0.5810446318602639 0.9173122723463105
Ni 8.80044171333488 8.383156206513052 8.352549614060452 1.26264305147589 -0.03154846423024244 -1.2412473594089333
Ni 7.580531342272449 6.841742845441281 4.655040571176393 -0.3870057902708625 0.6793409910400171 1.7220950726326212
Ni 2.4003611417679487 0.033041472588016534 9.510626893904496 -0.3043396814291985 0.7549990439949642 -0.6463743063060093
Ni 5.208872328900185 7.167487299698765 0.15041630508836712 -0.7307702533545866 -0.23654843281683774 0.7184973495245045
Ni 8.257795302756909 2.0764064922041876 0.2049242477217171 0.1956828049507275 -0.35162175434461374 0.23100950527647957
Ni 3.4267954898188733 7.471427831150952 3.029971552282048 -1.0777745635318472 0.5480838606635271 -1.1238068232005614
Ni 4.385366409899488 4.486993757664916 10.565122023669186 0.49102902463206394 -0.07675694244608072 -0.7485499459355108
Ni 8.317502068711555 2.928539964404997 4.6147503895788 -0.055273318651008034 -0.49259894022234524 -3.2073833165806955
P 7.09163500390283 0.2801333324558453 10.364617288475042 0.5563329880461967 0.64944651747343 3.1026954520523016
P 3.329624009988859 7.803623039825394 12.238052470891548 1.0892031170837628 -0.01299075583271311 0.9244517116045691
P 1.3107522811682906 4.04095951295017 0.685928666019954 -1.302218756885983 0.1941080042644399 1.1655070311528248
P 0.9340356807375034 7.311492002347849 9.881008331471461 1.412175068902168 1.67163023111385 0.08039736741214541
P 0.48422233798715864 1.3381586655409152 12.316707861851036 0.38956480924729037 -0.9647000176016547 0.7018234884132494
P 3.9801341190619466 0.3437114832506116 7.838146694425399 0.542161324531505 -0.32207720791827754 0.7148304421958785
P 1.2745833113159828 8.000660028425452 2.5837732421370445 0.6608802132316682 1.653091291769398 -1.2588468176582515
P 3.478056614875017 2.515495921831312 10.597648927407759 -0.9161467912832997 -0.23579175715647133 -0.760706893013019
Ni 5.0181742319237275 6.87344662545873 11.008523763980248 -0.879069426815028 -0.21076335343293381 0.28503326779110266
Ni 6.825774431689477 5.418670997842462 11.231349787398969 -0.31277315690853236 -1.0214926011106664 -0.1627058358040746
Ni 3.6315696549595016 7.775731916681552 5.8841190303444275 2.3982970038230245 1.6289123805303496 -0.6413074333060632
Ni 6.687381512507168 3.7165294465146386 1.7477377580903464 0.23271440378272826 0.044829497609864724 0.6022269223648338
Ni 3.7513094533494225 2.920085001607047 7.294751735321876 1.0536383326052756 0.4740947107705706 0.8051070163949491
Ni 2.4939996217077502 1.113426313685392 6.587361260206312 -0.5632757379126171 -0.6232099523744041 -1.1971735090181705
Ni 2.6293815673688488 5.972941817030182 0.37125303516521024 0.8745800235851067 2.2449396991133854 -0.19141040282761876
Ni 6.560827405621877 8.085312197298855 12.072488079202666 0.43206848693745586 1.0553715132462984 0.1289791329755908
Ni 5.025109725111902 6.461045793946852 4.249021512025569 0.5571364577840986 0.27612002446187284 1.4323731411165979
Ni 5.632217070362219 1.7231344688812755 1.0557619758994667 -0.6531450493709396 -0.2498559485590213 0.5364120807525536
Ni 8.505105295071784 2.0243530056950934 6.587484309279005 -0.6476518874668523 -0.20555558397974918 0.5232526605524601
Ni 0.6331471391640905 7.408626194580077 4.537418708340711 -0.9976695305491398 -0.9205996848483307 0.21989745452371806
Ni 8.305980200995718 8.167223727734996 2.7402786119438467 0.6718613948335204 0.2842524237610201 0.023741052370681692
Ni 7.77518192461421 4.348395756694784 6.2427390273797805 0.21188743973504798 1.6017085664220478 1.1826891993590662
Ni 8.962372428619528 6.204833387660595 11.193461859288732 0.7338370652053685 1.385704276305149 3.0070169901113695
Ni 7.6944449535083255 0.5139629259811799 4.302968276312241 -0.2661883671704577 -0.04716148817715103 -0.010432251076917518
Ni 2.7844700084597873 6.142768181145992 10.927522050930085 -0.7438078032648351 2.581086754861168 1.0281373601206938
Ni 8.024841035589597 2.144111447883907 11.181292119561364 0.8178979975120301 0.7567124271416451 -0.2900212079239973
Ni 6.410875331125945 1.2434108795669838 12.53882448872188 -0.6951388773042222 -1.350837546334951 -0.06913285024191965
Ni 0.2884568564715993 0.4190287020183189 10.206010762533007 -0.8619548786219284 -0.3574162495392038 0.8443099118466556
Ni 4.855628271275612 0.05111849999461315 11.122774827976086 -0.24289854340458167 0.09032362538692186 -1.1751712937154664
Ni 6.126268419125737 9.09505102344115 8.676133252026244 -2.201471086406789 0.2858313382123658 -1.3307263774073728
Ni 0.3046629786592892 5.976185838037554 13.591819724865635 -0.1299939473933503 0.6624935804653751 0.5239129198442783
Ni 7.790618990097566 1.4925852517711542 8.748580257954384 -0.14791839308225493 0.6221748262416705 -0.6357973021211115
P 5.890181993744412 8.656725989568637 5.052845172534987 0.18958080581804768 -2.127398118550775 -2.0725264062135595
P 7.591820162502126 1.8278100777656987 2.4029824598922964 -2.0271942579356637 -0.9940514741805784 0.3545281293581313
P 6.484788671837014 3.3831317128116027 12.883337655324889 0.24992228302058248 0.12115989404148811 -0.03619727585616346
P 8.048947467558172 7.49029535563061 13.305673767266814 1.9477628539812135 -0.10042137594255608 1.1310578483360196
P 1.0032414622281043 1.6959424881959195 4.381909849584737 -0.845086385001364 0.6843009061484537 1.7226612295487362
P 7.97406464930467 5.040789159980865 3.5887429845225247 0.08813355971413854 -0.9374843764188113 -0.200972335484441
P 9.124415006697534 4.366200584637544 10.325282601570713 -0.6624398444093043 -1.9645503578521974 -0.29897456046254317
P 6.272435802446403 2.370624282533706 7.195562996451646 0.9932539179799474 0.9799309756187963 0.3729351711104093
