# total energy = -340862.86656614975 ev
CRYSTAL
PRIMVEC
9.29336805219603 0.00000000000000 0.00000000000000

0.00000000000000 9.29336805219603 0.00000000000000

0.00000000000000 0.00000000000000 13.60178353242987

PRIMCOORD
 96 1
Ni 2.546466417216524 7.680736151619204 11.026013068655823 0.33317151805922623 1.3712978710718318 3.2772607582981235
Ni 5.713358068689496 0.2583370380746068 8.670402687252329 1.2136648218049741 1.5603983948193516 -0.09370796847812247
Ni 6.347305153093385 7.866733614746955 0.8408025822195528 2.810515803024405 2.9194722130211654 1.6651968167836806
Ni 1.69188548789828 7.087466138071225 9.247416741846424 -1.219558304471274 -0.7226759063822263 -2.473491229767675
Ni 7.015145149859966 3.1251644300557846 6.256902059155751 0.5368525107240819 -0.8896582580744677 3.0869140208483286
Ni 7.6076438138806335 4.90292992978396 0.036072207111539904 -1.2734396278707618 0.5468497311461098 0.013802967321363324
Ni 4.769783849328715 7.5905533104984055 10.745530864453151 -0.16163574266834743 -0.8397737145391988 -0.19664542597431295
Ni 0.8013150624419069 5.388619917691547 6.3973406453228145 -2.67347446186597 0.7820704462904595 -1.5448943856464814
Ni 7.657428385179493 2.704686003993277 0.32089348473953233 -1.9579091983865957 -3.1203406759378907 -0.4745431111618989
Ni 7.5053052476788364 0.00747744373101765 12.703085857619392 1.7790506640820587 0.32113258461682115 0.8333104754123584
Ni 5.649140897198902 4.42159853137407 7.983186018624984 1.1225927482878022 -0.28537085363617953 0.6236205575492615
Ni 7.611881589596945 5.3412887954916055 7.291113565322698 0.9769127576177626 0.5495609594296857 -0.18558479728477714
Ni 3.249063609551096 3.5867288351573534 13.391295987264444 1.1182843507204354 0.7483026058113951 0.18079071833024346
Ni 4.114666473078868 0.030477599696585114 1.3032944654274552 -0.6714867851029209 -1.1913635872046129 0.48996793035740127
Ni 8.733061360963044 1.493518552230157 7.81717580162239 0.19951272021977895 1.4530818344188587 -0.4477432173602353
Ni 3.2585149646026057 6.4015412475679305 1.73394169453555 0.6314788772514157 -0.5976711846733513 0.21437241094043077
Ni 5.311921753246993 8.714930000387334 12.753862031262395 -1.7824308934082012 2.6417740454388956 -2.4717189683586014
Ni 1.5764618598355917 5.023297629515679 3.8334045553178657 -1.0524085739632327 -0.20542702882168493 0.5627874854222888
Ni 4.32024506215896 8.22420300713273 5.542414002722451 0.983233557629468 0.7870930963160315 -0.2129477626787623
Ni 8.876104878124146 7.916406665632225 1.4442237414143022 -0.7156521667662256 0.9465796538518602 -0.2262712192605458
Ni 4.9602235422643535 3.8962165695972613 5.754261897719699 -2.230367457726165 0.6083682593758812 -1.0402053470288215
Ni 2.466710734766122 1.7564000471584398 2.4457504730324193 0.12332116335886502 -2.7413937514157625 0.04987091668851411
Ni 6.526620684773706 -0.033155018959456335 3.4317981712446413 0.3862447437351219 0.1287287075276815 -0.2628310206624506
Ni 6.9023515448843735 8.481443427807061 10.54056563764779 0.5155959153381507 1.4433620360279336 1.439651677055882
P 8.494045234542408 7.2706755908592955 12.206254051057671 0.5660165338825478 0.08881721604472446 -0.7426286953550694
P 3.9998469139231103 7.527284062523302 3.4410738816447517 0.42458657673811395 1.8905398678030025 0.0016359929415262146
P 9.107519029685259 6.618420571891518 8.312920284151637 -0.2073980365051267 1.0693472587001003 -1.5026233927924122
P 2.836149984876916 5.130366519927131 5.722446982396848 0.4408382627102859 -1.5636873499832682 1.2826310645620427
P 5.0491331919967 2.4881412409104504 8.049059268257347 -0.31920837101091476 -0.13808443771096865 1.553191592658267
P 6.385036226357034 7.961758300490995 6.859706138728652 -0.6734487939252982 0.8585224559016117 -0.6208527649961373
P 3.0619974091264694 1.0575202019434395 5.558858617042654 0.002850067854285414 -0.9792925707038489 1.1726145887318837
P 5.623026533683913 3.786090161179962 13.015056779935174 -0.03787132112447671 -0.45233083673091773 -0.34858836683492866
Ni 5.6955984428257445 5.947560230590286 1.3330592638138623 -3.406465634131275 -4.240259476937956 0.5389052794880526
Ni 4.456272086631873 1.1841516315716356 3.7732430095347236 -0.18981169088193117 -0.16144702369630903 1.218814484326714
Ni 6.366784051999939 4.080392532636421 3.07586683122959 -0.6105035605513293 0.33592954042033757 0.6925801154381105
Ni 4.337818820666732 5.435439904662547 11.903287472802273 0.2402081410566121 0.5314603931742331 -0.019145719690515414
Ni 8.298605709730948 6.335549042827741 4.529080976652575 1.367674929607264 0.7690508941023401 -0.5848051273439606
Ni 6.5421777824691105 6.445694037980638 12.341169588741831 -0.6335974662563153 0.7341329991792325 -1.0369901825256334
Ni 9.259000924807788 0.067989349480179 3.6691758769223255 -0.6625851117379169 0.3253327387410978 -2.8862399333305966
Ni 8.247585120514831 8.587889662575986 8.246081453604965 -0.5049034686213111 -0.865162844036265 0.7682474243644383
Ni 8.047368804654722 6.103131207544346 10.160259652569708 -1.490360259154343 1.2721461058703187 0.5891281801993467
Ni 2.3744926460973574 5.129836797962591 7.94168648471887 -0.9695416619646722 -0.4863858694330979 -1.5534463889815504
Ni 1.4613913797492624 0.2551438368988951 8.922905349022768 0.5894955908410944 0.2570666073748476 0.42040930543197275
Ni 1.5618248055522796 3.107869472581979 11.588243233755383 1.932769980116807 1.1893434714507904 1.342315624906869
Ni 5.628751248248054 1.6993480622408195 1.8281206838098887 0.7980873905440061 0.9565951291063333 -0.7912258875374825
Ni 8.577936465663333 3.9915665232142654 4.980591816469263 1.3468754763634094 -0.044233515897078655 -1.3006694101209921
Ni 7.315934292040075 3.648157996308269 11.323933348196405 -1.157247105136878 1.3707468836643684 2.2750285480789656
Ni 9.252932355635089 8.754110839027616 10.345529444998803 -0.1820410457975768 -0.607808015997037 2.5970859585029014
Ni 3.972515119226462 5.0457504061178895 9.245798766512632 1.0263208757372455 0.6136991846704914 3.4344490067180784
Ni 0.4976914430831228 1.6367200566438422 5.329110766327891 -0.5181973575167398 0.6449866819298634 -0.11161595910679488
Ni 9.23593478593085 5.069643654728933 11.973323221871773 1.503624580363417 0.07105037897960666 -0.23163505467562043
Ni 5.940655258315683 1.7399136126831412 11.76325779481836 0.5298179724748037 -0.6204192770031445 0.9118000842788297
Ni 8.596021359400048 3.8612828000410904 2.029562794882677 0.3925020374987434 1.932108178163092 1.5439405063736442
Ni 0.21370563922025398 4.694990825282941 9.143445330922354 2.1246794340680313 -0.014417203866594525 0.41920371515964583
Ni 5.165625557356265 1.4020253462497088 6.349230738901324 -0.5143044502202367 -1.824282025116032 -1.3283977292741962
Ni 0.9644099499659776 8.274006165167185 12.973965224875434 0.37969177310795255 -0.1890447308089196 -0.1853333433956034
P 1.9184299147327535 0.7853202471231715 10.87152476905034 0.17363585245301708 0.49917479366765005 1.9708606163409412
P 1.9259203691786897 8.95827683620227 1.4746102661064577 -0.6442238356219099 0.0473131832636669 0.23084058379878308
P 9.256751929800448 3.680331635628159 7.285686238528124 -0.7522906439248657 -2.828800203155889 -0.7338938865852328
P 3.5019547340955306 7.710614329092759 8.212974760158064 0.1957429687647016 1.231201288026841 -0.0016457631335391012
P 3.995571964735603 3.9065786746930664 2.487425651589933 1.0559744369376203 -0.792362572245087 -0.5493336739102281
P 0.6215794705370752 3.002863709821889 3.467598082679673 0.6997362668669174 -1.0105391874229563 0.803507533118313
P 4.402760874845643 7.109036044732537 -0.0363184813582115 -1.1662873609622755 -1.273454026048465 -0.20264303831864452
P 7.639928973614111 0.5695449748940962 1.3192957861036498 -1.0222487625504006 -0.1672839420930603 0.45595943462244054
Ni 8.00688689452259 9.267188381838645 6.070978942970393 -0.45191843178384755 0.15371725915221915 -1.656168130922509
Ni 1.3255130491611327 9.183325030821116 6.8703284581228266 -0.5646731324807759 0.6899313649613538 -2.612041037150837
Ni 1.2773826973304834 6.960230639536098 2.6382700216814565 -0.2325493389597737 1.654230547580164 0.7531655903306513
Ni 7.658822390349332 3.515448704139574 9.22516470198867 -1.256083138870185 -1.6315403050714996 -2.4307967762229428
Ni 4.298201193739902 3.3069705843062174 11.10008864470752 -0.12723103993623247 -0.854026110693155 0.04988351509400442
Ni 6.043179691873458 7.346778979764719 8.865968601865855 0.09825290753632757 -3.153558043230124 -1.0376301301024775
Ni 2.5261882886792626 2.9023652304442793 4.742125857422326 0.8585880190322246 1.5696319976024773 -0.8958903550271087
Ni 8.894171185125263 1.990221180979474 11.937849507646485 -0.3991799637395512 -1.152300302654564 -0.38749147165802944
Ni 1.9684282334909873 3.7254044694529607 1.7568609982012668 -1.312429635980714 2.4062111164637785 -0.8616052085919935
Ni 6.191631949093538 6.983231724838446 3.670712999956268 -0.7829142823479935 -0.9793676469161585 -0.13065343535422017
Ni 3.904180985800943 5.489034756758967 3.9799498134656046 1.6452661392980246 -0.7530866574635998 -0.31905976124819246
Ni 7.8750883523981905 1.925083966076786 3.161339793549893 0.35007986377879063 0.8348703637003105 -0.5424994245972141
Ni 2.779311747418671 2.741831595085593 9.326375053339678 0.7288013025536739 1.2154424825306873 0.6769696625943632
Ni 2.463225721841524 6.046757638476047 13.239418194673679 -0.4335972648771565 0.17542585447390432 -1.3247310790558862
Ni 0.44133924876076175 5.611781558647211 0.7786067182252258 0.3092499742466222 0.3635560438883545 0.36949349241871204
Ni 0.38318692909574825 1.0888202646902299 0.5179677129468244 0.4099544286472359 0.07739149070628606 0.7352311173394177
Ni 2.2069146379470834 7.192871515646669 6.179426039826426 0.7812183827028094 -0.2922750369551805 0.17093105192734434
Ni 3.591338345585622 0.9107221641915693 8.26615698672421 -0.1967492985420289 -1.724364071172456 -1.2634264666091337
Ni 4.099536870302213 0.5739184337802717 10.755215483036414 -0.3768537894385252 0.3815252267722655 -0.22786787432370434
Ni 4.638654429685839 6.281247894778603 7.079714539990138 -0.3745079149141679 0.24970476769313774 -1.2409174868733404
Ni 3.163973533984109 1.3076233161481958 12.986846761981528 -0.3188445599135928 -0.934168681782017 -0.6145494484859287
Ni 2.226932552185975 8.749956703621494 4.263465372917848 0.8871789432960397 0.49792575175189735 -0.8083504630329111
Ni 1.9912899182763506 2.3836373200115024 7.1224380104353715 -0.7705727300635051 0.29766586895344865 0.19011636660654355
Ni 0.5595239363965119 2.338638833129092 9.726798391692098 -1.5628139462393793 -0.475791124636387 -0.6955314847569505
P 2.0069864164887408 5.0820410073727045 10.268095245824574 0.5809777831780704 -0.7438944494413705 1.7528994596079877
P 6.634516684919262 5.203654018389479 5.304042836027061 -0.7238904955156178 0.04751295797929882 -0.5910336247521757
P 0.3121121815063251 8.057944657209902 5.11008095669563 0.44055081337685414 -2.0791287420214255 2.099056591293604
P 7.617346089862715 6.124831221354842 1.9122200863695096 2.4301701983825374 0.13942629645084373 1.1450186813914862
P 7.471384455212749 1.4135398289525807 10.191299501018127 0.4973886483015047 -0.07059040862405261 -0.23773139738134544
P 5.972996178255952 5.328640521917265 10.057647861354623 0.13118951036334825 -0.07398503612789839 0.7615630703657271
P 6.536044159721818 1.8078574246611054 4.7745662163980445 -0.6252375243273942 -1.329145148963182 -1.408119924996188
P 0.4059835603065192 3.33218349114471 0.18309328569058442 1.240516651890496 0.8493850123767178 -1.7166314784148886
