# total energy = -340871.942889632 ev
CRYSTAL
PRIMVEC
9.27009811547936 0.00000000000000 0.00000000000000

0.00000000000000 9.27009811547936 0.00000000000000

0.00000000000000 0.00000000000000 13.56772562788377

PRIMCOORD
 96 1
Ni 2.880395670429224 3.933163652779725 7.48066062539001 0.9632015786792574 -0.6834593840837648 -1.255979523412785
Ni 9.1633345675446 2.125179302976548 10.355621237192075 0.30986703900533086 -0.007891744043250926 0.6107377880493224
Ni 1.874478764834085 1.5956249381862733 0.6247981356465501 -0.15322566422778128 0.311059002430903 1.3947103364585012
Ni 2.7765891097828956 6.834305803180951 4.149634352988041 -1.4487112161549887 -2.067421995107459 0.9061272022637685
Ni 3.5788234157601453 5.719743345632341 11.12815414824962 0.03251057103319562 -0.48312236819047766 0.8749836867814286
Ni 1.0759710383692327 6.0217909582005955 6.441725483707169 -0.6277680040587318 0.36227640584498255 -1.0906262226835348
Ni 0.03184093360493018 3.705721791245731 5.2494749674430246 0.2036604238395654 0.7657480549813522 0.46569980183865606
Ni 1.5933815744002033 0.9394039503676513 7.5087184318829765 -0.772837871948598 1.873095704184626 0.5669544723157849
Ni 7.812931539411668 6.631309190836488 2.1668604459158307 -1.3475897288216148 0.5785059245988102 0.25257206193860376
Ni 5.322306421664666 9.083722963433985 5.352902381069311 -0.15833881708463052 -0.17630645730664474 1.510901316530488
Ni 4.355639112227462 1.4701726980338568 12.65022178351818 -0.8067556077419654 -0.5274566713314787 -0.18833382078482402
Ni 0.894255790668079 4.756607943643455 8.432395660502415 -1.8296893121745328 0.2613261539821499 1.0362391632922219
Ni 6.954585328487801 2.2170737873208104 10.785052978396285 -2.6988710475622035 -0.52298835114748 -0.7291915960135571
Ni 7.983473537644433 3.7064912094037634 11.956111122960701 3.455142530511688 -0.2958475847977873 1.8925121610380247
Ni 7.811420513390473 2.1259301809380013 3.936607494294291 -0.3163552178328358 0.7907785155874187 0.04208227388203076
Ni 8.502506340876074 9.009469476134727 2.9897299906856083 1.3822019195788453 -0.7222776425025432 -0.4356744591211594
Ni 6.990349367688868 7.2378331817248585 4.4089950169525975 -0.29513333233958206 0.017300953172292785 0.33542483286977715
Ni 6.274697779735971 0.5877835601862247 3.268519853655222 -1.3295326142095876 -1.341609857089096 0.3122077713233655
Ni 3.275394558546749 8.27854076620066 11.122116533233639 0.6647137280451455 -1.054202432638862 0.16231579945450755
Ni 4.824733895973322 3.6563028972641654 11.229301117696679 -0.9629346981711158 -1.8505522716664708 -0.6421872648078553
Ni 6.265177388792607 5.008634105841322 12.133712301040953 -1.1375496267079506 2.0731290727945653 0.7733592916697068
Ni 3.5369318415896904 3.2291738484750763 1.8697816060307726 0.28496359089543183 -0.45451164643232045 -0.011567907343257498
Ni 8.025902777515682 3.482015779322424 8.662938369914261 -1.4762976104136898 -0.7493125351331482 -0.5978038535964737
Ni 1.6328351127205079 4.536869533788073 3.1841146817190835 1.2616344077057176 -2.029505165457027 0.6420857062329846
P 7.273300577780659 0.2969221752239647 9.954708026365818 0.03882468617668153 -1.432103946615611 1.5274805610454079
P 0.3789161945949928 2.8354727741180876 7.333965955007101 0.6061285714120851 -0.5465512260690845 -0.1477823817250229
P 3.394589482353722 0.8250257696319258 4.527617975695106 -0.44814868032877014 -1.0918181861091065 0.9840447406768538
P 2.652304902014962 4.958621925569225 0.798863698239171 -0.8273072066410718 -1.0763851393834882 0.5908546759721501
P 0.9555153811948811 2.6674800529149474 12.236718852204893 0.10972799805546263 -0.02101696857129929 -1.4198783510836965
P 0.7421316237169828 2.304731836746751 2.627131950109702 -0.5658386135437867 1.4179243126811192 -0.074870009836013
P 7.880510555942454 4.963655588940449 0.575708330154263 0.9755953243579198 -0.012412514731739913 0.29991224178546416
P 3.8479158289090662 0.8462153603021684 1.1583024893180003 -0.20414199146167422 -0.05508999899560834 -0.028559042584615335
Ni 6.58559833617074 6.721757539847582 0.2249009275928294 -0.002319649272112134 1.09209689369179 -1.2654568667756014
Ni 4.92102240690683 2.2820479062322336 4.328918980917677 -0.5816012756946822 0.2217774451552503 2.2077157817649202
Ni 1.8914708549988217 2.747796184495568 9.469417453898293 1.0566573219372575 -0.20282584375341198 -0.2507779461526584
Ni 5.323743286899546 5.0151973354303205 7.460552855190158 -0.05280274562332841 -0.488201839595914 -0.7925016689261125
Ni 0.2869225201990322 7.998120292941914 0.6959025705568493 -0.3419909161230691 1.2347275560125444 0.4152724984260397
Ni 7.77374683394176 1.831243026411646 6.467626138328158 -0.6398185074653626 0.3116655256666503 0.122173422907667
Ni 0.7066772057987879 3.751108192471345 0.49443367041050357 -0.43456708498959346 0.4939554542502396 0.07367007599064086
Ni 5.174791347583132 0.27376546969668053 10.567223281778721 0.9617982705738274 -0.616963200133744 -0.4342084160985941
Ni 9.025998061384987 6.99172134223572 9.709879168479953 -1.5623107813507158 -0.3054421704647578 0.28589201624697214
Ni 0.6174506557422565 5.811563669190288 1.667514550421697 0.3631899187981874 0.2548233198666256 -2.1627065640440817
Ni 1.010848597885177 9.282520221253284 10.403149031122572 -0.17703922170761122 0.26972569089975484 -1.7359265791990748
Ni 5.211269184352492 2.7604684088573763 9.04052894045385 -0.40278567881293853 0.11402328299670686 -0.1223809109327828
Ni 9.197476339544995 6.074268984617712 3.8944934377648863 -0.351028343734989 -1.0358642964513063 1.694032252958134
Ni 5.887216941331267 5.206587784716272 9.67700369190591 1.5242026616250848 -1.1500804121851096 1.1554627595429454
Ni 8.66343524718258 0.6217881347319347 8.462801582892123 0.5977796852267576 0.5029630570654886 -0.1165355078955993
Ni 2.4747268991804323 8.545890400871146 6.230951258897778 1.6252902103967297 -0.35165646423729113 -0.541411590849674
Ni 1.6650950547681256 0.456586640123777 3.1093698792104796 1.2797054062748152 -0.6446624658212252 -0.1953151371986636
Ni 8.91505352505571 1.2104245439607975 12.84444424783159 -0.004440809380172998 -0.48772001486348904 0.3832383528086303
Ni 2.0838902851949133 6.694327319008817 13.128239963877556 0.17772802024451972 -0.6129142268753509 -0.48591047245857605
Ni 1.985738484505208 0.2332023006111172 12.390237241938738 -0.4569469953466904 0.059891277038993634 1.5965324215377472
Ni 0.36111945989872374 1.2296692680098935 4.96259879773544 0.08321863891102442 -1.0528027240778577 0.265065309309608
Ni 7.947477745986129 8.264218464343312 6.906772942539813 -0.6896804252928121 -0.3377635083052828 -1.4884676701173205
Ni 6.6903597169408915 3.928834516878507 5.381353239729754 0.027011752702153478 0.4399028953802101 -0.28779848924106566
Ni 5.724026131042112 4.444539354824202 1.0568931760893485 0.8347623773675364 -1.2675523158520494 0.3297547790681934
P 4.940684285378955 7.185790849927351 12.206977595862545 -0.6162839146785322 -0.09192490843577071 0.5321183384732061
P 5.498466099460895 6.612676293274503 2.7415351601108093 0.11027769991134558 -0.1033172094331124 0.16634368966697802
P 5.56054794770598 2.8247658105936626 6.911779722625997 0.35487985627059526 -0.26879752265853063 -0.2515004261409798
P 2.49373987077229 4.6879628658093715 5.204701319714349 0.5106712243430237 0.41034986431344167 0.47890344501312365
P 4.987850545476162 7.7092918405345525 7.4041526501867345 0.9642457036730555 1.2754029222447196 -0.5288391535013021
P 7.548325853834888 9.319322511462778 4.879252271023967 0.6862184348861408 0.41460683981758273 1.803716542259855
P 3.5678105389921657 1.5932888734173078 10.207828060161853 -0.2076949989202552 0.4567796165308908 0.36624824600853695
P 2.862652702303034 5.280943243096716 9.144783246847561 0.8595406127534809 -0.6642519579173786 0.8462878615086328
Ni 7.474637842531292 6.166311790534607 8.030031679293845 0.23142216733386592 -0.624949303663014 -0.5546594569985157
Ni 5.50102464658881 8.598359157189972 1.3142107103908889 0.07124526859923214 -0.9782877835884185 -0.5524369954259002
Ni 4.302048674015601 6.269265502138297 0.8810774189396613 0.531132320410853 0.21143903934371974 -0.6571094333353263
Ni 6.68222984074096 7.2712240757638 11.065429882193069 0.5970608047828622 0.7742398945024472 -1.0017480714938876
Ni 4.55629965980296 4.764496797287857 3.9608673415180307 -0.4215372483888289 -0.025195782539337252 -0.97272828722277
Ni 3.012522381350113 8.04022507937303 1.3058583518320084 -1.6938029105561474 1.766371011731861 0.06966352593440904
Ni 6.01191830352223 1.6680892965156486 1.3591336067020252 -2.2717892152060615 0.9522039420171731 -2.4382146659535686
Ni 6.6594902896367065 0.5593271394668075 12.52968640349854 -0.10236178749837853 -0.5267375337772671 0.6311577464665711
Ni 2.2218849683330846 2.434772775552492 5.464645999871147 0.7212132057937708 0.8639641957424733 0.10502313638062558
Ni 0.6932003369054469 7.963728228287702 4.899237675926399 -0.8615131630988195 1.32163135708464 0.2806644492994457
Ni 4.624861306752436 7.073381638068325 9.479647934370636 0.2464952596169045 0.6783500878816576 -0.9531848178732036
Ni 4.138088445568413 8.357132659499424 3.326344872765748 0.9951310803980024 1.050153716490785 0.15027378068830893
Ni 3.8731583065514985 1.379835590202238 7.13849573546392 0.9612025459713576 1.2825148506991526 -1.8079426645260606
Ni 8.629441796754818 8.344135981697484 12.053839280158574 -0.007762160443922116 0.22131516080685112 -0.916523457896428
Ni 1.2218823854466756 4.896206353785717 11.232652258228349 -0.4173640908477458 -0.516790192756568 -0.640391092139381
Ni 8.17663457570369 2.291318004521779 1.2745504488787271 0.880868941917612 -0.6894533968836707 -0.17308589348681805
Ni 8.624055869648593 6.0930409336540405 12.367239982102033 0.3550184387309886 -0.587037359108589 0.17803938083735144
Ni 3.450015400026914 9.150300809349499 8.764764837565943 0.2503814820451881 -0.30310863723557474 0.1879065034394183
Ni 2.8802473488565914 3.368994740976288 12.546591354739352 0.06708316680174253 1.4377148650444853 0.7516859204613313
Ni 3.2831536308150984 6.451895708540629 7.376392413848863 -0.4125401870965411 -0.2912437674771887 -0.4731359464017271
Ni 6.137333463281489 0.6363078896828496 8.092538098040592 -0.5850630089910376 -0.6183706220042318 -0.599622137752135
Ni 1.9551564302479978 7.298932399551251 9.151960156943328 0.7744656373600081 -0.31916183404369547 -0.16388700059636935
Ni 4.664639298512875 6.630743714840826 5.428189484327853 1.3721383646952563 0.2639741331279583 0.4379272597110781
Ni 8.393072830567991 4.011375472048618 2.7953313945046987 -0.03424169479168942 1.6033908392204772 -0.4410398371981308
P 1.3045994724842882 7.527190029734725 2.773297297880278 -0.6727759362279897 0.7930277166329117 -0.6139794349150717
P 1.2535861215969204 7.2652541324653335 11.24807862879198 -0.2911018425826858 0.3464648927340227 0.9615864116733375
P 0.7169188103890775 8.217283956703346 7.6180750003752555 0.0065604268263370884 -0.31863372945436735 -0.3373253923265997
P 8.334986394685702 4.898764900913632 10.164479226540282 -0.42590529554953743 1.463147960405609 -0.1258513859798865
P 6.035538513963991 2.7949068240030375 12.92960864081764 0.23740820971397175 0.46750291648566583 -0.5332763633370494
P 6.043038023480234 3.1548183900946336 2.865761893269348 1.1387809280118906 1.641145946482064 0.3055169895667512
P 7.95826814039516 5.798780203649004 5.814272391910492 0.2743552192519662 -0.2950842242692015 0.40913861761415987
P 7.624841245116795 0.017729062978755372 1.0318852319336422 0.10878466030558684 -0.1637489323566083 -1.133883490710273
