# total energy = -340863.06844863115 ev
CRYSTAL
PRIMVEC
9.36395228745302 0.00000000000000 0.00000000000000
0.00000000000000 9.36395228745302 0.00000000000000
0.00000000000000 0.00000000000000 13.70509069548993
PRIMCOORD
 96 1
Ni 0.39877420056262414 5.003403070246505 11.069368432000875 0.4071100172199053 -1.310592582771975 0.29752702938273917
Ni 7.209971563054711 0.129725383219746 10.018311628439342 1.4116665046968655 2.0648483208430117 1.5263518467576034
Ni 9.336656180490444 5.0324313217591845 7.419551793395419 -0.6018818803205892 0.9690246131189376 -0.5348619626566143
Ni 4.674831354979272 0.7840867835850455 9.480660654268798 0.5161229914862144 0.30874886624048764 0.3837322617259133
Ni 3.636284791424495 7.79933870828312 9.20891595511608 -0.4774602848086938 0.1818297011177191 0.20376326796601685
Ni 1.8339581108106076 9.092275758562083 1.8061256359812081 0.8914436321096646 0.44786791586355773 0.06658745811224662
Ni 3.457367758633278 9.090243780956195 13.691069949691913 -0.10814831227316858 -0.7200109579555536 -0.4391804153918888
Ni 1.2933584281235004 6.718158070813108 9.635418690639783 -0.02448384407397719 -0.008850508412094435 0.05354270911314649
Ni 8.877803799643882 4.678876582286845 3.507859124756349 -0.5987147954465172 -0.19244938561509436 -1.9269412892501718
Ni 2.2236296135359814 0.6053579662310555 8.816429648389187 -0.9321467662559817 -0.5237149449008593 0.07857368393984533
Ni 4.59129553828746 2.5282857951376068 4.8527810915184695 0.9820675623458247 -0.2069295815091404 1.4636053596580019
Ni 7.92303651553554 0.2698747179181743 12.42918751016026 0.48424645449259185 0.43407343318262653 0.29087687105607324
Ni 4.717802531170139 7.323631213655005 2.138377384424081 -0.5284005233019867 0.006905725980897784 -1.9616331842054024
Ni 4.924895695832857 7.164818586024342 6.786158154574376 -0.23947100578027145 -0.18075163756219195 0.32454983782848623
Ni 7.124235217619196 3.35654608636327 6.794640958782549 0.22465193848956794 -1.3475002544316017 0.7734315396685388
Ni 2.930289622779819 0.19669075027386812 11.216451773229991 0.8577621806968195 -0.3513031946629305 -0.09309964547016225
Ni 4.357777300796102 4.1973540734040915 11.909846807927746 1.1463091180681355 -1.6638439023002118 -1.0793635052855217
Ni 2.940365235240349 2.420834444780187 10.426626759797538 -0.30215964305874415 1.2020346937652138 -0.3939652523078312
Ni 8.20033122909844 7.4001253383669665 8.844812723602116 1.698512914437307 0.03628623602554396 -0.2116886934606806
Ni 9.084166576042733 2.7740708098810973 12.241647213879357 -0.34379531632165955 -1.3955449165446545 -0.9531871318660488
Ni 2.4855206258929585 4.883450843834431 12.951995683855726 -0.569726121523651 -1.1634989995838607 0.9477101679118775
Ni 8.82805312213199 2.3398924428203145 4.2335710309446055 -0.6499638234294807 -0.22675355821360305 0.6994218209502923
Ni 2.182765326567809 2.7579460843634087 4.827399162953866 0.7654279526377721 -2.149010811724544 -1.9179321437730261
Ni 0.33420600524632327 8.894602729712833 10.367270540220577 0.6810494890906915 1.7183844565502533 -0.43708625186702144
P 8.388668397703126 5.109590287070308 9.4373804676586 -0.39709479907574835 0.42636603723603994 -0.13601495677644962
P 1.3342601709000765 1.8224217218223424 2.131196169557928 -0.7293625743737826 0.2652702262315625 0.0977605412809413
P 7.96906970406339 6.585564509064867 13.136233314230653 -1.1407089982725387 0.11037180228704864 1.7777543138681384
P 0.3425343042448321 4.443129724195481 13.299392688426536 -0.04074118647310403 -1.0213015681457829 1.352049564365181
P 7.897678933246399 0.5410566435496293 1.206631376555714 -0.4294207649019637 -0.46708768332511813 -1.0075052856926392
P 6.1727359527940555 1.8636137471140455 8.07695835098392 -0.5903437977740027 -0.3126111774093713 1.2338672648947782
P 3.3884116153625117 0.9318948947067708 5.768061526012677 -3.007144516828169 1.04755664518757 -2.589736974336998
P 7.011408958755881 7.2106644955101755 6.301819905294892 -0.6051631221750222 -0.11774032683697787 -0.24903268132677753
Ni 5.160249267935985 0.24011233256078673 4.759105987491842 0.5206455619469162 -1.1559037037351059 -0.6753881770398562
Ni 7.194352490950469 9.346853524328285 7.667230199253705 -1.9888010028694458 -0.1916135199773603 -1.5019965578416905
Ni 6.839477434231908 5.667635012521326 7.929011653371101 -0.7604338418572903 -0.4160741683917286 0.09523006154960373
Ni 2.5033776825493073 2.4628036780962614 12.998771433785171 -0.08696987842334054 0.08578665674851677 -0.17559786127539437
Ni 0.9624363608789503 0.8542724137666549 13.375894304300179 -1.2826061248613783 -0.24637493198895632 1.2337860180348814
Ni 7.662962109886131 5.109693290543417 5.613660256216733 1.085512298495737 1.920439997796544 0.00930173701690011
Ni 8.602419332309559 2.561040899586431 1.144151342557906 1.2325961114918385 -0.49634992262434524 0.18818109725704368
Ni 0.4408970026931528 2.712783743380939 6.893729363518687 -0.02513561872536316 0.38215283305393544 -0.7837041252391406
Ni 8.318607308084458 2.657124412093401 8.833794161165029 -0.8219533985283264 0.4561957190029627 0.19545551943126985
Ni 2.438728957244939 6.285234473333841 7.589933583846698 1.1929455869797518 -1.4034286901681055 1.2478226986336058
Ni 5.524160538431881 5.53163297220837 13.495320276604183 0.06232225507798943 1.2387837283597891 0.4833383408560256
Ni 1.1563357170315507 0.5142382847327536 4.96987731253978 0.2948615667354342 0.6077612219195017 1.589334104017095
Ni 1.2250390335955934 7.912324154332151 3.868261722400051 -1.2823526140896753 -1.8154135189818088 -0.388390329323215
Ni 1.5067628965022015 4.082102550946652 8.792610563430218 0.5004750005363122 -0.662347284695498 1.9166615045907183
Ni 5.647230960893542 6.509931867946185 4.160194165887021 -0.3003953520694697 -0.2737533240019092 0.9186284200545727
Ni 3.6794245187531773 6.4592447952242065 11.589778497563307 -0.7639997048316778 2.098993856376469 0.5188509319403387
Ni 8.669446501447547 7.078155209330842 11.244834848442922 -1.3548042442921828 0.1665491208095648 -0.7908222243411606
Ni 4.32189463634559 0.08671768761568562 7.2434139815877385 2.101117844698007 -1.9176174407460846 2.479808430234955
Ni 1.5211740187854321 6.080070282803901 5.505567475140404 -1.1042463845701305 -1.3070408608649748 -1.8582293285957545
Ni 9.261070359132265 0.32325767244999254 3.008582562690357 -1.320963384483338 0.357356599945862 -0.48717879764803845
Ni 3.4883343482308367 7.878248732637106 3.9623610134568477 0.5413709674197257 0.2437585774120318 0.2498199531147633
Ni 4.250531957384902 4.141882021158571 3.393024298167398 -0.18888892195734563 2.982502292799457 -0.7441032230180669
Ni 5.968180419150671 8.030693872839178 9.083350039419537 -2.1156582044060275 -2.5552934479471476 0.06951208795820932
Ni 7.578705268882552 9.061992737467886 5.095346779529684 -0.3085508912970686 1.6156773698973141 -0.36348636699268366
P 2.6018115470335945 4.844028605489792 10.597187401733944 -0.2356835137133812 -0.24580337575620248 -0.2947854620818601
P 1.2193176588619652 8.11737597743688 7.81667044722661 -1.092490529585783 0.6777795600901682 1.3163150870780491
P 6.162856983327644 4.448345445515663 2.0590253815309354 -0.9234415251725001 0.058013086179674274 -0.29398790588122914
P 6.719010190454286 1.759739426459156 5.458148421701626 0.15151279530173262 -0.5076126400223581 -1.7304341886259362
P 4.466989074148485 1.9883603170017619 12.193295510811332 -1.2165881660993563 1.165019292883129 -0.5337851846526678
P 0.3127822192347555 6.271357096320361 2.3270151358912057 1.258646014501355 -2.2529497139020553 2.0918603306554813
P 3.307085691366504 6.564551800550528 0.34546428485719266 0.709510572644862 0.8484866689321646 0.38260946097537973
P 7.088390008977087 2.1506188790055414 11.430278555848442 -0.1558373908190155 -0.03217838450475749 -0.17667798171345056
Ni 5.732677023813929 1.024435087738774 0.747436275062262 -0.6462660628629192 -1.3365350136693497 -0.4019043046492498
Ni 7.9299845679943815 4.795073863906473 0.9869099860897698 1.212870608038453 0.5185501128704683 -1.316015039339127
Ni 6.902852662050559 4.526702996695697 11.211887782976032 1.1081464909554852 0.3279316098165255 0.49439871243524536
Ni 7.990915804314707 6.786711564143537 4.020566403320611 0.6220311015749544 1.7175791870401387 -1.1865741362357694
Ni 1.6219863271033388 3.981917627419503 1.5461673433378493 -0.2271230257378798 -0.5964188003234889 -0.1996639010856626
Ni 6.812144058049484 8.730771023756109 2.7002454115178818 -0.3428512072408353 0.9335842700334567 1.0342187904280833
Ni 9.175568112499272 0.6516982923878136 7.366389828133181 2.3275266179776817 -1.4442881473866287 0.2873819705289373
Ni 5.8296594757225835 1.876845011432567 2.739606784173865 1.451968546750022 0.6209280983187628 1.9375833423450501
Ni 3.624504939681608 2.15732346870976 2.6133825826446326 -2.4122429244801555 -0.9897669878726115 -1.217229142117465
Ni 5.440961824015699 3.293404957347141 9.81986139156572 -0.1229090155221109 -1.8331299624249657 -0.9435632356230395
Ni 0.8961227248910484 6.491775164822609 12.98259895211177 -0.2168033889794266 2.349005356676748 0.5277209807364589
Ni 2.352018760790934 4.031761944452405 6.619531308915543 1.3009162360244755 2.3013574157814816 0.2341233683151129
Ni 2.599526742720984 6.03532931966597 2.4655323337384534 -0.24465383553279152 0.5049399782862014 -0.09342360446848426
Ni 6.012387637018853 3.111135629703814 13.576687401989435 0.40004616839458845 0.6885707371684012 -0.5822268250938231
Ni 3.396174331654129 2.2321414459956674 7.5354831387753825 0.7496755748995219 0.9524440830524371 0.9737919526005938
Ni 6.86896451939753 6.677415515222247 1.7441512553968468 0.8442857434769394 -2.423199166381343 1.455611799929564
Ni 2.5345877349014883 8.036967720746759 6.1318360828079 0.7985285918464828 2.1482222543849776 -0.4686005204252188
Ni 9.293141895077726 7.84634574782946 1.2880724771625625 -1.9016436910256473 2.341853061902683 -2.29553978065844
Ni 5.241828018638715 4.713467021347439 6.26735119761161 -0.3455863467838113 -0.13279670694946807 -1.2054246932833692
Ni 9.037609006197236 7.5968151522456235 6.01312177086356 2.4233562607844976 -0.016917344580628928 1.6066078034958782
Ni 6.569467875403482 8.228348173784227 0.2582091063909174 0.2743009689752631 0.14498887814028577 -1.739823600260636
Ni 6.553549156832012 3.9202653667874117 4.048484090114129 -0.022581484844941754 -1.0161249090408502 0.42777140222399873
Ni 5.349167001570925 0.20922814574171555 12.242236206466501 1.2703501903121606 -2.1540771705038577 -1.616087203741223
Ni 5.094935702032455 5.589268097389191 9.8419547001525 -0.002030400166467471 0.9831366270402875 -0.6124074624422614
P 5.770039192696379 6.99049925371465 11.476560825502174 0.5838209090538203 0.3342701504400437 -0.14924173987936878
P 4.220717133895749 4.580302258521045 8.103957434076342 -0.655165165124762 -0.514982707234184 0.27841524825395275
P 3.9678623353161058 9.330653887193789 2.130429261880867 1.2292611335813346 0.5713690564437128 0.3439884061690721
P 3.685389356241428 5.949377603332136 5.320356930142196 -0.04180742295408929 0.46023312229713 -0.6876430831478093
P 1.4734084991189222 8.523593583524482 12.269194088169678 -0.6777024269953297 -1.1892925636081968 0.32613723692026414
P 0.6267639607336317 4.067316870579387 5.079367195269557 -0.6508012317291114 0.36236228069056947 2.165136256531497
P 3.8749625665234295 3.4773036126560184 0.6761147974908177 0.1438362525930813 0.3558388777497549 0.5331411233107657
P 0.5390855316323974 1.7776807586844123 9.901393322507948 1.697491158041012 -0.25520975667176693 0.26151513006450444
