# total energy = -381174.1049693202 ev
CRYSTAL
PRIMVEC
9.22208578388909 0.00000000000000 0.00000000000000

0.00000000000000 9.22208578388909 0.00000000000000

0.00000000000000 0.00000000000000 13.49745472744261

PRIMCOORD
 96 1
Ni 6.676273474083333 6.899853715242422 11.175918970473694 -1.5779554298665084 0.509746141425593 -0.004167758224444436
Ni 2.5987560310966886 2.276554807469552 4.806092631336914 -0.5466864660953681 0.547263935865393 1.2523689232433917
Ni 6.29820485642296 1.0551541359700731 8.882390914618838 -1.0344296208873087 -0.11447528293246091 -0.6868776657366945
Ni 6.868793731237151 0.09893084454125783 12.973820795809269 -1.4537210106647545 0.3306271543708177 -0.509783936642064
Ni 7.330294556526886 1.923625594915585 0.681319377768377 -0.3554753237627491 -0.6742404365886582 2.3200141116507207
Ni 1.4923547659350187 2.7691432830210965 9.516434193217195 0.4593507196921766 -1.1863939019041632 -0.10867950218629024
Ni 0.7938269766007754 4.64428837439876 2.6437598083964886 -0.9449089510176565 -0.008902701806268539 0.10875843505334173
Ni 6.326055554669969 7.5547877841516895 8.819101586165342 0.279841439177518 2.0603576320615096 0.7817922529284084
Ni 1.5772809514173673 6.533561700781199 9.815065610692113 0.19541155356721185 1.1734699947536438 -2.7394271146076954
Ni 7.531216133582367 4.740032066186983 11.613992931936652 -0.16580041556899833 -1.3675898260926254 -0.3435878282965438
Ni 4.258150431915166 4.03707859801541 0.6659526166793078 0.16855406705473552 -0.0648463070514238 0.4633557270865117
Ni 3.1396405684759072 1.1464435604558771 2.1486998139276605 -0.980224338489499 -0.8750214819978995 -0.337086022622284
Ni 8.530880981025208 6.953692250462963 7.845435642198648 0.04225068113909498 0.7272136463515799 -0.16666482045182265
Ni 0.6847527602045892 1.2758847527058765 7.813689535031264 2.1847478601148373 1.6212697763834274 1.2320520660629104
Ni 4.197681217211316 7.957009043768655 5.639654807784339 -0.7285009977044357 -1.061406920807101 -1.208527500578409
Ni 1.16200121871505 5.560013799509064 7.631123596979373 0.14651842741093477 -1.9773940465840847 -0.07484044214965821
Ni 4.317964878547648 7.252543153573071 10.427336467604588 -0.4919142554504948 0.47060906621481524 -0.3375740180022961
Ni 5.906588995145087 1.8320410636933888 2.847557753923242 1.8826884900793832 -0.23665359093613436 -0.8346716174259432
Ni 1.6260381175206553 7.541065320909454 6.416878341628852 -0.7373569054331688 -0.3026795201179561 -0.35949241534194215
Ni 5.0028983916282765 1.5127079086605637 0.572315249222084 0.3392760882950673 1.206263901355213 -0.30573836154893796
Ni 2.68234501417976 1.974752836995522 13.43408401722326 2.0205862657008424 1.1535514014528456 -0.5277209807364589
Ni 3.323787171984599 3.2861241747525525 11.383375317323159 -0.8852210482387206 0.08101237528832499 -0.026729959795676543
Ni 2.723779844386318 0.4396195829948099 6.520174921451611 -1.263357303934095 1.1302250680220793 0.1395725922207209
Ni 6.481503028064525 8.528335685423825 6.219006508252273 -0.6587950485678655 -0.24141321710830685 -0.34158391049263753
P 4.977205661391136 9.063419531015837 1.9779575117110304 0.31149634707863777 -0.796307672935764 1.0733553514182288
Ni 8.37251932860878 2.890395263336214 2.7638876164876627 -1.255003275542445 -0.05395382850863611 -1.0644109977407474
P 2.4428751196830563 5.5645602876666045 11.318479501573428 1.747193667472462 -1.7650075557254312 2.8345803001727763
Ni 0.9651834697125214 6.891959610043933 3.6609281741415867 0.5204411592455941 -0.39357984394395445 -0.4441452155963319
P 5.591415000678289 4.466126904387523 2.6523308146715774 0.7324401848578419 0.6606529277122105 -0.763614296467801
P 5.300402870253596 5.5052899440793475 9.252477817268353 -2.2359688630733427 0.33278071037871076 -0.05338510048935966
P 1.076235823451086 8.2268380437717 8.509456231963139 -0.8872373073378009 -0.4437451519444358 -1.438640462182548
Ni 8.625010807848785 7.963778054534649 12.648086591222388 1.6132772450962538 -0.1827702106541175 0.540743618248372
Ni 1.9123285401630736 9.076708556238994 0.23640908431518687 -0.7925397212528996 -0.8127920437440325 -0.6563221615473407
Ni 0.3367748853621514 4.608792567262094 10.02669218461022 -0.5411879048746421 0.7218192148088859 1.068223172397986
Ni 5.199393367637876 5.705768861030241 4.440203622012576 -0.3122237121629655 0.6636513482189021 0.5063880235866376
Ni 7.008047222472189 3.9777160335730297 4.376090761322835 1.1671576793823706 0.32835609894845386 -0.6011866540257775
Ni 0.7535864064680543 8.65599701516996 2.172509394303198 -0.2315970023488334 0.43676589241312525 0.0916801394148163
Ni 0.31228840391001417 5.640743936083336 12.343206288604367 0.04817784525680735 0.9450992126515917 0.14980172614789683
Ni 3.73977700527136 1.8793134740292037 9.113548943443348 1.1046330784855878 0.7508708807592036 0.1500207841372384
Ni 6.421771580201654 5.279376515285656 0.18365322193378567 0.39707191625761296 -0.04225633756604981 0.24607796957382783
Ni 8.641868780165186 8.321779414120357 5.056902002179486 0.7741622471869765 0.8083759169542079 -0.3136614730507566
Ni 3.3690768339352792 6.7297062375413335 8.018229858441755 0.037687744358760905 0.46768957857517524 0.6816963786460711
Ni 1.007983168574893 1.5659193420662703 3.239713107203582 -0.2705096202536309 -0.31992802278575866 -0.24994670850061468
Ni 2.670798963118418 3.087047014799522 7.395835918262476 -0.2774850231301995 -0.24053287138588256 -1.3486947889603353
Ni 2.8316690227941796 9.092054106531386 9.240438384632107 -0.25900110539339916 -1.300050802700387 0.966550183436516
Ni 3.7175702233578516 5.064944582954723 6.385105490413483 0.7505970582725268 -0.3727348821741452 0.5508958761910254
Ni 7.331133766308501 5.5235773396501475 9.410397731788745 1.431399978570051 -1.910100306433433 -1.3760107031664688
Ni 4.951706594949753 0.686372158420541 11.01683799538731 0.08213363337696178 0.4492768803959424 -0.7226476242474522
Ni 2.2041245478563076 7.783827499934033 11.673232842641719 -0.4114125012500011 0.7335442165552979 0.6277253237462544
Ni 7.893754759240103 0.5427390987757336 2.488728251058535 0.9634774580484634 0.46011202333823337 0.8167098907411999
Ni 4.572420662001764 8.927882540242237 7.654567982768626 1.507315913172075 0.2904210144655772 1.2055429640287882
Ni 8.707972689117025 7.113335772765595 10.554833644228605 1.6852825317899622 0.027870758268339093 -1.5749112437235457
Ni 7.459827969632008 2.2878241959655266 7.1457818362233585 0.42038822238605017 1.4406400091110803 0.12827825025382422
Ni 2.9898001230728015 5.525209648785816 2.921848108184308 1.1130220738802317 -1.0625829433930731 -0.5409410789711587
Ni 2.1781367108827756 1.172892501705022 11.272021401388344 1.2063294644858258 -0.888812879355037 0.2090772239797625
Ni 3.5329717376590604 6.422122019451121 -0.26630339671171 0.4897666129798726 0.11749478648507505 -0.035405376082487415
P 2.803006781022094 6.349433541443532 4.903800627339247 0.3864074945652313 0.6488461648852697 -0.43579941473479783
Ni 8.122333370746835 2.2293285075612985 9.740343662829073 0.7522248236839367 1.0352973682042428 -1.0479937327249886
P 8.698400164355304 5.793065122489239 1.1490589439071524 -0.769154766670056 -0.22518415684395413 -0.5172527342152834
Ni 4.217149039727684 8.92523580170022 12.925162306020962 -0.20481819159309242 -1.6579046539976416 0.18772215534275413
P 5.222835909010026 3.0032090354076195 12.393362445079864 0.7331575226398405 -0.07479879027844538 0.6561352423475151
P 6.0127628656476695 7.344367459018586 13.045896927338843 -1.7766849920633596 -0.017110691538357627 1.8731460978065868
P 2.226690991104794 3.1832979212909187 1.9715592287826285 0.6230662277076882 0.2710212697827268 -0.552460649574984
Ni 7.400529959788214 -0.058839672193835284 10.588253559916463 -0.9196581468706676 0.162508632191604 0.33992220651949845
Ni 1.7503518302258414 4.493830049266334 5.395850533096876 0.6454294258942368 -0.6394750080830148 -0.25057842854734264
Ni 5.312345470991965 6.508726624496698 1.8947457119254099 -0.8126133520743232 1.0064465054108216 -0.21369826769154163
Ni 6.422269572819316 8.331379605138613 3.648065209269095 -0.7597864380812785 -0.05377513683892674 0.08762525261915233
Ni 5.380791789663916 3.065679442667629 5.46125909680109 -1.9113434348119147 -0.041388333138799686 0.93316697999038
Ni 8.326289013935849 3.7381262519646663 0.20425720538526393 1.1840202594656641 2.6779309549754267 -0.20893401353367885
Ni 5.287399729681318 3.651724532800357 7.99218023349529 0.12717473277700034 0.09861903262649467 -0.8572567018153108
Ni 7.427006567293896 5.9147966512509935 3.057389710000664 0.4817002910319704 0.2831645900134801 -0.6264438859306695
Ni 3.1711247684147432 4.49999040238852 9.248968813730942 0.5091131358272845 0.8801932560068261 0.2296560765723787
Ni 3.177432674905125 7.8178754396452765 2.5504516693920523 0.19489630449369016 0.6313217828482611 -0.8286824897220438
Ni 0.6633824214470426 2.1317957311836984 0.8298207763551035 -1.498398556077787 -1.0256295060971754 0.314212203347904
Ni 5.591673219072631 3.0659468831474843 10.29039126437327 0.8515473101353592 -0.1313625456061028 -0.19328345148061551
Ni 9.044422034860593 5.46974802651512 4.962987049948342 -1.2235142037952282 0.3703134172168461 0.46395016613740103
Ni 4.255042589097537 0.8782099812464522 4.1281964917106855 1.1937161465971893 -1.7912171242412633 1.6517460905954136
Ni 4.9588905995638 5.172852205533609 11.492744640455737 -0.2393007987509943 -0.41743222508151984 0.5816604110673919
Ni 7.541231318448676 7.877127339061509 1.3209327960161357 -0.25852647974982573 -1.615444685061218 -0.01932852512528284
Ni 7.023835432869167 1.548563377132208 4.915745994703269 1.2598482623395721 -1.2615616454862533 -0.325305227937272
Ni 7.478862354129301 2.2241088071613624 11.944909948581419 -0.3902350958414376 0.23494586421640828 -0.6690059276625961
Ni 8.225104291695397 0.08019248898890859 7.40620154237825 -1.3263657864458318 -1.430586738640136 0.35340841393139133
Ni 1.895655009556918 4.327251518658487 13.281548878433473 1.0434655058373319 0.3423125611285459 1.438226257463265
Ni 9.261740479956861 2.990832996650174 4.887941406883823 -1.0682257435011475 1.1601493663853375 0.29186983109696185
Ni 4.137774549723713 3.0701890424831215 3.133029255372173 -1.9954467903207374 1.6444194750270131 0.3917430478455318
Ni 0.7420016226475606 3.01257867428807 11.848686708346557 -1.2450682758169203 -0.6117495171432883 -0.1774292580571783
Ni 5.593084198156007 6.353823254147366 7.101483548465245 -0.6030327060955808 0.07810085806848485 -1.0776429230499893
Ni 2.035895263941767 8.794706403359774 4.364564076641067 -0.267634612698681 1.5776546107966376 0.5120596200501182
P 4.451574453449186 1.717327542006459 6.769863808904445 -0.08285405648275408 0.07026747806699511 0.8701464132937854
Ni 0.39197552261285123 0.28037076595210253 10.116921991470665 0.03750442470336121 -0.22076854427476172 -0.598050422389641
P 8.769981992101421 3.903745685679239 8.228601306521643 -0.4504243637368243 -0.25867431818159964 -0.8905915685220146
Ni 7.384732527305722 5.042193697995992 6.715995763010265 0.7371177928391693 -1.8594212920213269 0.34722748193166003
P 0.13542355912179882 0.8132201002244948 12.252543965933398 0.028534874214899246 0.13197986747512752 0.905558217134176
P 7.196823312908032 6.661813244000118 5.20540155634911 -0.7897130504373818 0.03769545766824475 0.1900448899386598
P 0.5514327587881357 1.2039432636247818 5.720517742389989 0.6079139454472821 -2.1767818111902253 -0.7169929970648361
Ni 1.4148154709479857 6.613756956395762 1.1439176312340706 0.6717958317029076 0.2162187201205502 -0.46068100846782595
