# total energy = -340853.6342661988 ev
CRYSTAL
PRIMVEC
9.42851114516728 0.00000000000000 0.00000000000000
0.00000000000000 9.42851114516728 0.00000000000000
0.00000000000000 0.00000000000000 13.79957910946498
PRIMCOORD
 96 1
Ni 6.609273202831282 7.004356107272213 8.91241711693208 -2.4236020582467166 0.061954587325925556 0.6837105808626225
Ni 8.92687668169476 1.0259257312154768 7.840217195641771 0.9112020456835145 0.5655285385025357 0.4660340452496232
Ni 8.252577846840405 9.038274541417682 3.9665369440536917 0.6467080354963443 0.02618051505010975 -1.4744497585716736
Ni 1.1904249659667099 3.7054048981048093 3.8262095834430982 0.6812019555081559 -1.7162769232889472 0.2868759774267962
Ni 7.747492502332836 6.432394332886126 6.784646339539218 -0.9193010206415652 -0.4618763143275077 0.6872738727338485
Ni 1.5274942410487633 0.27790065310226514 5.279346813834319 -2.347811850589279 -1.9410561313849992 -0.17391224604285532
Ni 8.420197918795894 2.7944598608648743 5.3016744711859785 0.9222081669860311 0.03884216967817826 -0.081800161296943
Ni 3.0279097979566685 1.711491636943204 5.670233087944089 2.56198834346882 2.971575104363992 -1.893851191564422
Ni 3.6435538646911514 1.8494118986467083 9.43339233135002 -0.23075342340161548 1.1780540145799 1.9971702007697476
Ni 1.4387059511621143 6.290646095639032 12.626546216442021 -0.061032075511656174 1.8181944241610557 0.23602084244814192
Ni 8.725427111585581 3.5610355347465883 8.18092870459695 2.5357306953238714 -0.6096841499738274 1.4434815923249333
Ni 1.1502406512702144 5.918813899795371 3.233614455166394 -0.16776293861200786 0.8858432552037518 1.1760195006483745
Ni 2.900153471317177 0.7493808980224927 7.607404625906497 -0.7045378020206189 -0.9735358707257299 0.6749310348977796
Ni 4.600321466319863 2.2885448073724883 1.6922697311778958 2.348231968845833 -0.25957626117057875 3.147513893918573
Ni 6.8112601980783545 1.6412115145246973 6.771949906369274 2.80568264330182 -2.11880600600639 0.5562915932853001
Ni 6.368120172096354 6.197935545096883 2.4495630357919644 -0.7395564841876489 0.7757540171541285 0.17525976120968526
Ni 4.344327958970133 2.619956975739878 11.76495566388305 -0.7865148552150583 0.5122920477758983 -0.059996949378922484
Ni 3.1527621431492996 4.560382292914336 4.796416584923612 0.28543333144299876 1.1945304149683686 -0.740696254219047
Ni 1.5714122461769366 5.438827252078526 10.202719244797297 -1.404225475037788 -1.6345713785883398 0.9267857590543845
Ni 8.964138157922013 6.910325565163308 0.15456346965804518 -1.0691811654358812 -0.187148028006839 0.7197191377467476
Ni 1.625249045078154 3.2789721939534497 8.590569230316948 -0.6923042360689045 -0.03531281636868112 1.367125227751381
Ni 8.157019885918542 8.81208455794304 6.139777659516782 1.5616980874673814 2.968361996743333 3.4856643532496294
Ni 7.460620620832232 8.942490296227232 10.874813693735174 1.0906766163054957 -1.324298619504158 0.8821940884869387
Ni 7.0091740764908685 3.8073931036590065 7.0546487288166935 -2.153775322992723 2.472634281084019 -1.5267053734422804
P 7.617501618541053 1.621251356333125 12.824321495740023 -0.19843157134045825 -0.6500877506018546 -0.7778270976330733
P 4.174369616239249 1.733092356082029 13.701643519221353 1.4554084256695063 -0.94084095159587 -3.8475898035130958
P 7.381458840871704 5.144289990979555 8.851353364202879 -0.021082788812228206 -1.6550617852322076 -0.208800316169292
P 6.7213404868487725 7.913632298031322 5.29110322443851 -2.392505336841912 0.15966473498490566 -0.6882007554234922
P 3.7311258766341475 9.356335937938466 10.348608484159525 0.05076077549263516 0.16446061371165227 -0.22329516735135738
P 3.6724899655366565 2.6646009762297664 3.717523363538738 -0.7848181842389258 0.06269789324985331 0.5870954660400342
P 8.52932350732176 6.577197407759138 2.382911004479795 0.29575425375303255 -0.8915968698580775 -1.6709509456586382
P 1.3984744939096634 8.207415278235006 0.0761295707614694 0.5731950539088579 0.6288532667031105 0.16581327108480476
Ni 5.547877412514864 6.394623717054555 4.639942898898249 -1.6412469908363025 -3.468529750451872 1.5554580200949406
Ni 4.985183864629634 4.376611181288482 2.969986682305226 0.6632607976487028 -1.0010158213135534 1.0398253379815834
Ni 8.223274034058447 8.37261222281438 8.630091663527828 1.4508066652314369 2.451891392109713 -0.5248847968392444
Ni 4.99375438130235 7.755733021113863 11.102148298468416 1.4601094306896016 -1.0723402798901531 -0.7321031132333972
Ni 7.740392833405933 2.6384462861856375 1.015070686281156 0.11577369002891029 0.37563585787102405 -1.538975706169201
Ni 9.185821313047306 0.739447018631543 0.5217785235714228 -0.1967233304000999 -1.3105115930223947 0.30093245551986236
Ni 1.383982872208933 5.299926425211147 1.0593978887950237 -0.874360965595765 0.2543386669207233 -0.8734356255680183
Ni 3.1543272760070233 3.9639535319873285 1.5826321744943532 -1.638105102773211 -0.06374844600155473 0.23894290119094336
Ni 3.0660764112582672 3.893051127830208 7.049032164700152 1.1729105227057477 0.8001170193795253 -0.22979208792961067
Ni 0.10444433271948098 8.224660025203539 12.110317314557681 -0.36675423911067806 0.6484463583436898 -1.3143844457142395
Ni 4.554329188729646 8.12487809126806 8.218877519290034 0.1704505127465 1.6076573278063153 0.09390182965648344
Ni 9.058583554523326 1.7471408377567774 2.9645219172188604 0.5234359802078599 -0.4435235228519329 -0.24778261096976034
Ni 5.184502591209623 3.4892939930934594 5.650030617014905 -0.5893768058750429 1.6760594705297973 -0.22597914194142374
Ni 2.4451806637903384 7.750330484201359 11.044783350679486 -1.3357518556464223 1.6104572591489552 1.2706975463492503
Ni 6.614468312497582 3.6200203007581497 11.997409007341945 1.4839672111438056 -1.8347407585555113 -0.2299998330650426
Ni 4.655035116761853 9.178401074739906 1.406729155457477 0.21019051164859928 2.766196155171423 0.5588524120339408
Ni 6.079551158581352 1.2923094578978054 10.969755030025139 -1.2640561297733326 0.09628987027268579 0.5952774876301942
Ni 3.097954207595398 6.639095583728752 9.355134745612718 3.0725009307467923 -0.7483897662085627 -3.6987923502599975
Ni 3.9411082493712777 9.092856192702998 12.595455700789346 0.06869576270450105 1.2395152072091749 1.654290711394138
Ni 0.4613398811341927 7.501719501114265 6.428879383914082 0.9922689283588588 -1.3790926845259024 -1.3489128185084125
Ni 9.23748955437457 4.260046497432834 13.08169722283037 -3.4308427774240586 2.6814541376373366 0.03603555346731859
Ni 4.851940144476919 5.988952594546011 7.046961663642585 1.200277601864791 -1.5715718949376676 1.0710033062462847
Ni 6.496244210672298 8.939284602422255 13.466305994189101 0.7643195500649418 0.9871066674316289 -2.1117938363546145
Ni 1.9528238093907633 4.230327830158466 12.439258270141883 2.8159940525301566 -2.458765236411411 -0.9890113406535096
P 9.46547095497552 4.1024017903175345 10.999120128129839 -0.6205581165738538 -1.324252596757571 -1.1374634947520477
P 1.8703997645581112 2.5864763325002587 10.634687427868956 0.8616239776450709 -0.16978819657215274 1.393732288815948
P 6.324664164016545 0.10675903221689759 9.07718412140114 -0.11640258186216083 -0.20195244000952312 -0.8664000588774756
P 5.4607673976202316 4.553471194211255 0.7828945410512804 -3.541910834447184 -1.5199140615520599 0.7971628218472078
P 0.6249575500890574 3.23832588220859 0.8493947733332728 0.9454938769868491 -1.169232045412896 2.754498664228837
P 1.0735962837977107 2.1527931032429386 6.790800328793654 -0.027806223578990825 -0.058077106648390296 -0.6997352384256529
P 4.172983625094156 9.03552141614988 6.121852174040251 -0.1847057371139335 0.6381238933717591 -0.21193063426815759
P 4.285739190428598 4.401530736366576 8.94347934705118 -0.3081294874889339 -0.00559754869243552 -1.261425634129021
Ni 5.029328154026395 7.327631470481678 0.42356549389814413 1.5579339924392588 -0.9328602473832386 -0.1940208438672723
Ni 6.925411183069079 2.867719392819771 3.134864000355222 -1.1459692182302132 -0.4046049914098645 0.6687668150685966
Ni 8.111046465350707 2.212579292705744 10.223487426397948 1.5321296297816454 0.03852103889333365 0.818925667445596
Ni 5.28674536656598 8.417793648442162 3.686833559611687 -0.2199830722589889 1.5191851538058352 -0.4579947198849145
Ni 1.5026029715042424 8.445324901120193 8.132699041301082 -0.052042213308220044 0.15055351671225684 2.087295079882302
Ni 0.5123264411023387 8.18879396863257 2.1665889008177652 -0.6873378932025647 0.30663901898633644 -0.7652526034021724
Ni 4.928160228945823 2.0323533012877455 7.637073322071551 -1.8968526973949074 -0.2149221127963137 -1.7196147294129287
Ni 5.98715174890851 3.01257903875993 9.257240399617698 0.8449208059577771 1.8061212950466055 1.3143386800779686
Ni 1.9227280016687516 0.5456486853539468 2.660669287063075 0.5452898428581576 0.5319830984469225 0.9224151407905146
Ni 7.94454838622696 6.419571557666222 4.426532319492033 1.751552715772106 -1.0026818961620667 -0.03420030003079271
Ni 8.503329101967879 6.020726677260039 10.764527455481682 -1.6214014168652853 0.06137531778368785 3.2197714058324034
Ni 8.717356306005994 4.226150999700805 2.6664508501254613 0.2622527795614774 1.4749632078729824 -0.5764930079338394
Ni 7.23612776937199 8.350134652134782 1.7346895458778022 0.1694084446352308 0.570857406914617 0.5065582306159148
Ni 2.9492383005780773 7.651293402649977 1.9754371506315127 -0.9515817350521417 0.029966978675735483 -0.6869779387599846
Ni 3.0457768266638157 7.102789764107364 6.35080093988941 -1.0970143855980656 0.5134025072312578 -0.3080526115044114
Ni 0.6679223327358101 2.1482674178712076 12.739826949849805 -0.809500003256322 0.7917501354720687 -0.5516008726778501
Ni 7.240427170475134 5.245957627153254 0.5823755649966637 3.7068633001935902 0.3141690088147944 -1.5304363012396223
Ni 5.711160369322443 1.499048422785195 4.883767969704737 -1.3133552331187768 -2.1921523801090244 -1.8746815606145069
Ni 3.6812490524331944 5.686740525337478 0.00788506390912227 -2.6751310236327868 -1.1302116982856407 -0.13787206458984644
Ni 5.551488532301057 5.479322707644329 12.517846796621994 0.05022110093908125 1.27155295237101 -0.7433054097071198
Ni 9.2841041137034 6.412132462336439 8.87718654201539 1.6476055860644785 -0.1967680675951063 -3.512436222026835
Ni 0.2587296612973885 5.136162614332821 5.814770278801512 0.4736841055957132 -0.6112486662474698 0.13985129980340433
Ni 2.3908252967736106 0.971004653527282 0.3141240502473768 -2.416107292531568 -1.228316253169562 1.0839732361433911
Ni 1.7564562068135907 0.5403706047891655 11.731409021065094 0.9380047676986555 -0.42032548746891485 -1.138202172690285
P 1.6214870691129026 5.8512869026446666 7.595260703492351 0.14532749242662713 -0.34250487964501014 0.0750183624884192
P 3.6164846090614846 5.9916585772578586 11.520496054273401 -0.621226346285472 -0.8536479014181299 0.4651845527651343
P 1.5750233659631305 7.906381772925361 4.030333079326075 0.368251649591811 0.9949837561868605 0.8272827811610397
P 6.70666029492422 0.7804629280150941 2.925524652081325 -0.43048237339725864 -0.9826026089136883 -0.41134745234002057
P 7.181112406571884 6.935179120663066 12.421428955479499 0.38765370826750656 1.1682768805884782 0.14931835875357508
P 7.006760377625945 4.433889386774453 4.596556661801254 -0.33548371113217057 0.11661649764517981 1.0522247400872007
P 0.3747069489058308 0.18094727252411819 10.080220255997968 -1.4907747209839421 -0.974327770499406 -0.7966267468380797
P 4.035600788528545 6.2317273292058095 3.027062174800588 -0.08088973366753166 0.7083180949986575 0.6934774304413992
