# total energy = -381175.9017503304 ev
CRYSTAL
PRIMVEC
9.17144567096329 0.00000000000000 0.00000000000000
0.00000000000000 9.17144567096329 0.00000000000000
0.00000000000000 0.00000000000000 13.42333780339494
PRIMCOORD
 96 1
Ni 8.829506372389252 9.152524678325005 0.8298323770887807 2.4343418132617236 -0.4135241482763652 -0.5908623892816339
Ni 1.2499029179311802 3.256541793351256 8.01169225731348 -0.7264695690967037 -0.41616672810553484 0.550435134504523
Ni 9.064359573982006 5.471134021093514 1.4433305350761603 0.44058398060763476 -0.5601191945615063 1.8949711641014784
Ni 4.292456547906713 4.890031242442484 12.841664289749712 2.367664880759464 0.1277653151731477 1.274486323967721
Ni 1.1630126444946296 8.79515930947814 3.2515085041321323 -0.860822564789698 0.5437410103137991 -0.5062684672896377
Ni 4.927157253300745 5.513276812569232 10.701392869564252 0.26140354418730466 0.10629171868040405 -0.02477566428278314
Ni 2.4827469474739305 5.0175785332047935 0.9615563440726433 -1.909165453323989 -0.15498738411389437 -1.0858295726258398
Ni 6.350813203768917 3.0517067324549165 2.9885448224799496 0.9153212100582108 -0.17746011129511374 1.048328747466904
Ni 0.3501868785556692 8.718467683293166 7.868840575662048 1.5517728579338694 0.5613456107694398 -2.1825989320926347
Ni 3.4390535562167153 3.1146962192569254 8.477240327168177 0.07316845376387399 -1.1471056458275017 0.4725466495571603
Ni 0.773157430424102 6.70805934382597 6.5384004445022015 0.08055034805024193 -1.5217973946177017 -0.0040245477783608105
Ni 6.408712538390506 2.2869365888217925 7.1013887014026995 1.1412021358588733 0.2071877202665335 0.15671902209302044
Ni 5.917535781593539 8.62440533957718 10.762161032297616 -0.09136337950534588 0.7176954224484995 -0.8158606553670271
Ni 7.084638890723244 6.563113821196537 11.223923129503522 0.22694999049512526 -0.12845539926163682 2.1586619616610627
Ni 5.101102886190509 2.012728715145838 5.145527533274313 0.69545049500737 -1.664376120654598 -0.8230481742544019
Ni 5.606477040420428 7.6803426104035095 2.2129844733688753 -0.7468717869021394 -0.4044736080383227 -0.887685193508497
Ni 1.7659067773450725 2.661168245704315 10.798094755257761 0.4049724020516123 0.3741428182652653 -1.020953440777745
Ni 7.755099061615387 1.9672383461100251 4.914297052602758 -1.3596805985478777 0.18103523024088178 -1.1551632260246558
Ni 6.892763082134889 0.7207031829187542 1.5277903754896285 -1.6873427567531005 -0.25961122817357224 2.060342719663174
Ni 1.0427199670200888 1.2021838876704274 12.395337735101723 -0.4070470251924538 -1.6424708359410747 0.4715729727899814
Ni 4.35899538406696 7.927421348674638 12.333482756091998 -0.109350817221702 -1.1364183413169848 0.9108780866851925
Ni 2.8324449879913725 1.4172817959359354 3.509303159173714 0.7320156957259135 0.31484263784305133 -0.3084567889213656
Ni 7.987393429949876 2.8033623347227103 8.761667025275521 0.939425302195266 -0.2549181935732771 -1.5201107509438982
Ni 8.266049454630341 8.946708272774062 11.709056820946117 0.8232710888984853 -0.11197437088747811 -1.0550079592592927
P 3.9752712812263598 2.5594752594403842 1.8767170974514427 -1.1667743279010228 -0.5035955484431649 0.6474246019473947
Ni 1.9790786820828548 8.282897399775258 5.381576691343332 1.0395399455306806 0.8902845788045571 0.7720094625100317
P 4.461376228733649 8.420615823453033 5.5724170437494 -1.0439180199937184 -0.4593198664542412 -0.24019117177574761
Ni 9.083417837461123 5.37437527243871 8.55606248011263 -0.7402175148104155 -1.0170710750042031 -0.19956079984889502
P 2.1609667866631455 5.300774423343468 7.892842248195661 0.1702527949133971 0.30658014072394296 -0.7306905491565868
P 1.4031027413937245 7.111667140228998 1.9269472694545353 -2.075970656008418 -0.5016106568026523 0.5085852883482724
P 4.640531242593643 1.2638435148937681 9.623821410137692 -0.27741611756547707 0.03425172209401843 1.0561197042662327
Ni 3.493669513395801 8.239736577863455 3.511491466039025 0.5844369453712644 -0.702114537291107 0.2814188109669669
Ni 5.948727867297329 4.71308654691669 4.698530545969768 0.3729457126333706 -0.050550202143725846 1.4878981707670955
Ni 7.946938184422262 7.865807578678148 2.5146745830964052 0.7489836910388198 -0.8553535712553268 -1.28082615014282
Ni 5.226513230181578 1.1937369864845435 12.468159928485042 1.2184072215859663 -0.09468370212783048 -0.3542159974343513
Ni 5.53610454009547 8.074146131705875 8.435479984964394 0.018626356851935665 -0.11796349859137747 0.17300541795786978
Ni -0.004809505952092799 1.7923205400110283 2.585187406535526 -2.3834051743128564 0.10791125656169802 -0.9390887447914537
Ni 6.565342482421476 5.5663519669261365 2.7206826718555837 1.6679730939772368 -0.2810028064754709 -1.9388043592363449
Ni 4.0659860473822516 3.6503086288721414 3.8427659070969624 -1.7581637933307204 -0.38204536094179364 1.1947564149362455
Ni 0.8926347664052388 2.2176188047143985 4.566203097880551 0.04736871909195067 0.1731936227092759 1.292988496536967
Ni 8.4367117100776 7.571716011439765 9.478715387214283 -1.304713755393695 0.12428018483802465 1.4021552227723206
Ni 4.441666792633254 1.0779108029052529 7.500571275414644 -0.8412379577895511 -0.6302370344245146 -0.9554880120850834
Ni 0.6595929252730839 3.1364692305655986 0.24738047882380604 1.0469832891826032 0.5063029200719991 0.010136574213369639
Ni 3.2559273065114582 2.4314235391827195 13.083324538096173 -0.6050438229883387 -0.5934733445419198 2.43766265010484
Ni 5.481085039320098 6.670007016985326 6.574388278990029 2.162386718810818 -0.15556922475929338 -0.29761804643464873
Ni 3.3048844818971777 7.164879866266455 1.2376984755771567 3.3775993447188863 -0.18207858390373155 0.10565845597177931
Ni 1.7475088579326048 1.1150459852088834 1.2862374330539987 1.4619107455643983 -0.13960113146581118 -0.22827025196844558
Ni 1.5827896990851855 3.577001266028744 2.510285129342264 0.5246605966435803 -0.4496244935433482 1.1377249759435504
Ni 8.846143374290657 3.968236782627475 6.431979578149973 0.04536017330235414 0.16718726861419594 -0.4815912762579319
Ni 7.721522400115364 4.275003287367368 10.39223995473905 0.7044110466347676 0.8155171559846794 -0.044521222340826554
Ni 4.478701089037813 4.831544935317207 2.000117977761918 1.1352698295348385 0.35635798347801856 -1.228992196190664
Ni 0.37634934361848366 5.8467322233361845 10.974074614730617 -0.30114765685446204 0.9223500918805342 0.531340322656601
Ni 8.688898943419888 7.046870878689074 13.310863512006254 -0.7219161453980664 -0.05187586293368485 -0.9604245301547524
Ni 5.779982443932425 2.779470719533539 0.8299855402264616 -0.003526010875387476 0.359078210622659 -1.704065725934736
Ni 0.18881896584649302 6.629148227861426 3.9246614113849443 0.36283150701750416 -0.029602910468097404 0.7075565342422847
Ni 4.137073920446079 3.079156868447696 11.155370243939998 0.7631700098415307 -0.2528014043405904 -1.5827423097321904
P 8.823599961570892 2.3434051779656433 11.127463369967785 -1.575767935296886 0.8136273951611342 0.6196402327452748
Ni 2.632920193964334 6.316493655193914 12.016262637919239 -0.11166095341211738 0.3582253757040605 -0.8011518884019428
P 1.2530487236931327 8.055335497251752 11.298355828693834 -0.519897370926982 0.061561208542248815 -1.860451018837422
Ni 7.7931330455652885 1.7101810752762017 13.241196295830257 0.24759234933582525 2.1206515438555607 -2.4103917302040294
P 1.8482571853234122 4.398469284939972 4.680570104501454 -0.21015862996939932 -0.9435030718090655 0.08637286826928996
P 7.788308865300604 5.668760325928936 5.469687684158646 0.6468520172733764 0.1118357884270848 1.0326283060125119
P 6.658854539415256 6.251789108107692 9.215040918545915 -0.6443552189934516 -0.5337975259478419 -1.252929937953184
Ni 6.42453328165397 0.018773948672642947 6.080195033810828 -0.8857352688709779 0.47863450762245313 -0.6338813160453212
Ni 8.789821528272727 4.308708349102572 4.059257875058729 -0.29437511401731886 -0.6900437221695019 -0.9624826982353618
Ni 7.656377623651377 7.455183626566975 7.103643959819213 0.17934704390518144 -2.58157475024118 0.27743154418444477
Ni 4.4944576321836855 5.206042564115463 8.377518284514286 -1.5045028692033122 2.820969137147245 -1.288602194543813
Ni 6.85429804025259 4.813357959148251 7.490557891359542 -0.10220160777143043 0.15521955472935847 0.3731110345666413
Ni 5.205327191376593 0.6112282252582742 3.090159851458233 0.4312231082180251 1.2704144678911928 1.7093663122120433
Ni 3.7794517511288515 7.4065566232145805 9.776981796385144 -0.0319428714551837 -0.7600484334934136 1.6135091586014016
Ni 3.7600082869441893 5.968694103868088 5.55985216359233 -2.5111393791377528 -1.56455792551368 -1.5966473498490568
Ni 8.769616834122345 8.725282067203167 5.5231397849202635 0.5865588768102736 0.06225797749895729 -1.3633439063320778
Ni 6.355444783680829 3.7190852977026982 12.05086833558979 -1.5415884612016997 -0.5833773937584986 0.5921466553106963
Ni 6.560848474190116 8.353939415612235 13.104157476254409 -0.2298242267191268 -0.25888797685430254 1.005669260925165
Ni 5.537471085455618 3.586741341011815 9.285338213018838 1.987980820960996 -1.481371168281855 0.23438716349946084
Ni 2.677438389790914 5.828802047637594 3.3219406188519964 -0.24885887475307464 0.3008488946671206 -0.17692429339630175
Ni 3.189966271409529 0.506932382798303 11.491021298728558 -0.5293382046249078 0.07851069191239382 -1.0736248030295317
Ni 2.7914302842961796 2.5792947528852217 5.863648954321378 -0.418722404647853 -0.2398301888919031 0.5272301571429695
Ni 1.770382442685693 8.01964023187123 13.32564237907567 -0.6233953289123327 2.1042391639358082 0.38003295849745516
Ni 6.646922488988726 7.124488820856429 4.417741243096213 -0.5310122498932209 0.9989239717815313 0.7718729369321674
Ni 2.2998499839029263 4.869560576376369 10.00407778948385 0.9226827926296045 0.23443781423173818 -0.20828918086082837
Ni 6.648050576769251 1.836902935955199 10.435141224746877 0.3469490314592928 -0.9693076915769953 0.907264144081689
Ni 8.318335864685414 4.702548556186419 12.745955671589787 -0.3445885016469162 0.20728490796603014 -0.10074636338214261
Ni 4.224560337831688 0.2854337228089857 1.0362495123114668 -0.4951512743305536 0.2884636336288903 -0.5851961921347922
Ni 8.938509000613172 1.586412420006384 6.778436429873613 0.12808001820008907 0.33662528093578153 1.1787178734161443
Ni 2.5709212232622987 0.07007534549496615 9.087022215491581 0.10622049912283642 1.3661595214040019 -0.15537562069124852
Ni 1.4113295278907252 7.125626080082325 8.963621335181108 2.182115307587997 -1.0892900203706142 1.5328037730305344
Ni 4.697825261820805 3.71993824212212 6.471391113194468 -0.005548954842687218 1.7590351401920803 0.8517360291073975
P 6.332516170255519 6.341935244650636 0.5186846728955794 -0.024234704177648586 -0.3219234559492327 0.002992764079736781
Ni 0.18921884086463042 0.9175022233817918 9.68343488789896 0.3576869867020872 0.0915245876735585 0.2981394661557575
P 8.02767441801546 3.4741801919842885 1.4201084353990077 -0.9314834216403699 -0.4170938679054946 0.5920432969636127
Ni 3.457478989965294 7.406721709231243 7.402877039332087 -1.5499841414645628 0.8017733240360256 0.172787902630425
P 7.3382476980979 0.044650264639909586 3.9180570535739183 -0.7097720538363648 1.6600206718993797 0.2342598938929772
P 2.3453403529387393 4.199513120525881 12.306072974458846 -1.2902759827018102 0.12002629465767717 -0.7120994164179607
P 1.8212472787083982 1.0569448787891504 7.291275223490275 0.8546783995651732 0.7495009969948704 -0.42113461363377147
Ni 7.401026241656396 0.20512763000364675 8.300669826613483 -0.5320977696479159 2.6305272688804826 1.011482525172832
