# total energy = -340890.08248234336 ev
CRYSTAL
PRIMVEC
9.12708991453379 0.00000000000000 0.00000000000000

0.00000000000000 9.12708991453379 0.00000000000000

0.00000000000000 0.00000000000000 13.35841867031046

PRIMCOORD
 96 1
Ni 6.312048830353913 2.2037997065107584 11.37520055099196 1.0434428801295128 0.39041173062861795 -0.21235126674534396
Ni 4.9099270508503325 0.777170778355651 5.716561900293416 -0.6897606437114443 -1.4616965726710631 1.6890623105473683
Ni 3.0476721693698665 1.932478709913247 4.649437171643149 -0.9560251155354761 -0.19091803657223247 0.7379300043278194
Ni 3.688494266860628 4.522354312278774 4.747728626433674 -0.5876299983872654 -0.21051986996356 0.07927868042666991
Ni 3.8463564109434674 2.8761376448617213 2.4680344306368363 0.3373765572795093 -0.8180466072747523 0.32757191248426165
Ni 5.28379090063764 4.693377719761675 2.6062678555323164 0.2749712555694103 -0.8214695169133722 -1.307799079187238
Ni 5.432452938266067 4.821102213534527 11.492047379216826 -1.3664282016843563 -1.9715967231760176 -0.2807336119744842
Ni 5.5818633972528895 7.9562119025802485 12.650862851360168 0.09135772307839105 -0.44251719307460563 -0.05149199723170487
Ni 1.6893421664221073 6.810296659070505 0.33233467877716977 0.9701150179696391 -0.5329045818199274 -0.7504196521543979
Ni 2.848573833857433 1.5614990204826806 0.3671426609053337 -0.08661275219423793 -0.43982216274094577 0.09114380729537207
Ni 7.850857905751606 8.996097744620847 6.922453075879776 -0.5020204906465612 -0.36588134958742147 -0.420313917504689
Ni 8.776390440483352 2.2186403544223388 1.2319015559174928 0.8586057596440374 0.7741069684690088 0.038809259557713804
Ni 6.953245138523871 0.7607757870619413 4.589912117799517 1.3029612914789626 -0.531490217970904 0.11735440425246886
Ni 1.0544800585292928 7.510992465232834 2.594659110096438 0.0782425258526717 0.771596286232013 -0.10747828278933748
Ni 7.783144026996368 4.075720176022199 3.5844244515579136 1.4409061182882732 -0.8779805646262233 0.4536140743187156
Ni 7.859966741308652 4.075163423548272 12.503720474172871 0.10508021487080613 -0.9350487703941253 0.10071910968863299
Ni 7.914272925240942 7.6457448181028065 9.091552499921262 0.6265493011602822 -0.7008564965142897 -0.5713986241300675
Ni 7.083087117115596 0.6744399071172835 0.052724459280951465 -0.38060760005400257 0.4153005234504976 -0.12517287185562312
Ni 2.0808212994008963 6.536392696077559 9.166840950448837 0.46822411092240657 0.9033013027791991 0.2741001658183666
Ni 0.14942049878553232 5.118042951022447 1.1622755518624548 0.4497587051283674 -0.8608948127885303 0.8100635890692759
Ni 6.6057950864340516 2.193586493095593 6.831334600913182 0.3766540147228932 -0.20854654828727306 0.6044262440089977
Ni 3.4392243190665477 4.303924800704393 0.4960983990836423 0.1819500287456673 0.6155719762131721 -0.4110155229218986
Ni 6.3715026928976 5.683183220417991 4.337118200658167 -1.2489329009786492 1.00491181393385 2.9154553785522888
Ni 5.41820555118736 2.9589842384001077 8.862308299718077 0.10118910734651605 1.4601911917701305 0.4336661704418789
P 0.3445622408971848 5.665221107816522 12.350592551536366 -0.19879641087904473 0.7164317252447273 -0.5404708242029596
P 3.956529511152993 6.086993051630818 12.664862894307015 0.5306638654148668 0.6949740695915837 0.3087347251731005
P 2.678682185501861 8.486577960079654 1.2435805799443431 -0.9645951165926742 2.011481475186097 1.401749759803786
P 6.653347223961318 7.702131978495022 5.427659390736447 -1.509638904878297 1.533772821812023 1.9432829638329885
P 4.904834134777356 1.3622637786241991 12.746335860840055 -0.716934633023075 -1.029407227972053 0.08434118255124184
P 4.138176851089201 6.2479127707753905 8.185397689409118 -0.46902398111588256 2.3101235920098855 0.32191831374291013
P 4.902817047945585 1.2480473776613956 3.7039153976794514 0.2273281997701504 -0.05897313610009844 -2.4542982017789923
P 0.5244900371270331 5.694071838473659 3.61794095048836 0.20112505901222136 -1.453373911737981 -0.336728125062233
Ni 0.5703198928210178 -0.023879204877655633 4.539350778786121 0.13458645186003917 0.172306077898 0.6903247437450305
Ni 2.2835157082695186 6.667631119398971 4.838312253941708 -0.6617446181144926 -0.5113700501822612 -1.133639750130583
Ni 6.095800693226559 5.8737568541165155 8.981158524140112 1.3236339893369655 -1.1684835972826457 0.7447858509073882
Ni 8.708284096869445 2.2631896794262896 9.970162666317563 -0.5056742853490646 0.7599820990318524 0.5391197094917038
Ni 2.565697941653488 5.561126649371518 6.894306043841325 -0.7442639169656473 -0.6485926541135669 -0.11456809975658333
Ni 0.6667612865219499 9.119760683460948 8.948376755933456 0.5637958720821452 0.036159223529376436 0.38046027584286085
Ni 1.5702518995400025 1.385565238721533 11.265474678179524 -0.5314750484622525 0.21157710758348078 0.9651535601993055
Ni 4.306891104868762 6.987982842061064 1.4883152768483472 0.012622059639384715 -0.146766795976315 -0.6468263062417634
Ni 5.6370184005306765 8.021689644350039 7.860947903455328 0.09996680490364074 0.47720960225046843 0.10637605086409421
Ni 5.622816648900652 3.1099006671934557 4.741984948862482 -0.2590520132359926 -0.17022734099210038 -0.4571210590307095
Ni 0.5767700071378161 7.62027111064818 6.530703781044787 1.039496236776939 0.1566197775109948 0.4362169618881907
Ni 5.0859155951499 4.911642943720799 6.881643119540877 0.8886002491235987 -0.07674845780564847 -1.0880209238502037
Ni 1.0064624394254642 7.717684539406052 11.188116203699707 -0.42845788676806207 -0.42060496638254663 0.3277493186023904
Ni 4.602745718678038 0.2503378172932534 10.718354022050791 1.2311390673303377 0.37371524380954346 -0.03283247314898862
Ni 8.399651557429042 7.093975735171264 4.538990258741529 0.9153446070969784 0.4914357731521794 -0.38056337707962845
Ni 7.531391510793955 6.213357609032929 6.8170014191909525 -0.7062041339794483 0.6259466345792769 0.6462238967710742
Ni 2.442144527890225 5.381651556792601 2.5076688178176716 0.23757610275040375 -0.23872075787780822 0.13679271548273864
Ni 2.5164299112557567 5.338772489210433 11.218279409860957 -1.1643808879681818 -0.611378764067431 0.6497761328987067
Ni 1.1682583591847433 3.540033025206404 3.6756488007654506 -0.2517840188196696 -0.26653469476628294 0.7994562458670749
Ni 1.7225191376143554 1.110894600190719 2.8120809909639077 -0.2050879003147113 0.42901555904374505 -2.020282618417495
Ni 1.1769929840625921 3.0274921739624223 8.311581530434447 0.5400576479249409 0.7240169937911531 -0.30737692559362545
Ni 3.93686975986053 2.9175655051757827 6.804577624641602 -0.738064987243787 -0.7814634088340798 0.31496836478763823
Ni 4.437098167049948 7.434671740856059 5.8490105757138915 -0.10695094953095775 -0.7953453090224948 -0.593229861072546
Ni 0.3156311918503657 0.25187390649590957 13.308925108654241 1.5598018988859332 -0.054575778363351174 -0.49083413501243844
P 0.3921910459782375 6.114146143596963 8.004110869517502 -1.1080148504736271 -1.2882754073320135 0.34574678362107547
P 8.606243233615158 1.5778730194699961 7.904724163958596 -0.8067463517705848 0.7440042355463574 0.06101407778952718
P 2.036682693435089 3.2713315033632737 10.328782450826935 -0.6588148460622072 1.505836757523387 -0.0347973101848433
P 4.267069612348328 6.267490378260225 3.607254041115869 -0.6924554169347882 0.9913389603454217 0.765739827451236
P 6.997858353155978 3.9093972197536067 10.062923104727755 0.24178037063973845 1.0111130576485554 0.29184360584471675
P 6.292087885100145 7.8256671380788125 10.436959456511083 0.045244730770412404 0.5575635180191881 -0.05822211686668683
P 2.470100803753184 8.609784544432928 5.733339316647086 0.14242728806069663 0.9697668906016007 0.27007921758443165
P 7.392157756863352 3.9842758639520115 1.371989605447434 -1.063444262952104 0.2517354249699213 0.5494195487558151
Ni 5.58012925020295 3.2550852836322695 0.294250984142569 0.029965436013838713 -1.2354312669477885 0.3474678800772403
Ni 1.3614514676376488 1.1932574579730697 6.803148322388863 1.4922302224835462 -1.1585156874366564 -0.4185033466585115
Ni 6.594669164045235 0.9722084716443071 9.317563884939771 0.3518158726332909 -1.4740103570414098 -1.1671180843936868
Ni 3.316063370161955 1.8412717021762088 9.25619515896936 -0.9687140238570541 -0.6455826636426494 0.29910491539282036
Ni 6.716762243450654 2.1487268470406002 2.597183663117559 -0.4772458548050426 0.06010519282201262 -0.7751536645659682
Ni 4.404760888113459 6.70069856551438 10.441581414753655 -1.0243305847800939 1.1720988254377298 0.31280375303615165
Ni 8.32872494308655 7.293859000401038 0.22308706546692747 -0.20527919038991094 -0.150303862595296 -0.5869003193100925
Ni 8.046131990664437 4.104935990268798 8.089350585984805 -0.1508067703736435 -0.1043649339713364 0.007352069489697015
Ni 3.11746702458503 8.456714122461761 12.452517500750997 0.007742620059896342 -0.15018739162208974 -0.12367751825701925
Ni 0.01561371241226369 5.255633828800478 10.216838695208525 0.10672777777655812 -0.4443223646041445 -0.907913861850546
Ni 8.775733290022323 2.2441870785948566 5.606915433161688 -0.2711169148203266 1.2850304180321548 -0.39172762122656407
Ni 3.649740643839367 3.0408177249777406 11.735851112967707 0.5306173284476475 -0.418360393322744 0.11262074622222538
Ni 1.2186216403508572 3.619383943375704 12.858306085018702 0.28639158159121 -0.7999100455750418 -0.6103377243974263
Ni 3.1488824674581295 8.687793780410958 8.116107562256385 0.08678630165762473 -0.5981576373914667 -0.5847886722837283
Ni 5.97488500839715 7.949147535124183 3.3681781398485073 -1.4070513745223574 0.5210242854425737 0.6862981390841407
Ni 3.4210887917600834 8.497201892532962 3.490875432594484 0.1774775947966105 0.25019353440409814 0.11733794919223664
Ni 3.37772598842188 4.348291583913614 8.885606108979516 0.08051640948851295 -0.38951184452216786 0.6383882027767392
Ni 7.204294868816573 6.078504858175855 11.519765438037664 1.5474377208936254 2.286115916241379 -0.7065427482657897
Ni 8.228272193446418 8.943972935135585 2.164972154062631 -0.016596985126732706 0.3645045238445529 0.5062335002866443
Ni 5.1173219109332635 0.5422568300081417 1.5276822402999024 -0.9765756859933181 -0.4219375691510411 0.08648985346312846
Ni 6.14756041912236 5.509083983693885 0.4053249281090888 -0.2655952136711491 1.7735937547325455 -0.22104776607807736
Ni 8.038985479400743 9.090170658535152 11.056843097437294 0.2548713994957417 0.3411560789265996 0.8046712144091109
Ni 0.286753992632992 4.955042255417949 5.944856883164001 0.2627921970047151 -0.664710642721352 -0.6329608611135809
Ni 7.549545292279891 6.220056892899534 2.3986375165341847 0.6328778144814713 -0.10795342265354313 -0.5267863847373314
P 8.734095506644321 1.6492833695685238 3.453552024534936 0.10773359333325316 0.26225920731938057 0.2598914784181524
P 1.8878746223708767 3.2083637112710264 1.6545871214144152 -0.4475547554985131 -0.16168896450378606 -0.7776496915149446
P 4.781134687578308 1.0592900348204384 7.896575498241831 1.2547765042436196 -0.046904377861022445 0.23783835527285493
P 8.612467908815464 2.042067676379635 12.164643614207334 0.03167830493988738 -1.7462714127685086 0.9034784517870117
P 6.495247775545329 7.781391625766957 1.3618777027283444 0.17078527037809943 0.33447172492788846 -2.1464067984427935
P 1.8738554125355829 3.3181078382629354 6.139608898543905 0.11772644287990693 0.48940948675077 -0.8530516625950276
P 7.002230229139771 4.210846739571369 5.980630511386289 1.238979646420679 0.03370227734845164 0.07808003213287842
P 2.5913815721720534 8.959425098059512 10.241418860577944 -0.8920149312321025 -1.4560265188694796 -0.7939713114931036
