# total energy = -381160.54151108785 ev
CRYSTAL
PRIMVEC
9.32449845626308 0.00000000000000 0.00000000000000
0.00000000000000 9.32449845626308 0.00000000000000
0.00000000000000 0.00000000000000 13.64734602548519
PRIMCOORD
 96 1
Ni 0.750410441867219 4.560108564196313 2.1249599029430724 -0.8758498914364657 1.8635731094061712 -3.0241204825608756
Ni 4.101772177916688 7.1474237121586155 11.434332870096123 1.2665369872136574 -0.12478206417510769 -0.21325655216843276
Ni 5.402856714742607 1.5603149122777613 0.3661012470811435 0.6819756004493868 -0.5595226986280879 -0.7645195818908898
Ni 2.8501541042313763 5.239808538592436 6.228826363163508 -0.03414167887871539 0.44333994608621713 -0.2349407220100857
Ni 3.0421921453964673 8.775798137059052 2.2903662446970627 1.0537023530739915 0.549979277914027 -0.24536577399815163
Ni 4.066040700677328 5.760087566652089 1.28712203316772 2.3233889416602245 4.177764186617211 -1.5618968337417487
Ni 3.7012010582074795 2.2949828037735784 1.918489403408701 0.22941207888237267 0.0799116860249785 0.5477581018929921
Ni 9.336713328430065 2.3995290779927094 2.486000744831679 -0.1552720052338487 -2.6005973140902694 0.4909737459140963
Ni 3.2087370083850417 0.831366667999748 0.1560613296221305 -1.0919408277299 -0.20364242611743635 0.11708778085464351
Ni 7.649389425683274 7.068323993624822 7.184454092002214 0.8061724815449858 0.7671269376067499 -0.37846098602464495
Ni 4.50012406704579 2.3985033831867777 4.236286457015668 -0.3470850428165248 -1.0890059134712922 -0.18655024652184002
Ni 2.1176401718280156 8.059219772140573 11.004495880224216 -0.8595987196849261 0.6531031403894108 -0.1584725144490174
Ni 2.0859368778264953 3.5269168616832403 7.87525581399781 0.9349598102247445 1.586648843875448 -0.4411046289977951
Ni 6.76909152074165 3.9797331450073066 12.229754529846911 -0.2866844302412805 -0.8411795937477899 -0.15991618887407943
Ni 3.250258999028797 7.905952994639694 13.478323492609135 -1.2670121270778631 -1.4265583342070334 0.08154562208397569
Ni 2.76044310670531 2.5008584003205097 9.874632442252095 0.19635566264803603 2.0608304579328705 -1.6312934791680163
Ni 1.032399120163035 8.859457535230122 3.1573683476043435 -1.7724681257685349 0.22310156328331257 2.194710627754504
Ni 4.800009254805463 0.537070584482577 6.666646055975032 -2.725255193982687 2.4238267726630127 -3.1818540619613396
Ni 1.275395544186452 0.9203428950648381 9.570487823698334 -1.1227472715877953 -0.5640064454310544 0.7282809112738297
Ni 7.932994039523344 1.014486759052176 4.181874280010823 -1.9739958195358136 -0.8849842496375662 -1.256009348209456
Ni 3.726022872511023 4.738066613025435 3.0885721996210442 -0.1389025627368898 -0.5243813748402646 0.6135552028934593
Ni 4.811273248674239 4.411196327371526 7.775465966328731 -1.4629738967215902 1.168218259436401 1.3470809075059962
Ni 1.8689464793825608 3.4995401348631034 3.549319901144432 -0.015082862475051442 -0.037307478201206716 -0.6117945114486109
Ni 7.542316212442257 0.8175384371161437 9.36700582584852 -1.124106099608535 1.3374228155909418 0.4150922640944335
P 7.991337424984376 0.8455259185707211 1.362543237147513 0.3110692868435482 0.02204258162233623 0.09218201875189931
Ni 0.04904686071999895 6.4432096319007295 10.707353027395675 0.12272595297702736 0.4096111863752042 0.438055043538194
P 2.989238319915693 0.9600876363448616 7.867285232905899 -0.5669650138387461 -0.10653931591483587 0.5356921718673936
Ni 8.096611010065894 4.601444064875354 10.06090514615803 -1.6300598638712314 0.1404177138298356 1.0039137116866388
P 8.839148778072678 3.9492606847729044 12.56854991629451 1.5892037490868178 -1.1386626572664713 -1.1972313588392993
P 5.058074067977839 2.85435012843746 6.541555114793092 0.6731790852036793 -2.444325406836997 -1.5919707703089936
P 1.5834769658953425 5.77066154765142 0.3612002908084379 -0.8601556206296606 1.1028289353973137 1.786291147694556
Ni 0.6434724338506204 8.040169822244954 9.017865841058189 -0.24640141435151755 -0.02509422396446646 -0.9574808741453962
Ni 4.976428761425688 7.015295572158162 8.74965410890568 0.4252051841587193 -1.8925671826456758 0.3201709920345002
Ni 1.0521390829280992 1.4630510711807443 7.24796884418479 -1.5596972549872687 1.3193302197552892 0.6861682983744957
Ni 1.0365112238849967 6.723476075372404 6.75160155940087 -0.1427543323828122 -0.9755870968278038 -1.425195649531552
Ni 6.779684150737452 6.42926018254006 1.568407644296561 -1.0132229049027066 -0.37404923011019453 0.15842417770958522
Ni 5.350751418601284 0.2636119571728172 3.7368887103051325 0.5392392657887035 -0.10170075687561193 -0.9984935691123319
Ni 2.3432650556382466 2.826078249786692 5.470797806237688 2.1988470185203806 -0.36336655358536774 3.1728148345772067
Ni 5.993265294033271 3.0403738682404975 9.866963042453198 0.7912186884486309 0.9527369317025076 1.3757623346010888
Ni 1.9667977638684295 5.652315016043393 12.043700951649518 1.438292077704194 1.3554889290640333 -2.2074915815692564
Ni 7.781265804231363 8.25536059252939 13.586505388690382 -0.39136740967366795 0.7826849399460069 1.0075271400695098
Ni 3.311203919497602 1.7434573821259551 11.721882679139734 1.101673995857264 -1.2080870706068807 1.6039035171908376
Ni 6.189639226877981 8.18089514961876 5.4557042409434935 -0.011043145188039045 -0.11125908998800839 -0.09553705126706127
Ni 1.685440354103173 3.4744758836054315 12.102971192235184 -1.0910255150044823 -1.503706598554262 -0.7402069732874542
Ni 5.308315627130426 3.764868732161121 0.7105827125528973 1.5938672160007583 1.2360413897279614 0.8651222206063166
Ni 0.661267306283709 9.033406049817875 0.9188118124545294 -0.026064558297535755 0.7914362037760756 -0.30668889838766533
Ni 4.5236591005928 4.466145595474749 12.176065933905159 -1.2423161669930798 -0.33786815220394717 -0.17991988568951595
Ni 9.291797220428501 3.2267426144782583 8.795086794109507 0.38698085057019804 -1.8504178029711358 -0.9795360541732229
Ni 9.235579820565217 5.625423163131515 8.289930237288576 -0.5777075970672308 -0.07805432110126558 -0.059789975574438964
Ni 8.356708563853662 4.983338214618373 5.895694676944299 0.7812168400409126 1.2703874713079992 -0.6076185256940503
Ni 2.930549928019937 7.368115936402139 4.819259681413151 -0.8819660316365325 -2.336727310640343 0.4817422000134993
Ni 6.976076732578633 5.950717608583584 4.075233723487945 -0.5959634579536253 1.2292385078735153 -1.654904690829053
Ni 4.783663409398209 4.4768034969582 5.046651557639055 -2.430411624969382 1.2338194423759783 1.0364366240150087
Ni 5.252303366228329 9.009479387344962 12.494227138206886 0.02301317306572166 -0.1694621806913017 -0.10631511571917174
Ni 8.889146737612723 6.565537724255418 2.710417173670558 0.7489865192522972 0.16082790205507141 0.2026612931510897
Ni 7.619849415272445 7.619858739770681 9.378018990714752 -0.41103403486465984 -0.7450995254930651 1.5006349016074736
P 7.2207329172880135 7.262152338451175 11.814847926550074 -0.2617709548290524 -0.07224414217739171 -1.1247331916695726
Ni 3.332109444542134 0.14500806941348282 4.7165773743913455 -0.13618130715098484 0.95388904302908 1.3505783791362933
P 5.468911460244597 1.957874219056825 11.900485050796945 -1.061804413355836 1.1732532507571471 -1.2389981583634404
Ni 8.556541885543833 2.3834256695395837 10.843156884600656 0.8178051806879076 0.679920517692571 0.3844182320493444
P 0.2020973098618086 3.4068359734033646 6.419151494002693 0.8439617844786175 -1.135804876102702 1.156868895861853
P 1.1995594000351684 4.760883660208293 9.766749862564216 1.7661519537425197 -0.22774343293069813 0.6050821324254418
P 2.397421741391432 1.4079805846004565 3.420283764758951 -1.0618419514619906 0.12802551081306984 -0.6452239947516502
Ni 0.6151856360026758 1.128105770054683 12.45355740670188 1.1098722153973402 0.11738859992451396 0.50086632243746
Ni 8.466737643035408 5.781683104566066 -0.07789779071120594 0.344911946424606 0.532981714914766 0.03709073420471032
Ni 4.977090800800426 8.73490088779709 1.1339317165523743 1.5638002214120488 -0.8837668322906972 1.2412193343844753
Ni 2.092137669153263 6.580895172849684 2.290816617961849 -0.19334490084617026 0.8868315872589501 1.0725652514167656
Ni 5.995671014578092 8.836463322580784 7.926064072434541 3.1128106861094325 -1.5192028944176483 1.1857760658145062
Ni 8.60984071745933 9.038469252359883 11.215033725889018 1.2269139735053967 -2.1893565625314424 -1.428300770819437
Ni 6.680229052555036 3.3388137587736324 5.001847343616319 1.4918304159419662 -1.6641508920176695 0.26147502085518837
Ni 6.129906491179824 5.812966796146978 6.036043294589381 -0.6234860888539262 0.767963317465116 2.8462837046526333
Ni 7.154985880227802 1.1498225264457245 6.483553938417311 0.665434151150938 -0.020993314422215456 -0.02316358260065688
Ni 2.5955953023956404 6.787982954167261 8.428095989896672 0.012129179163366206 -1.3216812364859691 -0.29419179436191917
Ni 8.955238781107656 7.5477990174048735 5.10750509802515 -0.4484525847224341 0.03895504110695872 -1.0734985618643127
Ni 7.163666988085277 3.42118637618817 7.483372329294842 -0.13407968742694973 0.386618839245089 0.43018052588612365
Ni 4.70171039440428 7.178754026230706 3.190285691276157 0.763382382962653 0.05303414490784415 -0.05230986514730991
Ni 5.660455303003195 8.826057182549697 10.231142510447956 0.15270630138920152 0.04600320620299174 0.9539348086653507
Ni 8.20511087153698 4.176992905184412 3.4656614354231854 0.29141166051362066 -0.47372370058439706 -0.5547083079585802
Ni 7.16836653519609 8.175915867560875 3.2033185424602526 0.4279734909324759 0.5845135642454709 -0.4330059111500607
Ni 1.5106526346742033 8.845163079434732 6.390478661927789 0.6209394111726725 -0.22339646881591205 -0.8876276007976842
Ni 7.326062449358946 1.1111165342691625 12.220720023506301 -0.7406540881272018 0.42318841083900666 2.222267197216534
Ni 6.371681405934358 2.121621732574677 2.3544404667737826 0.5681960580323698 0.16546154417234082 1.4293135283546676
Ni 5.927797991920132 5.544458544950574 10.547324123774235 0.7643902554018771 1.326594100406554 1.4632042675648413
Ni 3.476648491694359 8.67355501390415 9.291330995516713 -0.24333331694915508 1.6525346479349796 0.1326154441765974
Ni 4.7918596433474265 1.4464441398228893 8.91351817865148 -0.08379430890883634 -0.1922681228422237 -0.034546884736934055
Ni 1.647461672788999 2.6260491136335715 0.7544889773955322 -1.813770584061747 -1.8182404469076427 -0.15258545954062108
Ni 8.007217045479843 3.1795326799106998 0.6916334672382239 -0.3445219100750389 -0.2720900773668733 0.3836443299977973
Ni 3.7313285120071598 5.32067991179102 10.028683410054601 -2.1056015915009736 -1.3662363973885243 -0.4232460035498195
P 1.1923795363936474 5.635157939289628 4.460116374915518 -0.06708985166996187 0.8497135993607301 -0.18291573509304626
Ni 3.061353989270916 4.179780930156899 0.41249901785236837 -0.9509420445856138 -0.928592216135504 -1.5065731214687796
P 5.869044328536726 4.211978422564913 3.08472304674933 0.4284134066833719 0.11621540555201922 -0.8187845138820415
Ni 0.6762788159934289 7.6410346752640494 12.655278939284786 -0.26754976629435856 -0.028093158691790326 1.6388283540924808
P 4.42351398954094 7.243298203018507 6.677236821071187 -0.4012491875637541 -0.06135037808302338 -1.3302337540416702
P 8.656360639157443 9.439096319058505 7.82660244710336 0.7397868550309001 -1.1109844746249125 -1.236002051849594
P 6.576494009682414 5.3883850934807365 8.529140915028282 1.7493564794517356 0.32245901673772853 -0.6094756335074472
Ni 0.4252073764978601 1.7432335941682973 5.046283239958743 0.1913407259319479 -0.41882319189177547 -0.8917375092009998
