# total energy = -340873.512883486 ev
CRYSTAL
PRIMVEC
9.21314976468630 0.00000000000000 0.00000000000000

0.00000000000000 9.21314976468630 0.00000000000000

0.00000000000000 0.00000000000000 13.48437596006667

PRIMCOORD
 96 1
Ni 8.28556068829107 0.5628543557396455 9.182900291090487 -1.6807969852147828 0.8721968680649107 -0.7182338114504728
Ni 6.636489787800914 1.5719107706981275 7.336403566925768 -0.016605983987797206 -0.1688104060399157 0.09995034984340852
Ni 6.746743551767627 6.268065139412443 6.383880881929059 0.25103119981404504 0.016320077316262217 -2.730920876908897
Ni 5.913432576313364 3.110018494684977 5.090419138419527 0.8868243881700985 -1.0501025515378755 -1.325804257515407
Ni 5.227310882477904 8.495942964565815 1.614605428306395 1.3404073521405624 -0.3607836233495399 -1.0398937293256734
Ni 5.784162871105967 5.415498680822022 3.8927778383594314 -0.143725695157146 -0.7678162503642906 1.3802653646777647
Ni -0.10242166529970234 3.3262971868483064 6.6042971996792055 1.191992479037863 0.7689881591852046 -2.669487195083448
Ni 6.362757893323186 0.08805191551622442 10.97965337671513 1.158175273378102 1.0905462613752186 0.9052869657506604
Ni 7.818186810772284 5.93082700318469 11.249084572854123 0.8736048041560309 0.7930377439352406 -0.963792675296037
Ni 5.921365098313476 7.799898708367846 3.8000456427316425 0.8151633721896864 -0.1477481860529778 0.44904188156700087
Ni 3.979997806446376 3.6029588629706746 8.59785422136516 0.7104361697829249 1.7399444421092165 0.09936979474959015
Ni 1.6715141334660828 1.106978377883208 6.196394204286694 -0.5068801327317077 1.517223402093774 0.37559626288234027
Ni 4.864985339274187 6.482796022405019 0.3909332947281616 -0.6933133940597092 -0.36883708978163576 1.0005319396985994
Ni 1.7839422007917103 0.09626543858602667 3.2051820405518243 0.6508634524256145 0.41830640015635706 0.24232313051708587
Ni 8.923285706091006 4.050883781206958 4.314798143230191 -0.7507099297013071 -0.5194425427777506 -1.6200248482327326
Ni 6.479037057276046 2.357073825162163 12.187852946475724 0.01861992909403245 0.49529088523221154 -0.37878957300865734
Ni 7.0606539926361656 6.24020457433888 1.6439612875967047 -0.20335471967368848 0.9532948610885067 2.1549793706031535
Ni 2.391696842207947 1.5780190890327084 1.1862695092299709 -0.282328724375746 0.5412562962187324 -0.01945090963576005
Ni 8.794513510974207 2.6732046351387466 8.587700408942021 -0.20235970275027088 0.6090889395919897 0.7066515059295121
Ni 4.538637146140665 6.006964473346043 7.797866287516249 0.4170671284326172 -0.2492136869893321 1.2299067375851334
Ni 3.486698125317467 7.076519036636389 12.013742841065602 -1.3866216459130958 -2.3754743495015536 -0.1311763977372257
Ni 9.263730018458176 7.926257058230254 12.100582306064737 -1.5784974184129072 0.7791386173556453 0.25188634872548876
Ni 5.8366593988140245 7.037915938865809 11.2432323800847 0.4635336474252727 -1.4625728046284296 -0.8205714305791353
Ni 3.172723192400147 0.8262859487120019 12.040158784246463 0.1265988056688723 -0.3114994324024313 0.5129836745262842
P 8.730113593691069 5.475328875791507 7.374645509223172 1.5793438255736025 -0.897544345690764 -1.2144775475142566
P 4.123603172782896 0.8133552929313317 2.484347962117268 -2.4504806278051157 0.631735473346912 0.6290306728212394
P 1.6944825159820862 6.807135748876492 1.7676128140402603 0.43358260958913714 0.9205436347994146 0.6779209707640389
P 1.1654634529781096 6.177969747264831 11.79084634338232 0.26250474767128334 0.5935885299635455 -0.23821656454788007
P 7.464595333603534 8.580878992810916 2.209280160914782 -1.1071352760821513 0.5236954045168335 -0.15949761327942208
P 5.444077871582007 0.5782366306889913 9.042447664624394 1.2937045487673848 0.7826263187939295 -1.3886751860080149
P 6.826059558618919 5.949142745038608 13.152957108874702 0.523428266898376 -0.7062527278291966 -1.934871342730526
P 2.0211900219588195 2.056651435638762 8.52661630428123 0.09716713067131653 -0.23170678845382028 -1.6851897149658397
Ni 4.902943516556953 1.4075113252045197 0.41998051349930293 -0.3527980340409021 0.22291747229696446 -0.7084286524345929
Ni 1.5298343154431788 4.241061619913472 8.358466185493493 -1.0630699103318209 0.0855233757848011 -0.2549477612596319
Ni 0.1055716412251823 6.321833081796477 0.46075883594378053 -0.7229823818790516 -1.005207747907714 -1.2961663800443162
Ni 7.049266539451335 5.9149895986339445 8.57507839368052 -0.967953748652262 0.9713126378221659 2.855371525886514
Ni 7.324721292946509 8.53777987792529 13.430816494474437 -1.0250875175507763 -0.9677094938519397 0.028793784303240734
Ni 0.9911782977212961 5.556634923005197 5.393211150078153 -0.5918586917566323 0.5743929308717011 -0.11830776930467367
Ni -0.057891748246112644 5.868592176110642 2.787867812612141 2.1220980464941 0.5267357340050541 -0.2967276734098954
Ni 2.7343154579340334 8.315291522779296 0.47354392395720124 0.5931308736008365 -0.0890892387591885 0.7681633492910641
Ni 3.5411570539384445 0.14662912210938506 4.8042946361109635 1.278346578254076 -0.08140678251326625 0.8084381376507109
Ni 8.239725267907149 7.8953008748151845 7.620304014866358 0.15156910246096478 0.02743109962775921 0.31074378518332935
Ni 0.8670504514317406 1.5009603038887647 10.297720902105512 0.7352313744497337 -0.756656119982413 0.18157644745633245
Ni 5.120125097403222 4.774355584436672 12.0697302312427 0.4370731392408989 0.051286823199434256 -2.0691171234216945
Ni 3.453014849553926 7.630321472672074 3.059241140734435 0.03531333058931337 -1.538628864352744 -0.9403084761311677
Ni 2.3504772098868085 4.553857269653075 12.3357368995914 -0.3348399069005846 0.5638601496611773 -0.9355115689631566
Ni 4.413752900250403 6.947470447024813 5.70138271992013 -0.16443361712845875 1.1649339322581742 -0.46671307359451886
Ni 7.373339084577856 8.912976191435808 5.42979380409191 0.011353220229290126 -0.22425187483767187 0.8202978652027743
Ni 5.966187072216548 8.253581845245323 7.515800177705998 -1.5440397509556698 0.5929087302877015 -0.18001604494774803
Ni 7.293728256932135 1.526480728906546 1.0486057032161828 0.05260399934896101 -0.17910458887707217 -0.4290225010222805
Ni 2.5632088393671606 3.237565340874929 10.326335102834834 -0.9484511598429601 1.6182764980830582 2.3562715513208583
Ni 4.152007313696188 2.299998361990626 6.84799975361435 1.1710626708637315 -2.0532801563894383 -1.413306354293134
Ni 6.888819535233045 3.9782933737285817 7.1706672933924205 -0.8434514205011022 -0.17925474130169128 0.5459015083002277
Ni 8.156880624672532 4.126560593877014 12.672791694137617 0.2389804392970981 -1.015285186748374 0.45931909512329283
Ni 8.167696862568155 1.9424268040970813 4.757274404659428 -0.5100765281818183 -1.1385636697947616 1.6409091478809097
Ni 3.7682243445479187 4.207848214791053 0.39790488520143064 -0.5295937722791395 -1.1326871564093266 2.853881314494233
P 7.71406900458963 6.184289968045408 4.183285036040184 -0.004920577230068945 1.1402336012980168 1.42380442561098
P 5.530589348447338 0.8964680388258838 5.569115055759379 -0.7615939236036626 -0.21810411006872116 0.030602555377205357
P 2.344488662499964 7.351080114598449 4.890877975544936 0.22219447808801088 -0.3277889135910742 0.38183144515877465
P 5.377448372040998 5.007816801025331 9.65610793507904 0.028658030056324835 -0.509528111877516 1.016527029575275
P 8.015928645485873 8.012390795952724 10.05400452844563 -0.5910115132649886 -2.5152621430568747 1.42104434636734
P 8.147216030505147 2.8532111564374527 10.58144630019941 -0.3637103100780317 -0.6141293302293747 2.3195045190041537
P 4.481349780523133 5.180517294512088 2.3305178421039483 -1.1983593017961554 0.4714994392395686 -1.2909205582643444
P 1.3883848261659224 3.5830676724965262 0.8419105295017694 0.539575823192516 0.04632819364257828 -0.7044254448124707
Ni -0.05069535691709128 1.598278805499893 2.7398765151689553 2.0232154757935734 -0.30500688269955206 -0.7467393750893333
Ni 0.24234822091073502 8.660268704860815 1.4290203447880985 0.9579279889851439 0.26379261324477155 -1.3905816590021083
Ni 8.971148019436628 8.170506873265058 3.729966739895811 -0.6028843534431746 -0.4117899391940779 0.9591407783463223
Ni 3.6778064921563995 1.47021602291969 9.833400262439033 1.018302119197827 -0.8230520309091438 -0.9756374904497649
Ni 0.8524310252879804 8.103435142532405 6.182828762483018 -0.883850136033123 0.8888882126776626 -0.9328286228143549
Ni 6.097280981089477 4.038971178482051 0.7363692916710125 1.8503126448518392 -0.049586295568559764 -0.5772939065685799
Ni 4.302117163809803 8.475425279903506 10.219849517146923 -0.5682307679250471 -0.5700212841665666 0.10160794005148953
Ni 3.3546552620124688 5.157797667041384 4.5597555281716255 0.6409875880727993 0.6949601856345128 -0.5828469751763252
Ni 2.0228852415267875 4.244894290241052 2.9536584437294615 -0.8740462625688238 -0.5860508268256036 -1.2038257242273656
Ni 6.17488334207315 2.7674827973073235 9.65564912021771 -0.31433844451312315 -0.13511841310410924 -0.3933353320333161
Ni 8.605947973487227 3.947337190313511 1.5782927195825383 0.04427722465082052 -0.17405159983419702 -0.25363521309579545
Ni 3.5988590112981433 2.5501353797641886 4.168829603963324 -0.4319561297293077 -0.4703509274574222 0.8337095106229899
Ni 2.105554834914713 6.455700148767006 7.170330092108792 1.0485133526738843 -0.15018662029114133 1.2044255625948936
Ni 0.14637023259927687 6.45609631420952 9.249984920232896 0.9018470868311758 0.039199553017597005 0.11874614239367291
Ni 1.068559543109147 2.5927369845592145 12.303225536485714 1.1464299599167158 1.4547903324695333 1.4877860706692636
Ni 2.4849154921465444 3.7568737439623927 6.302584047865195 -0.6329199805733164 0.17483450074680856 -0.29446330285575095
Ni 1.223395739083456 8.831651717922465 8.620534232291615 -1.3168123384294417 0.3322109539181698 -0.8789226168245184
Ni 6.083037451458614 1.0655007773669436 3.377162065722194 0.3691656767656481 -0.6643365472113849 0.6518466422744903
Ni 4.887622048396459 3.054067035792202 2.3819613067869043 0.7633754409841176 -0.6547949262695367 0.5134603570523868
Ni 1.9008570720825577 8.198118683293321 10.78653009400927 0.1914461411615606 0.191418887468051 -0.3104560787395814
Ni 2.4213539714975645 5.701889443160556 9.957295016037992 0.9767849737906469 0.4780549809698993 0.4187419450318789
Ni 0.3947493813860551 4.4708191502721135 10.67260028326202 0.47905539720995555 -1.0483372321073363 -0.4291734247778479
Ni 3.215334010344999 -0.036582654013756356 7.567567023947844 1.979739663998126 0.11044610716840979 -0.4462370651283541
Ni 8.693601880930972 1.0755707501266676 12.269770746837855 -3.3978820062273223 -0.43086572487860636 -0.42567466759597006
P 1.2967139853980791 0.42115979667701997 13.00290253766004 0.05526509112089192 -0.22636686429814562 0.4651354446947537
P 8.703985100784777 0.9198160031147148 6.809245560186627 0.664482842981262 -0.7719364431802512 0.5641884795348736
P 4.22052550895151 2.7410779099062546 12.18163683428818 0.20384297216401667 0.25046992799393636 -0.34056935318519416
P 7.369018117309504 2.727645137460072 2.8282803730085297 -1.342999538347771 1.7233070906628514 0.7309836549169733
P 4.9404778889477265 8.391428992940648 12.618207466679005 0.5696667290406254 2.4445082122717645 1.3877519028627971
P 4.779395177391448 4.518736742516691 6.11378910294755 -0.4671740723913374 0.8559264130396614 0.8958952401231152
P 2.972097641791046 7.525752222147951 8.91448069880238 -0.38409401594070625 -0.9227714956886689 -0.48795244258926934
P 1.5455795884956656 2.6011485903502742 4.573239894256833 -1.857648002170988 0.551094879575709 -0.45896042623229344
