# total energy = -340889.16809113644 ev
CRYSTAL
PRIMVEC
9.09845494107701 0.00000000000000 0.00000000000000
0.00000000000000 9.09845494107701 0.00000000000000
0.00000000000000 0.00000000000000 13.31650849218843
PRIMCOORD
 96 1
Ni 6.579938894076933 2.022231684400199 11.155931268565032 0.3979489195459276 -0.08415683445457764 1.2707014030039923
Ni 4.6751136716988615 0.531983928432673 5.686175833015055 -0.23611520193416108 -0.7459685583615798 1.288069976189427
Ni 2.9107140022384534 2.2300130989382754 4.546255894340322 0.18560485188943518 -1.6449216114744123 0.11042965210817755
Ni 3.765413757035158 4.338288871322298 4.770319903766402 -2.0939431813264386 2.822237205226391 -0.11951953022458771
Ni 3.8058745859728824 2.9223145322352146 2.184826532525791 0.25621582933877807 -1.0246887394504611 0.8972787507342032
Ni 5.217763718810126 4.737592761493185 2.547381763357917 0.193202461731035 0.025805648209194267 0.2958789522563549
Ni 5.151044749032672 4.660583439224486 11.482518487488766 -0.5139151852016183 1.006113547551435 -0.043508979026228294
Ni 6.049280610523106 7.941158731579301 12.183806464689866 -0.7152341053922004 0.4871489728513675 0.17073719074898336
Ni 2.100705857907705 6.677847367249601 0.25648271407820666 0.27562817242711884 -0.14526655728170465 -0.08219174030840684
Ni 2.756850031434346 1.450557566159782 0.21393015035910484 0.3146852863295806 0.6310939831081711 0.17218317916689055
Ni 8.281268074174555 0.010644282386832566 6.717499343546768 -0.40893858578821185 0.16599504807830764 -0.1542294229019473
Ni 8.986416525789476 2.1958393023360503 1.302375580440363 -0.3136936118402726 0.6430732669572344 -2.109651078979999
Ni 6.883217691239332 1.1010859134730235 4.628885332200394 0.5083875705151696 -1.502207388300916 -0.7765106928144949
Ni 1.231175621624944 7.611339741475291 2.6619031053314384 -0.3411061995252706 0.0911368653168366 -1.109026322457277
Ni 7.499110300290934 3.7841747710377636 3.6573659657225743 0.9702741692553224 0.3597533823128127 0.3311722282410103
Ni 8.005976124282776 3.8153096837035823 12.741355231698932 -1.8093516290584453 -0.04591578869550802 -1.028147387423023
Ni 8.534214218833357 7.529708404117687 8.909742936506568 -1.95149943820551 -0.3418366499333919 1.4534276477940518
Ni 6.749861637778518 0.823579399658725 0.39028277213811124 0.6717397816539915 -0.5776520612389471 -1.5682227759597767
Ni 2.0450597077428463 6.188377789025453 9.202452968457798 -0.4705805269697251 3.2359459587097366 -1.1767607496897732
Ni 9.277148553645576 4.6377554158818395 1.2501176948800488 0.47447317715591186 1.6479611696316845 1.2257106972259149
Ni 6.572805705435787 1.9343315116168933 6.816414105831313 0.5185403426784553 0.9133067507313433 -0.14451193850386726
Ni 3.7739663046406133 4.648164048286778 0.4084250912075566 -1.3104514292084206 0.5745615952390815 -0.2805880875355555
Ni 5.942364667000009 5.7619332078895935 4.870499351281967 0.9610480226713641 -0.8841751234727095 -0.6920386411123436
Ni 5.329538237249513 3.213974602491053 9.308559149494846 0.46935513920305616 -0.832667956732353 -0.19762501627876286
P 0.5830963185211501 5.501262475021183 12.480897402675167 -0.6840803054972154 0.27679648170360716 -0.3851275994115432
P 4.211911332769342 6.559012447808264 12.574126540493065 -0.7028670991864152 -1.0593263841289884 -0.9302271806357658
P 2.646740530241553 8.57046246315265 1.2663384202747363 0.22204278300149505 0.033499160198710055 0.278131912685579
P 6.2306492104881634 7.818056636790135 5.4588363798251835 1.1825493313470925 1.1461715640490067 1.8797180945971501
P 4.821726173948131 1.1424838832653887 12.49185740144701 0.6493763263571268 -0.24558817442160286 0.6934015828981414
P 4.185480321286524 6.4839592933429415 8.186203778003446 -0.5270352675233441 -0.8444299823642876 0.6227371265030437
P 4.708404918175844 1.276795274490641 3.6570993809940213 0.578399738038249 -0.06088243730766935 -0.6114407276536179
P 0.1812721563431233 5.719279651321108 3.595856771220529 0.8749996276210286 -0.5327215192748438 -0.7072302612511175
Ni 0.5853936783832538 0.2279608776595019 4.609922332499021 0.024143687125739065 0.13973200061672064 0.21298195835080738
Ni 1.7966172982592579 6.828818029395693 4.697011832950788 0.7104186862814282 -0.8189716901921832 1.4195083693387875
Ni 6.062373287123372 5.801511486702075 9.210989138844434 -0.7387260178665536 0.43049985689875536 0.2192510791889708
Ni 8.857127481668705 2.4757259719520373 10.036359114427365 -0.621996134571961 0.02915528140771753 0.13346545088171854
Ni 2.5423903510000945 5.3055365132248395 6.645230316280667 -1.2422991977122153 0.512139324248118 1.530869789232615
Ni 0.9785570213425216 -0.0010990933518500504 8.710381232132415 -0.006249837564453753 3.1583827183122763 0.9132257609817628
Ni 1.3924639316269796 1.0434017094106949 11.414538471862254 1.28570481839136 0.3220604957477292 -1.0093171420903972
Ni 4.439254425341172 6.966241092196547 1.5622793135607518 -0.9209313571561366 0.5201863629223106 0.14903168075109172
Ni 5.722527799720201 8.205850981513255 7.986016843769916 -0.17959284136740036 -0.1272714062558647 -0.2518981758000307
Ni 5.403144737385827 3.049556424003617 4.753527795404031 1.4674316753826275 -1.2613983804355116 0.11404462315294553
Ni 1.014031896995364 7.549160900692648 7.14562531914804 0.0016341931693133146 -1.987322104331074 -1.4453433281240204
Ni 5.350619357251471 4.561819711291273 7.149833354539023 0.17655379743076044 0.867468866461622 -0.19197424575088876
Ni 0.816870199015892 7.277535628125336 11.100574449265975 -0.13541511840892162 -0.06048417342798615 0.8040441223480733
Ni 4.763159419760558 0.5675807233811675 10.308682238485465 0.473573805270094 0.3186116179671803 -0.3033325803209227
Ni 8.338087925021439 7.355318319060485 4.748067812618888 -0.6887609988023364 -0.04291453997533899 0.2545456407252068
Ni 7.204829875024062 6.331978702703013 7.136170204816562 -0.32709985794384955 0.31895460312889584 -1.3559075046586906
Ni 2.4953968314445856 5.528366772166558 2.4947681282110357 -0.7183369126872403 -1.3220568746578327 -0.1641932189828785
Ni 2.5856807994115396 5.130555028599176 11.432914621222615 0.2118846115215706 0.26576336381789717 0.2933533576210238
Ni 1.3057101641610007 3.345956789262053 3.3656412964369506 -1.23714593564605 0.8784305076794485 -0.4395545109018559
Ni 1.5195147558424933 0.9655644277461485 2.4466818842221056 0.5011090345758853 0.2952253778327561 0.0629909990102399
Ni 0.9215006106682528 3.7830283657204364 8.011744544689009 0.8217672506594493 -0.8294458502506296 0.2974514389497974
Ni 3.6332405027112693 3.1344905004897115 6.91921754773987 0.07018854519994364 -1.3192469160128635 0.21101275043957854
Ni 4.140242803526602 6.757176795517653 6.033363773522058 0.47040414929286084 2.0517066412547313 -0.24730181467859988
Ni 0.6973037638006414 8.889818230122325 13.511861524238354 0.1991350251653861 0.27562148755889954 0.16681060200106754
P 9.047075924603917 5.708370603896702 8.02146533390355 1.0516485558687567 -0.17721020006783672 -0.024110777005274607
P 8.638082179965147 1.9626459032638912 7.796909098067411 0.7183114587659436 -0.5446735494303975 -0.24812353924894687
P 1.8378332989536348 3.00598392349029 10.310147089724271 0.6523140688292121 1.5260515419083653 0.038623883019785095
P 3.997278781692001 6.2634764357652735 3.818455929407802 0.1923581114528687 0.8846374078211088 -0.6020150634643439
P 7.013962488144011 4.0941773263708345 10.681584232229213 0.684549274713834 -0.22030857391920772 -1.548613486369281
P 6.649815027704486 8.044571769966119 10.068745064641854 -0.690035751749702 -0.2983806356322861 -0.6490454253802693
P 2.3290588789733717 8.744779760570657 5.978127053827674 0.44425911546637686 -0.5158180586512859 -1.0009273753648051
P 7.121569914239461 4.012891730299407 1.5065230720916103 -0.9257694019747282 0.1709693613644475 -0.6521747150378704
Ni 5.436299507039317 3.115747683396904 0.21523577863717175 1.0140772824832018 -0.8706853165163909 -0.17149746595377563
Ni 1.6887824107913207 1.5952048021507765 6.591684999352085 -1.0778249571538083 -1.29221922247111 2.122138927034365
Ni 7.157527008001973 0.9028824424075678 8.9189578516287 -0.6500296436704095 -0.45353154190723827 1.0846658913350418
Ni 3.094302625198969 1.877375183946518 8.985673182024195 -0.6564190921365212 0.0720641649561017 0.19579721904140474
Ni 6.480956803226133 1.9681140746584433 2.3325326690539705 -0.08919208288563994 0.677331416809156 0.627452529700842
Ni 4.199191692819951 7.40521424572891 10.368833033671027 0.4657615083145269 -2.045524680813735 -0.9421768967984742
Ni 8.240088467299776 7.154943046810537 -0.12326677682284494 0.12171242411084847 -0.39590463542238913 0.3202069874787582
Ni 7.53280187878349 3.979964422018403 8.27458525905093 0.20541263064398171 -0.24753604217659306 0.10962026883300474
Ni 3.164042282003031 8.562264755288272 12.171235129555335 0.635826355586834 0.024170683708932564 1.5258921335123656
Ni 0.39943945714888845 4.978810997786634 10.206318251948549 -1.1904174212412595 -1.3064803603758144 0.6265796401775854
Ni 8.890764469431865 2.5274961803297424 5.284602788192252 -0.39406012601448265 -0.03403163566341236 0.737691148844136
Ni 3.8043642424595787 2.7233677174044764 11.470401165253719 -0.874510603799752 0.33004402817383804 -0.4705620150269638
Ni 1.1591613510960275 3.2729416886942 12.484146460919751 0.8459011675931754 -0.010191338710705029 -0.1601211057960339
Ni 3.2456099301763395 8.802181912531102 7.929235206433609 0.6970664333442382 -0.8600980279188477 0.17748427966482982
Ni 5.91941836374367 7.899542398869349 3.296101805640676 -1.020609684285081 0.750683704449062 0.7198952583132956
Ni 3.0137631024292952 8.824090991928907 3.967534112934814 1.166624689697036 -0.27286295097715585 -0.9563670722559271
Ni 3.359586274701386 4.511268695870089 9.065439336127417 1.25032618178175 -1.7462631852383925 0.08055806135972578
Ni 7.487082142913899 6.17884260829086 11.075913087261096 0.4372369185122728 0.12129024897176528 0.9049455232508414
Ni 8.254354844582068 8.587012552614697 2.3693268206672293 -0.5571639685879243 1.0264350327176066 -0.16958225120893375
Ni 4.634853008768924 0.47483016429098035 1.6467994103489227 -0.5250503758828311 -0.54578246622386 -0.3446178122229549
Ni 6.008437646479605 5.769075494985638 13.567125539297436 1.5606002264175123 -0.39397965048553435 0.018112907550626868
Ni 8.276609665266053 9.078201738814837 11.145851090381964 -0.4442663145552284 -0.8980827346927373 -0.6156781627737332
Ni -0.19545937706779037 5.032673850791205 5.735646861839676 0.8658508712422249 0.09086947058806286 0.07366981888032473
Ni 7.32019828314872 6.061181389531549 2.7224132894855275 0.7292990681256989 0.014495365402697618 -1.251863701472199
P 8.587376490810673 1.6504779156647587 3.2233005187629593 -0.46295694898619627 -0.7493901824486191 2.1215054072154236
P 2.0150257081198575 3.418207619618355 1.227220523280166 -0.03020969081416088 -0.19295177917280965 0.14991485468699342
P 4.935748010747674 1.2655040919604594 7.983326430656158 -0.2346368176164217 0.2219749058780371 0.5193450979679378
P 8.743078349504465 1.4955039333629214 12.47365321288425 -1.6490145505968634 1.3116698749965539 1.1121838942496522
P 6.554554204907548 7.8101682763923375 1.1663172858744222 -0.0554142151042465 0.021633776219691772 0.19360972447178268
P 1.6773183576180504 3.5497530805541833 5.9180426773628785 0.3420173984856303 0.8204279630227354 -1.9452161762999598
P 7.0514390238747255 3.928139622911301 5.9299743911179785 -0.4250738007871776 0.3680030239161146 -0.1500398103006319
P 2.3230902925593515 8.55882553933629 10.230993261635778 0.6484463583436898 -0.4638668623949753 -1.50394648247921
