# total energy = -340894.6384359077 ev
CRYSTAL
PRIMVEC
9.07033080928952 0.00000000000000 0.00000000000000
0.00000000000000 9.07033080928952 0.00000000000000
0.00000000000000 0.00000000000000 13.27534598248956
PRIMCOORD
 96 1
Ni 6.444778366616879 2.13405834107763 11.373493584219514 0.37968997333573967 -1.0764195921658493 0.8801258931040002
Ni 4.68635870190811 0.40509638944277554 6.028029323300267 0.2786993551532749 -0.4742646606895316 -0.07198471786841797
Ni 2.753317030210077 1.3559600204058126 4.85809997186123 0.17947996993861992 1.2275112407697635 -0.35268207728832807
Ni 3.3756052098024463 4.293114513614974 4.841664532599619 -0.6308312163650879 1.0657346016481775 0.32437037482782843
Ni 5.361327362312531 4.6354015839325395 2.7313895056985182 -0.49665845500369954 0.18191994683868024 0.28778049151893664
Ni 7.471313045663718 6.129620655477836 2.633669390671533 -0.49592029128609433 0.22247369989132654 -0.2221461413485787
Ni 4.954985616462129 4.394357545092958 11.544094713601341 0.8524032303777515 1.5373641387077073 0.03525316677533928
Ni 5.933846637253431 7.797400505318348 12.347731457443684 -0.9870531884858744 0.10289092052897117 -0.12204461063928658
Ni 1.9240983256097601 6.34173033932595 0.3441700709746907 -0.12894673707575857 1.5235737697918341 0.10781972528915626
Ni 2.7657978052784973 1.5424641606360852 0.32465888256649406 0.24540691164873218 -0.22429995446678788 1.232277294699839
Ni 0.8087007094823861 -0.15386092700807955 4.505041883815649 -0.00295111220852395 -0.23348496340016564 0.9907224098073454
Ni 8.706773722476536 2.3212881077653686 1.4422596820253502 -0.4381208637791229 -0.16867208068983855 0.7272691821798636
Ni 6.989977805434175 0.7648928261790028 4.9461946519299245 -1.0421575856591858 -0.019601062060379145 -1.1616992273709605
Ni 0.6863918349110844 7.409906906700632 2.4471643434081893 -0.00917960961673903 -0.8675447140048801 0.49156407119992757
Ni 7.5284017072048774 3.7492393430825555 3.8935528399765222 0.7658992358472358 -0.11273053232721232 -0.18259229031535648
Ni 7.640039337686066 3.7936023306259004 12.732118467790372 0.7775463331678608 0.24910467221529356 -0.3792685695276049
Ni 7.987342300890866 9.004062882100472 6.880000952507513 -0.29839734780283445 0.18361147560849023 0.325215239326627
Ni 6.803419243219592 0.7031801100376388 0.24937604463743868 0.9523525517798954 0.4351676946880699 0.16867388046205145
Ni 1.8598894544547122 6.588515897510233 9.141482927648509 -0.09146776629369409 0.17276039182659925 0.41380825517568737
Ni 0.12314515906353164 4.817914778646747 1.4533318347332138 -0.05076231815453194 -0.16790306373429792 -0.22806507793617492
Ni 6.374891468432159 2.0545931736543532 7.094132413072741 -0.027131823219785526 -0.42860392542762316 0.2766465863893042
Ni 3.348684468230447 4.478602776804793 0.5298751150686782 0.6191116139353144 -0.6800662992418159 -0.34353794889521483
Ni 6.159933700738489 5.736176919908895 4.888314150517054 -0.6203120620013187 -0.2193940325247383 -0.6479725040310648
Ni 5.379767344662893 2.938342706533262 9.35761893130249 -0.4798838066485219 -0.14144435532213703 -0.10981233023915282
P 0.35562045647350865 5.372746908686906 12.401681784556303 0.0037283566941806756 -0.5173311528617026 -0.4130250971527597
P 4.197585790489538 6.231924915649863 12.66178621636738 -0.6108159495854255 -0.3863758699963475 -0.09655572233956275
P 2.1817954916481934 8.616923026380771 1.300639166321655 0.7969471062919758 -0.20995525570934165 -0.3367787757945103
P 6.4140480861431834 7.771377726487462 5.8391741533478045 -0.7858507392684982 -0.11014940186359738 0.2464260969418659
P 4.8471847358747935 1.1894287484173 12.616941594262892 -0.5160332599858855 -0.48686409462109703 -0.5167559970845229
P 4.171626503973681 6.082473076403963 8.118126492485374 -0.5902262983595319 0.6529118503142111 -0.13483713441826456
P 4.557995381582323 1.0943172605049067 3.5758998808568654 0.4121892315150256 -0.856099448282416 0.7722629732817345
P 0.19207695142361336 5.421781116550191 3.717787064283679 0.4425938119488119 0.9809614737658395 -0.14808320079489334
Ni 1.5673712887886155 1.2883407049006732 2.6775970023403985 0.30528379051002263 -0.6507436390182987 -0.9840002605921634
Ni 1.8478984772450817 6.550320734855351 4.830965170484278 -0.2357372497694521 -0.23944272364549726 -0.31053681137884587
Ni 6.050699707897658 5.670462373854606 9.23244564629034 -0.8145391083421262 0.0793820387737536 0.28455555682373573
Ni 8.724342953077937 2.199527988202526 10.146705050606489 0.1700969860618232 0.945857945194487 1.6332968827512901
Ni 2.2899773261256984 5.33832500361085 7.057412993225731 0.20508738609407906 -0.287595372091324 -0.568690224059969
Ni 0.6126999329900238 -0.0771241150648761 9.282772376280986 -0.12306559570463323 0.20688433009350174 -0.12649673287336924
Ni 1.5084141391194796 1.0936279153703137 11.610471393798068 -0.5900265236439 -0.5558465353280814 -0.9457764412242744
Ni 4.0146100089086945 7.051547210350188 1.659259181163715 0.7652523462918562 -0.1524923856061825 -1.7659591210054233
Ni 5.67700208230252 8.120458474513057 7.8931750344062515 -0.5237419414840528 -0.8745982784175518 0.3773487267970727
Ni 5.081117635431206 2.8014079236786555 4.966811513652686 0.9531213116251198 -0.783426960318354 -0.37746416932901444
Ni 0.667931897833142 7.580111662630069 6.80326958276274 1.1363800318798816 -0.5945200406388793 0.32024118315080335
Ni 5.065979253462316 4.153757952458574 7.284248358995052 0.29597202619079344 2.120776499469199 -0.17540708542082695
Ni 7.989038452735194 7.39863248561775 8.853938931348344 0.6895205026761803 -0.125190612467436 0.13966026683852076
Ni 4.774250206568714 0.45276914066523877 10.460361622011652 -0.41394940873924196 -0.8816420726382107 0.09843468452983047
Ni 8.21090781243623 7.330287543655144 4.767083738268163 0.050040095276526725 -0.6980300828090882 -0.13866936368016117
Ni 7.168191663387894 5.841165997973549 7.135644595671315 -0.6738010350583944 1.1437243880600947 -1.1005514522170465
Ni 2.3472111129583517 5.355458858337772 2.638939252818882 -0.9793637902614165 -0.4969597882942022 0.016019258246391766
Ni 2.377224837305301 5.363250272424817 11.293323652099424 -0.7386596834049923 -1.304889875960243 0.6768539629521052
Ni 1.2213472422150984 3.3088566460462663 3.891880270992063 -1.1757636758838268 0.6529830698717786 0.46274586141665464
Ni 3.7519876532902092 2.9070047139014368 2.710652915610275 -0.7653207376359464 -0.21387644514061876 -0.3849789896488208
Ni 0.9632509816250586 3.4388889072242246 8.216323706908144 0.8889614891177593 -0.6611383519890613 -1.0519576024687431
Ni 3.605238772598371 2.5294975494046015 7.0112141707449975 -1.4684745148248453 -0.43679957386453805 -0.35079128802351844
Ni 4.089304182374131 6.904671345028294 5.84964857126133 0.47498508379532395 0.16603901394236564 0.4619850719912302
Ni 0.6535010016602814 7.33904948312905 11.514862851762311 1.5614869998978398 -0.144107503976597 -0.8866616373399892
P 0.14209942916562288 5.774127183634383 7.93496658319095 0.5904289012886412 -0.22021087199907882 0.5139005299135988
P 8.538101852438496 1.534817871840534 8.195375778114164 0.47488301099982083 1.0223963438718584 -1.997422940210502
P 1.6453126406512129 3.332285310291709 10.313032240153841 1.3600037862152514 -0.6466887522226347 1.1421405885127427
P 4.003362798817967 6.190355589967763 3.6570122203385904 0.6533548513889006 -0.08104811362226687 1.5921224653955095
P 6.9237643911903755 4.014002296750567 10.540093457158047 0.6402203708894716 1.0253970783713955 -0.9742372676681288
P 6.3745467958648625 7.807187392163424 10.159781746403103 -0.5554971224084626 0.06546105781728725 0.36460479686784303
P 2.578903640827337 8.589285728682023 5.958413628004024 -1.068043195176696 -0.6559200410129155 -0.9323925637182007
P 7.042377105993958 3.910682159538086 1.5922049472623272 -0.07615119054128175 0.017044614187112582 0.18693282667223934
Ni 5.217753097372108 2.96114551795914 0.5444284607062364 0.36980151057743404 0.28953681208841103 -0.18286431302982056
Ni 1.352540505725003 1.1373469094326574 7.049381215374652 0.0544968454962997 -0.055530943187768876 0.03637725307745348
Ni 6.884145186612717 0.7352246814324217 9.177764250521824 -0.7041212833084906 -0.27407368345580546 0.8612653087540717
Ni 2.853036246127382 1.7132131364086207 9.352892381965168 -0.8145756180070165 -0.4523542337696855 -0.020740317871144928
Ni 6.352496821888605 1.9423750420071924 2.553446850633276 0.5109818136049071 0.3029489717292589 0.6539618888452803
Ni 4.033911672677298 6.802303592541238 10.476757151818102 0.850808889307438 0.8490775084386281 -0.7103335827667896
Ni 8.215751369039817 6.849532804591575 0.11947621028796773 -0.09981202449333133 0.4184951191283954 0.7272426998173024
Ni 7.780275720922143 3.9228454730313644 8.344099269803381 -1.4328822195425324 -1.1042978066333562 0.16465833154475512
Ni 3.437138333395587 8.41294035885628 12.376538827805096 -0.6979107836224044 -0.14285794784021202 0.6596152304763155
Ni 0.19471006843114413 4.905869775622379 9.980152916857325 -0.7416853576051936 0.6590665570616973 1.5855818360635145
Ni 8.530401141658636 2.4371978640148897 5.928344574639692 0.49944167417579144 0.27461464356094 -0.09646779061144677
Ni 3.5837511591266504 2.6575615488166826 11.613232402468729 -1.2334201500550306 -0.23015615613724877 -0.6004909135103336
Ni 1.0902084006895036 3.1633322600014027 12.850388324092801 0.36554119263918333 1.2782861573297855 -0.7706568051368792
Ni 3.0509871437241847 8.412051466445885 8.04612076504485 0.8530205522467761 -0.049414802987702 0.4748686128221176
Ni 5.561110466714436 7.894861208886788 3.766016733812248 -0.2716691877793708 0.688298457343621 -0.7552489552222412
Ni 2.9536262137936458 8.256576927603014 3.427229904118885 0.6086814197409259 0.8140128035250109 0.342170636234043
Ni 3.2986253129959917 4.269803763668869 9.10254581194087 0.27203325598700895 0.10950559763201141 0.6476161491329105
Ni 7.335484843156746 6.130536758880385 11.268259607225465 0.5531682171649699 -0.9935084571929147 0.14182642125190414
Ni 0.09763576095130433 -0.18746287418719962 0.6525858052908019 0.7568358400933869 1.2386675144968988 -0.7350254290865148
Ni 4.797098369648182 0.4851366158335943 1.4086332449532906 -1.0816749270275177 -1.3311616651725784 0.9488070005204822
Ni 6.177203610426187 5.594144611190589 0.367313019802506 -1.2680523954169194 0.20966832059654214 0.31850954517167723
Ni 8.074535390086158 -0.22211788676271763 11.451605458299614 -0.8043626820297566 0.8054206909806257 -0.3570544953244109
Ni 0.04620607874530946 4.948228220076974 5.911896436915076 0.07510218045147711 -0.6602328094556564 -0.6834383010378424
Ni 7.729209758977953 8.85120059850448 2.6317845759482643 -0.05543838347396259 -0.4355109369601016 0.11992267920027733
P 8.655172611019964 1.4090033144465985 3.723097742919261 -0.20854192030158278 1.8703212267632823 -0.21321027231152956
P 1.783054682939751 3.3081582305809554 1.7225029691303329 0.618934979148134 -0.5189185519534806 -0.7979326101336968
P 4.618721245741534 1.0797412390405525 8.285621033596174 1.297661476532604 -0.19539535561729574 -0.5312395354126785
P 8.541993024316659 1.666020205681157 12.553405741647143 -0.05454852466984154 -0.6574609031374741 -0.40270880282841615
P 6.4022022342250455 7.749037501928219 1.2471097025543671 -0.1481446501604481 -0.285407877521702 1.030735459865173
P 1.6543739010388232 3.254543505704915 6.079139729864978 0.8989376264938648 -0.25078000303518744 -0.17381711522588772
P 6.735346411178536 3.9347185359416565 5.970347462130129 1.1613354162736387 -0.10903688552570899 0.09008888366829645
P 2.430186498369622 8.510391992094002 10.258152204142593 0.45376551229491535 0.04261886311179112 1.2167568304667369
