# total energy = -340866.89828247175 ev
CRYSTAL
PRIMVEC
9.30621584400932 0.00000000000000 0.00000000000000

0.00000000000000 9.30621584400932 0.00000000000000

0.00000000000000 0.00000000000000 13.62058757441947

PRIMCOORD
 96 1
Ni 2.7840288740979764 4.35332672008661 2.8221722603562927 -1.0474792549824152 -1.0675598277823743 -2.0117828084765996
Ni 7.5722443597047215 8.99387117508683 3.696518212679947 -0.1358123538473403 1.8883318044080897 0.6065132084450134
Ni 8.802097988314165 2.8202579717883722 9.88535917671583 1.4628731094776677 -1.7169695784805976 -1.6704071573400263
Ni 3.736306007251105 2.935915620413145 10.080841821063474 1.0474720558935637 0.07370324322142145 -0.6035687811047089
Ni 5.861408279250835 8.689976701652494 9.59732435606443 0.4533405089423547 -2.3675152425554775 0.7898683450683235
Ni 4.738734336770415 8.960266430221683 4.448892249031556 1.3082135410168374 -1.0496474662783277 -0.030419235721805674
Ni 4.05052107388828 8.903954519067154 2.1530060291317317 -0.20353855354972045 0.6063759115362009 -0.5695708268927093
Ni 0.5159561410379379 9.216354873644317 4.684187814732727 -1.0591973147502918 0.4034683067022599 -0.2556581570630952
Ni 8.229542374056804 6.320716554747749 3.0578354215773125 0.0015925412981004832 0.7180772312679504 0.09344443040409067
Ni 2.7621685734365995 0.7473561248502831 4.0485425724320825 0.21665246522385914 1.3201372890376168 1.4164405290467412
Ni 7.79779910944069 8.225382495642313 12.37073483805741 0.809148019233542 0.6408641751210575 -0.4477658430680547
Ni 2.809593048604916 6.569555456146025 12.491086541877417 -0.8581290771179351 -0.882068618652668 -1.047568215151796
Ni 7.5966638696815005 5.952879073291138 12.835851122767934 -0.7794882873855802 0.05871551156333758 -0.1707449040584672
Ni 4.410820520634071 7.252017477730275 0.2278422175531523 1.5549368574841478 -1.2774803735990385 5.030936433950503
Ni 8.313372765013671 4.056169946813549 11.519257980176187 1.15865889788274 0.8735294708334053 3.1963242305530564
Ni 7.416923619799069 4.751809569818194 8.238602905654895 -1.5712260815624746 -0.3685367849323976 -0.7660429605139517
Ni 0.5715123874782473 5.395334384945569 1.6785602631896095 1.534176742118661 -1.5869689462190282 -0.5722879687135564
Ni 4.8110064078373584 3.229173089311103 4.1065528679504695 0.35660943736719225 -1.1220389326668612 -0.40300113725785436
Ni 3.67750003029102 3.4624892229345074 6.780110447429032 0.7086947616117859 0.19507345350150274 0.7837434631175082
Ni 8.867706808945373 8.348382748448365 6.7127976587045515 1.355374514973356 -0.8139174155977272 1.1455257029348918
Ni 0.6530385594296841 5.999372926890218 12.773863350662628 -0.9516951207015546 -1.1769515255443406 0.3593273505189876
Ni 6.4886006858381 4.994618043447816 4.068537907468708 -0.8192689097176279 -0.042600094058713726 0.4992956355162304
Ni 5.383087405094409 6.067345526307287 9.218686080675255 -0.7610694185587603 0.28315276293893815 -0.2919706183408843
Ni 4.445486174088149 1.2437198899910749 6.088265899183734 1.051081370511377 1.9957311543303757 0.4800013060629927
P 5.5048778498604545 3.702338319973955 8.691297253659242 -0.49755628422762044 -0.7657423985543974 -2.6674310838853676
P 8.860755065823172 1.2958160854369611 6.011868382700363 0.12213125681582192 0.44326512698422366 2.3379742956735674
P 4.9046269377025995 8.831682448000208 7.681302970782035 -0.063784955666445 -0.09167705409102277 -0.40104889862748994
P 8.84774497628524 0.05031033265452058 2.118451119644393 -1.1561207048419186 0.5558061690084493 -0.6997861462682464
P 2.7870720066293813 2.782716697685352 4.817152232680599 -0.5747233176279263 -0.04450091062585239 0.37251273886101005
P 2.0988587437472472 7.912544748927609 4.376362395789934 1.5783953456174042 -1.7410880687953563 0.06028337027108973
P 6.5025134782981935 6.87653959319023 0.8702353968523345 1.0049868901461596 -0.9033419262091474 -1.7689344015836634
P 5.286237618383917 2.609053406650039 11.668294232624783 0.8092675755305416 -0.7604978623260064 -0.8476078658716371
Ni 6.297115991751898 3.4797801716909302 5.982311841661396 -1.0006916052049153 -0.9253618821236643 1.1923393208543207
Ni 9.100185383156463 3.3560819527079504 7.236059179061 -0.8277543214808195 -2.9622849373113174 1.017248738232648
Ni 0.5835760348802664 2.557087498223846 4.4876023838255374 0.04094713183632303 0.3109918966383934 0.7957134909951908
Ni 3.384754403256142 2.050494340794001 2.1501732170749746 0.9320920017586463 2.059138672052744 2.4196271327593686
Ni 1.535814081927487 6.949249056394715 6.352846264425655 0.2811742990563286 -0.20974288258821944 0.047338894295279765
Ni 3.23956813223948 4.914491526336511 4.845360303065743 0.7777059986741768 1.64884408645727 2.1229161715200213
Ni 7.5650227363274425 7.243781476842528 5.1147212713088335 -0.5218190134297271 -1.3365879783944723 0.6116986093006949
Ni 6.136630302136981 9.158246862861159 0.7673598354810321 0.5855319782076561 -0.23573544999723917 0.12845179971721102
Ni 6.374031864449336 4.324542594950111 10.466386239117957 -0.3797131132641912 -0.11988385554254193 1.4425966186168186
Ni 1.7293740621130873 4.290947156300655 10.753031641766485 -0.9545197346345431 1.093686092555781 1.4773144817139783
Ni 4.836886993677839 6.050045271335172 6.603451485562344 -1.3255589742738203 -0.8957445734778638 -0.5920368692057094
Ni 1.7431193426907177 7.489130547356167 0.9979790277967876 1.7798597902469153 -1.4950774621243543 -1.9915981059986088
Ni 9.060056981090964 5.352162850348665 9.676555615226128 0.5066870428842951 0.2814496642049024 -0.21872863102659748
Ni 3.6772301500359417 6.69833486889704 2.9291481403616535 -1.3093396842014804 0.5169763406254451 0.7569196580564448
Ni 0.22085604143289025 2.774154979248372 2.2074753095791726 0.16779841983563362 0.22902718473912817 -1.246707096971924
Ni 5.087922161979516 4.99483208640874 2.1779457565657134 0.17936144208288465 -0.18284605819737543 -1.3347532391785786
Ni 1.8549614428816183 3.479547516298621 8.573642491146886 -0.3341469945986181 -0.2837875683094596 -0.7375523092734265
Ni 2.595345350935178 1.7064342404313957 12.359470594583367 0.5556267060077915 -1.3094551267334222 -0.3398715557872211
Ni 3.3347428001253467 7.495272649713131 9.113970680461572 0.2162369749529953 -0.5595083004503848 -1.013737639755596
Ni 6.096473981424405 7.645195784517209 2.719118950265266 -0.3506159387879187 0.23766557714041653 -1.224101443757266
Ni 7.377595552283114 2.23485977987554 8.077689130118127 -1.3214866039766595 -0.6334987358949219 -0.048120766766626806
Ni 7.422823760548032 2.2012271163633153 3.265617160583993 -0.9719525853990099 0.08038991121297767 0.6094478655933052
Ni 1.9559711080066005 3.098727863951155 0.380944355637744 -0.477158694407875 1.8405056860637465 1.064462162693657
Ni 6.596441113281283 7.165739552046315 7.359748091828288 1.2936762666326107 0.9566115841665654 0.9236487560872996
P 5.4332572138919755 6.881406743997339 4.425423834298538 -1.3198452117184947 -1.5081229824544025 3.353749534684482
P 8.935242016224901 6.1422140315524025 7.4884763203929925 0.15720007549449702 0.7939669406177293 -0.4554097327665576
P 2.7865415523349166 5.311494687773009 7.619628818145561 0.8988692351497745 1.0876684256067914 -0.4242950136396241
P 4.107372745552968 8.367814126814034 12.287090571414392 -0.21690134800987163 1.6543789002325702 -3.023267647642277
P 8.43153378565969 4.203329135556993 3.627462369756286 1.959291166335787 0.02839526331324142 0.2127798696423303
P 7.29460272073856 0.8990911798496657 10.093222810420603 1.2393275166784012 0.6038266627517859 0.14541773814758827
P 2.726125600060051 0.7283174687868329 0.8548512916912779 -0.9148460701940051 -1.0561672696747166 -2.7101301654157903
P 3.4469199240811728 5.483436328905235 10.360036667428693 0.3202069874787582 1.2137941482939871 0.8446878640113646
Ni 1.1393041499226852 5.818367031673625 4.020075789250693 -0.2633820080699142 0.3330257365099813 0.30482330593383633
Ni 1.546237043502941 9.002572486759197 2.478973915566801 -0.008882132980978253 0.977835012321716 0.5510583699108187
Ni 1.2880733139809095 6.828835931551142 10.634545834192803 0.5500001038496335 0.9193138761573717 -0.27532426803345483
Ni 5.803272349820601 0.37503304742995064 12.135357377658147 0.11650594020924451 1.316634675200997 -1.0452827615517288
Ni 7.571350962998253 4.506041719598399 1.5581676120205594 -0.5880804556611227 0.7952805172228303 -0.13041535120148506
Ni 8.088153039042629 4.8090055714635 5.84542485379919 0.9078611542357395 1.7825339946449685 -1.0887930261295378
Ni 1.7450085044762687 1.7766868626930956 6.686468513267699 -0.4767200642085596 0.7155956024966773 -2.309241960735881
Ni 2.993995712549225 1.0405931200737184 8.334014882040917 0.08369634987839134 -0.27816507991635964 1.1853641750880681
Ni 3.0488930789185145 8.899655047417278 6.495303953001314 -1.1042764664771174 -2.0471611879758935 -0.470792385870215
Ni 8.796756220506746 7.309697402591584 0.9650433998399215 -1.8042122509493506 1.5857646414982818 -0.5239417161996849
Ni 1.2333899905725445 4.558975474456599 6.365703732026233 1.7323290916558036 1.2530816330397 -1.7002278402458846
Ni 6.219157822896916 4.078430414749698 13.009676341956295 0.21219365812155713 0.19059022091916855 0.05612024003233561
Ni 0.6349472761237172 0.20044192669010777 10.921585820386687 -0.28714337215557 1.4698616249803589 0.31187018547828865
Ni 6.939393773976495 0.07874733594569511 6.405489665354254 -1.0819361511087044 -0.30393216157813463 1.210205145391148
Ni 8.563579680118727 7.979046966265284 9.324803927593779 -0.16609377843970108 0.419268249848994 -0.2675538800594166
Ni 7.246247624001006 2.29097626050053 0.8220273383227203 0.488367675749817 -1.3150153944300191 -0.716828960683146
Ni 3.5784446704614354 0.2411733715324721 10.492905231354934 -0.021447885461130804 0.012607661461681512 0.9643917423326165
Ni 0.12462046495809376 0.9430639796176824 8.265476464709751 0.27822987171602404 -0.46282402295275776 0.5298375128588295
Ni 4.737180198749789 2.3875840856030215 0.08927918024475005 -0.8946631674882269 -1.8702119548789276 0.6427007141091642
Ni 5.030242237118208 6.105165986881079 11.917237363638815 1.5571814305439504 0.1510695371167269 -1.4170647928943014
Ni 5.304440576278192 1.5022651743564936 8.971730757333114 -0.4714526451620332 0.17105086533466024 -0.27375306689159307
Ni 0.5055787799193763 1.0045036156187082 0.321313847967315 0.18765556377087683 -0.6978287654315595 0.15303206015973644
Ni 3.7808548617704796 4.01144427419602 12.192236967969913 -1.0834057936756956 1.4697508104341075 1.3417170720909215
Ni 8.25921989589977 1.5202354768584598 12.229162170594098 -1.187842975645864 0.3269815871984304 -0.6659419440252918
P 2.9677987153752037 5.250641343360603 0.866003860577014 -0.4409472774843245 0.5878747674082199 -0.7511627009680095
P 8.90071595600621 3.653145663824088 -0.030965502094791403 0.4957827372669654 -0.31736206183079535 0.16635371696930706
P 0.8053505998019936 8.221846133679213 12.561450838727424 -0.6795744472070618 -1.5844554357685552 1.4556747919570157
P 6.343749438586364 1.4602569167211363 5.0885698745917045 -0.7905985383661287 1.5515512288413666 -2.2764637378635957
P 7.279591794826767 6.519888182995848 10.285068585675669 -0.7796142714404831 -0.10963646678292086 1.2988161589623373
P 1.457502276876195 8.56708812343475 9.243230293942311 0.5356839443372774 0.2853492563696247 -1.5508495747886517
P 1.7580930437397406 2.1924420487497183 10.461128227251766 -1.4161250546888515 -1.162415793822011 -1.035248003023546
P 5.495320366344391 2.7762116529163863 2.022684576440492 0.6811523332171431 0.6333465265877738 0.5742790310016561
