# total energy = -340887.9461288412 ev
CRYSTAL
PRIMVEC
9.07431778844538 0.00000000000000 0.00000000000000
0.00000000000000 9.07431778844538 0.00000000000000
0.00000000000000 0.00000000000000 13.28118132949072
PRIMCOORD
 96 1
Ni 6.501630550863778 1.852040986842252 11.209556180050951 0.43079861908609673 0.7834166759057088 1.3520662765357294
Ni 4.737810079139732 0.3773228273334856 5.622535168302482 0.5108553153293718 -0.24920288835605467 0.6210566534768273
Ni 2.930514552084342 1.598740487046985 4.717567999004556 0.32120020462996296 2.114210416215907 -0.9133633150008915
Ni 3.6371770304663875 4.582702769438489 5.086147721388814 -0.4494702273536711 0.7753467544133807 -0.41619681001252196
Ni 3.874325245041493 3.038916349410209 2.5536254771292404 1.1528212081550404 -1.2990290463040917 0.7290303878453446
Ni 5.469027660783438 4.6588998138169675 3.2412455001548204 -1.0805840079561841 0.5119166667143507 -1.127856824900219
Ni 5.402240683693334 5.1675969807591065 11.619572866047198 -0.051588156489936955 -1.2023018313836715 -2.2219571221752834
Ni 5.704297491627885 8.229652839894827 12.180370227141898 -2.237204535252657 -0.137653263710821 0.30647703948717536
Ni 1.921686373957272 6.72609286951878 -0.0500974922716096 -0.1033056394688866 -0.05401784897735212 0.5722146922734597
Ni 2.9101336348908124 1.8924670714803515 13.253210456055518 -1.1708233011594158 0.751771281086286 1.3516266178951495
Ni 8.512381351470422 0.0034990568431989316 6.412645978208754 -1.383569232240017 0.4726158122321989 0.07684153174008701
Ni 8.804120660362656 2.6782666731236473 1.1712312391300033 -1.1536719861911098 -0.8088243173455361 -0.4981959746941484
Ni 7.116107037362894 0.695493808354532 4.4793971088427575 -0.7012218502735084 0.44969751287312876 -0.6835432020468228
Ni 0.9794818352045972 7.432555712914959 2.1792953597202542 1.1874696514668452 -0.8712476167777641 0.014565042298368466
Ni 7.8130781446128434 3.99221877851359 3.495261963603948 0.4500523251093862 -1.1108831731603577 1.507851216850255
Ni 7.37361802049645 3.995068114220967 12.315785360350853 0.8429042897483807 0.2598747662476041 0.41062111569695736
Ni 8.351765931022753 7.516629264917651 9.169353774438378 -0.8901058871348477 -0.9530683468999973 -0.7431377737810041
Ni 6.994973972529226 0.6044911074787416 0.16971605350794944 1.125163851449088 0.7999961775309449 0.561090300225524
Ni 1.9852973399085807 6.5180096940224255 9.078178661529337 -0.8707807044436745 0.5616508007146844 0.4342819496490069
Ni 0.43562803981949727 5.023324406199927 1.1878063875475013 -0.21333497081485195 0.4833221429061096 -0.3138548200084853
Ni 6.541621068259986 1.7190205660319482 6.602885415695601 1.469979895725778 0.6896742546452251 0.6456495123248428
Ni 3.599527686995349 4.412595612844591 0.6811400528706834 0.23771519943142927 -0.06687002234967193 -1.6012984754678228
Ni 6.59705607410828 5.8252399957932255 4.843712809415244 -0.07563002793048909 -0.025309939519698347 0.7983856385107153
Ni 5.1639672537433405 2.950550645211373 9.293984081251736 -1.149323736524743 0.6524202553897731 -0.5916982549193681
P 0.04562203886116947 5.557284473171801 12.36948081952684 0.7345526032151544 0.77341354194641 -0.9720669994896872
P 3.957808966404124 6.166969720010105 12.723224940165906 -1.5816560186465471 1.1930785130131905 -1.1790091794043178
P 2.609673906843199 8.774311527245674 1.3407222495629754 -0.743959498351351 -0.9872923010798738 -0.9312196264560222
P 6.744958375683227 7.933185811564557 5.704360104418907 -0.31868592284854147 -0.5343965929844215 -0.09399207537744458
P 4.720224051748343 1.1670116814741749 12.461824704534957 1.1365276132013395 -0.7394531258405652 -0.27679031105602003
P 4.3663891879338825 6.417820154069729 8.048847062921958 -1.2464381595812533 -1.251859844817457 0.32075231845926694
P 4.986219521781253 1.2611486516280797 3.572651373307106 0.2000793913565264 0.049662657332449955 -0.14909621544044
P 0.411442261281691 5.497403051729194 3.326378025014363 1.1590417351434554 0.5555598573255981 1.6658244230653505
Ni 1.0289005685242585 8.963864946326542 3.9607798979665283 -1.6537510368405843 1.7768960796329012 -0.040450394705562595
Ni 1.8114243415358244 6.760502681628247 4.78515623833339 1.0772731984153965 -1.3464941817645908 -0.8931287331215715
Ni 6.357013152238101 5.944993764360903 9.255044369826594 -0.9126580614037508 0.4160862525765866 0.2500744923277306
Ni 8.657788215722029 2.4678513980196612 10.066830094607514 1.0527243054314386 -0.15564481519223516 0.5818468160465851
Ni 2.350701958585797 5.4238466337546845 6.97903493377124 0.5334038900538491 -0.46570083027992054 -0.23991040731053523
Ni 0.9972947205344714 8.877096322014642 8.641347367204114 -1.0862206374166714 1.2407295392322504 -0.5127044527229686
Ni 1.5027886533851968 1.0092183737812646 11.342155552527426 -0.7275805427726953 0.9134183366085431 -1.6510516356315503
Ni 3.803146298262312 6.699704754114158 1.6619803134109312 0.097344022568813 1.6809823617527113 -0.037855894505509
Ni 5.725957887594472 8.062231681292596 7.841979845975884 0.817911624358785 1.1048081706108717 0.1325812485045523
Ni 5.245772226361178 2.9276289191068074 5.055202483715896 -0.23298051295992134 -0.40609366014024906 -0.617539384352188
Ni 0.6893169204054514 7.281413879978441 6.804905132212119 0.4129451358444437 -1.2452724214079263 0.7118831866420965
Ni 5.292414218513779 4.604862252869744 7.175742544800183 -0.3546278881607893 -0.11685458179791489 0.01792675968174977
Ni 0.7156052183171404 7.539550991022217 11.221867306656677 1.2325811990935032 -1.0389920434470106 0.18832687880628857
Ni 4.572085817917372 0.6965636703924293 10.361725451139959 0.43287247089598996 -1.8291671211224756 -0.2807346404157488
Ni 8.481973313395837 7.2210515197062435 4.335681697380498 0.20921632066078807 0.5159224454396341 2.084712149646474
Ni 7.461811312662038 6.144438189559733 7.137798286009114 0.4961776587125391 0.017129203481118887 -0.3238502406583003
Ni 2.6170241040501265 4.971700613718188 2.746203366245995 -1.2199033465155185 0.9364456507416518 0.9793324228028489
Ni 2.42496617332838 5.09914940355929 11.425906058825714 -0.24491608805524273 -0.13699171886742212 -0.2375997568994876
Ni 1.1218397287629605 3.2662643010427455 3.6258686159487667 -0.2638687178983456 0.5155210962361573 -0.16865356874707726
Ni 2.13066790689003 1.5698478600014836 2.294045549596697 -1.3855034731482525 -1.1480548971146487 0.3813352222486465
Ni 1.3320281459284606 3.300692261787291 8.288054240146757 -1.0409154857219687 0.014007112912369425 -0.08990684956447742
Ni 3.3566445037353323 2.9056872192964986 7.059492370234476 1.948478134880683 -0.20700748593492738 0.6757820700441651
Ni 4.530189693837887 7.1033939184901715 5.786916430529009 -0.08499321431294395 -1.0184651271382525 0.49543075324418545
Ni 0.8169626229371589 0.32908738502096424 0.2467842323702122 -0.6661437756234527 -0.4621339388642686 0.5426102391434655
P 0.3670969788983174 5.335390186380454 8.045168334591478 -0.10903405731223158 1.1849630829949076 -0.85475964642507
P 8.768576558560763 1.672460242737203 7.907549049652198 -0.5815789070971791 -0.4124527695890574 0.08613401278560649
P 2.0861039334539564 2.9868025437813412 10.390717895678394 -0.010578803957110812 1.1803327833117478 0.5808821381404705
P 3.933326457682778 6.499498086242015 3.8181933316061722 0.024083009091132715 -1.319522024051121 -0.08146694632724033
P 6.810856069654468 3.991674319461225 10.129941973094155 -0.6549268238617107 -0.12052148912654082 2.6594673489536005
P 6.35889153596876 8.192484435253379 10.070893574001667 -0.651232148618943 -0.6139143860050911 -0.8411991341318158
P 2.4825427181159765 8.710255919734934 5.399663577512141 0.5790761952799834 -0.6151783403191793 2.864456004686286
P 6.910301515568931 4.154730731326997 1.539461600288994 -0.367056086621813 1.3981859537119274 -1.7447475199248144
Ni 5.5303791216674325 2.7903526433705172 0.23032251292195707 -0.24049404772814711 1.3563967855902834 -0.17642498516238003
Ni 1.3964195031881588 1.2610216111825279 6.553267047390073 1.104287522220711 -1.1448502741344218 1.382777075356025
Ni 6.7928889209264245 1.2822101426370651 8.972314043387492 0.8420748518685498 -1.7720451792985032 -0.26896438725369803
Ni 2.8095629736014613 1.4068731169935664 9.104475126326813 0.0653237609084746 0.3908187362590495 -1.3109080571298648
Ni 6.435088580347238 2.2639424085914372 2.2860501684127175 0.5867763921377185 -1.879032638494351 1.2299602165308883
Ni 4.068678978100713 6.958749296911876 10.326489876134406 0.6105395559955872 0.17361374096583002 0.2838706149415692
Ni 8.527136191789513 7.318990628909163 0.3604681899357738 -0.15651667627422722 0.16746983285162126 0.16242661400075897
Ni 7.661763899643075 3.7481740826085277 8.291812822471584 0.6000584539586052 0.14137596397804683 -2.8689654625208654
Ni 3.033480833204099 8.73053701943553 12.382337312616686 1.22056206314544 -1.527300840934434 -0.04699436647166745
Ni 8.755917885593277 5.194838082012435 10.099700902462297 0.26642645132319276 -0.24026959042216683 0.8584183262235796
Ni 8.72835918322607 2.537097515162947 5.513270403378616 -0.9569278298554036 -0.9253914498100192 -0.11267936737430272
Ni 4.071428496315155 2.9915302632193774 11.499789152231642 -0.4615114747889213 0.9756362048981843 -1.2951847328573372
Ni 0.7515857947926801 3.375128888563123 12.247678977490517 0.8480254130250299 0.5205262627602326 0.08778800344926171
Ni 3.108679702653242 8.284706724406467 7.58570569232295 0.3981422665036563 0.16828924342912308 -0.3904322994539082
Ni 5.663826035402089 7.824520859030047 3.398109597731695 0.5794109529115827 0.17039471980790008 -0.12338312694505203
Ni 3.367642576593105 8.863348730942427 3.384084332542773 1.0979458962733994 -2.016415679262921 -0.7741763882543634
Ni 3.300438180896187 4.584481335676214 9.179102313770972 0.9938393581697723 -0.42047692544511456 -0.14926590824908487
Ni 7.3417127200278625 6.799304463426791 11.6834814696138 0.5465571396063554 -2.211305555998708 -1.093276258711872
Ni 8.096342040923263 8.662352597444356 2.538484978314724 -0.8369339310975585 1.161038196748194 -1.1158960529939168
Ni 4.708264101231392 0.38781183097729693 1.2791811354424076 0.438059157303252 -0.26541703622207197 0.504017466471932
Ni 5.796383666017882 5.919113810738487 0.454008069995585 1.5682739409126862 -0.9779494264123934 1.150688992303386
Ni 8.05688690826188 -0.14545858786158175 11.051031482364364 0.4258356186538666 1.9346653973673071 0.19437257077973621
Ni 0.15199391135346937 4.821411766630375 5.691105248789081 0.10018174912792424 1.048080121791208 -0.14198788653043287
Ni 7.6119458963516795 6.101825194394635 2.5254960001888036 -1.8551257499697664 0.6932321471998126 -2.185263366298675
P 8.54089285717927 1.794473516372195 3.112498175473828 0.1359607064997465 -1.6148227352065028 1.2951425667654919
P 1.761016507604367 3.3803375468307477 1.2781121808362648 1.8515022942845663 -0.0941226874180379 -0.5891952859918562
P 4.903243962200831 1.250023538324755 7.8932052759176425 -1.6276031748006226 -0.45329397197513543 -0.1875275228334448
P 8.593460378685107 1.6099563435257034 12.18398271295434 -0.8539680037617099 0.3898838831496059 0.9351071344358863
P 6.489870235332695 7.7675976651052885 1.1557558979982827 0.2397137179186968 1.0104473990400984 1.0117314079588446
P 1.833511230426764 3.127145938845954 5.690826667240621 -0.7939155185545036 2.6112843614904704 -0.3419194394551853
P 6.9908723810014095 3.9198692447718244 5.968350150275606 0.5773993217981926 0.40626361005921 -0.3425015372109005
P 2.472987461746971 8.447726839002081 10.051290325821265 0.4826742249094655 0.400095276464969 1.1463654252273676
