# total energy = -381175.07405540877 ev
CRYSTAL
PRIMVEC
9.13930466273159 0.00000000000000 0.00000000000000
0.00000000000000 9.13930466273159 0.00000000000000
0.00000000000000 0.00000000000000 13.37629618898087
PRIMCOORD
 96 1
Ni 4.258568712473334 4.076075075544427 7.010490138046462 -1.067553400024471 0.6036819096438055 0.8589317755248885
Ni 8.506371323969994 4.246221511777674 7.075900142027842 -0.5388096344504527 -1.116967688791541 0.43004425741857555
Ni -0.04407246921886368 3.105005668945355 3.441373210028587 1.5101783223215346 -1.211870706019029 -0.43885337106977323
Ni 2.1812595822590377 3.82644410603941 5.511127790949742 -0.45506289095010016 0.7487697752558008 0.2791402993454354
Ni 3.425502807357961 0.7363501266980818 1.3146451173260252 -0.3373282205400771 0.05200441809174915 -0.3613340965363713
Ni 1.220956276636641 0.6457311784688552 2.677988105996801 1.7258100595903632 -1.5978724805054094 1.24461601877085
Ni 6.666007808289894 2.441336777075039 11.171802025262252 -0.22358518778795042 0.31255152781602946 0.08363592895410112
Ni 5.0579197224249075 5.511887267173139 4.26206266867315 2.6121834762659724 -2.4658154583899727 2.722429551608434
Ni 8.754037342957195 1.384303070147777 1.4365469917293279 -1.280826407253136 0.7825466145959298 0.20520694239107884
Ni 3.2232225756799013 6.021504038446818 5.26766585214019 -1.7705084309390027 0.9398068539044009 0.5800035921902592
Ni 0.7776223129464417 5.3860024837667515 10.496553634293933 0.0381068341740505 -0.6532684623226813 -0.6157673800534298
Ni 3.265692924778891 1.1029861311299136 6.8063281235236675 -0.14396146531703594 -0.32321852061157236 -1.387263650372469
Ni 5.574893634009472 1.3351336106787506 5.016084555004933 1.0473116190562994 1.355542408009788 -1.3913283073601457
Ni 1.6434571951856427 4.193368912500837 12.658043072552337 -0.32932720461247156 -0.3585259376636148 -1.9088751757770803
Ni 8.135013954712567 6.802009802036843 9.939056045518726 -1.4318612344771857 -0.5811482473176637 -0.2427964706090786
Ni 4.89790877514169 5.8503431393880945 10.213390555719798 -0.34682793250039623 -2.2552469945766647 -0.6505042693139829
Ni 8.789077437307427 1.3716816903100957 10.122993692595607 -1.9482091974900124 0.29192639536651016 0.7365410944000929
Ni 1.306728651565417 5.278250080952657 3.72535242851547 -0.4190337652406848 -0.12483220068675276 -1.3434620798064862
Ni 5.75095320040563 2.347887386169687 7.441032730830928 0.8454419685685699 1.1974360186509379 -1.4816527040780159
Ni 1.1945345466505901 0.8660642787880248 8.651266775153617 1.7350567749996118 -0.33025717262590865 -0.8691704225337611
Ni 5.5584063282693 0.9146067819522975 9.041373428072884 0.6018957642776601 -0.9123600705473578 0.8786161413276933
Ni 6.825049989271307 0.04831219268497547 10.555168565205568 -0.04393912458511142 -1.5382390851134928 1.2420449156095643
Ni 5.66614959177866 4.648076740932524 12.688807800147996 0.050586454698299976 1.4655365152424438 -0.3357500774196798
Ni 3.177617445057143 8.485826166927918 8.879854495508553 0.8243720352721481 0.9368907086988704 -1.1660497910301726
P 8.94429938891002 3.466556564223178 10.858622728150175 -1.1394172760443086 0.13245269334648802 0.9867621396080166
Ni 8.331920275207024 4.777260813347894 4.975741836048022 -1.2649051080371894 0.39381535699352815 -1.721230924860113
P 7.327464988414578 9.004618800154551 5.582182229534853 0.6735269554614013 0.0743951270821235 0.2619851277223875
Ni 7.9869572180214465 8.636578998515573 8.569671062488288 -0.32342009509941716 0.27068882614397255 -0.35861978292900176
P 6.222139195272755 4.171827571242752 5.836907447498612 0.28341527257170546 0.19612040670877837 0.37644909780093877
P 3.278561065844391 7.874808809630289 6.718244418427658 0.5096852062806706 -0.23457871068497665 0.1260295634289636
P 2.6370732665635415 1.7002762527170439 12.81112094326433 0.49894853658945687 -0.20493389123535025 -0.801915763151161
Ni 6.740027037330721 3.3360747105355775 3.678173509617513 -0.7565357923544648 0.12669367937552375 -0.6841145011692605
Ni 2.7145928493174973 7.659633018972527 0.7490299980860609 0.9157174170553649 0.0251135072381761 -0.6014903013091254
Ni 4.473223562761258 7.9157803127529 10.65191907298085 0.9198442947395449 1.5420175783193184 0.5657581380148385
Ni 3.6207366350860926 4.277304287178075 0.5135923688329768 1.6266788632141407 -0.7689619339329596 0.13592908193086267
Ni 7.679949693396253 6.912449160442738 6.3812023966550555 -0.7279461536422303 0.18446148231361134 0.3346959251235527
Ni 4.45711096851518 8.417473306822183 4.826689829071367 -0.044970908283735456 -0.8595956343611325 -0.04473693789605843
Ni 5.205839369545018 8.870993025638448 12.899203734429864 -1.0190217709726708 -0.7919951616033393 1.049842098787637
Ni 6.603449267385528 5.063841991892553 8.262471612463681 -1.0125251075047337 0.5491488115929317 -0.9737909241593294
Ni 0.6335338623708323 3.2326360595559414 8.782862710088295 0.8384501106317688 0.23484919073754393 1.7617263138709984
Ni 0.9275023409319996 0.05246509275611407 13.12276209538967 0.17008541609759742 0.10142950549209627 1.8961209614352055
Ni 0.8597545027996575 6.234120823779055 5.6347917233057645 -0.3776269201591238 1.7316904296305404 1.8353336549445034
Ni 3.298694954173437 1.4113279942462738 4.023777232064945 0.20102401465798284 -1.509485410019568 -0.3125823810539649
Ni 6.876065588296605 4.801818125168205 10.522691131902755 0.7952108403271595 -0.7873450644258375 1.2141597591635218
Ni 7.5717220467359905 2.9603396143105556 9.049733150113093 -2.520977448274097 1.0340277574631997 -0.09592554495473157
Ni 0.1662037401709905 7.181345784327069 1.5063986978114414 0.5789406981433836 0.5050849885044979 0.35988168036056084
Ni 1.8975298667913931 2.6607532051293865 1.222883756005046 -0.683979518253293 0.20985601112731603 1.1767707769921023
Ni 3.484314233321379 6.046079628876597 12.249837854468291 0.7946516253895798 0.3563505272788508 0.19985596249181065
Ni 2.680329595869657 8.520473271174586 11.88831711889609 0.057504521974371926 0.2399338043493029 -0.6047936546507454
Ni 1.6816229317549092 2.2583130604715587 10.84293236978281 1.4992997277358178 -0.244374870839792 0.48687540747500657
Ni 5.6077859917472095 4.886959888070335 2.1162233758412796 0.5943878859363892 -0.1314119107867995 -1.2707011458936759
Ni 0.3737564367501068 8.682028760957854 6.731473562030151 -0.3041854152395213 -0.16429554888869768 -0.5683888907694663
Ni 5.252687445611604 0.40120359672731504 2.7745914709658637 0.33513069866812606 -0.4710479535244468 0.11022524940685534
Ni 6.998194117457312 6.446966091729641 1.045301581440201 -0.5332092575445397 0.2529502712136289 -1.00800665080909
Ni 2.8625581929612776 7.606743862476755 3.0105893395991434 -0.1328013349351584 -0.09955491417720273 0.04553732231016674
Ni 3.353329717873407 5.059007299688257 2.7348638272175534 1.2016444003053304 -0.32321774928062397 0.9548938301445103
P 6.724371408321344 1.8544197663610218 1.9715993620082564 -0.3343441982110887 -0.47495551610896913 -0.08349683227307556
Ni 8.107596040510508 5.656498485979535 12.4275689997003 1.0117573761007737 -0.8791532447780859 0.16299302802719026
P 2.463883441853866 6.74948621773043 10.358309769095728 1.2329460386320894 0.1626119905386877 0.2772546522869483
Ni 2.8020377170125985 4.16145446036964 9.559035529303921 -0.5633171326735137 0.5601991558698224 -1.1375090032780022
P 8.332770230547286 7.88640658733776 12.969295804226483 -0.8731959987533865 -0.5755005621135831 -0.22312650298397704
P 0.7873977132899493 7.582149993437508 3.6694390760832105 -0.7005957866537353 0.08406067519634557 0.11476427492778944
P 9.017505219829518 6.076924782353914 7.921669680723502 -0.16934031040145675 1.3410439572832968 0.7391615627420753
Ni 8.281480452379968 5.039604555737933 2.469932747657314 -0.6292577012303808 0.2695624258490132 -0.13127487098830296
Ni 4.225594100992991 1.1437839874625781 11.31630631420326 -0.019538841363876024 0.8626259365470241 -0.48429479123202407
Ni 7.277984792584594 0.7119756009724509 12.746794860824403 0.7135045242956034 -0.36356015765341254 0.9043325722571909
Ni 7.847884417883867 2.4328006664534647 5.551831512443647 -0.6728299293943767 -0.07112571230223234 -0.9304387824259396
Ni 6.316383705689967 6.997307604898111 11.85819397049276 0.21993962061556316 0.1330443041838999 0.10902968643685738
Ni 8.334387887485208 1.544807539886633 7.486378305199239 0.2946903312648925 -0.720507695086314 0.021960049210858954
Ni 7.385243672943051 8.581770588025657 1.936901077655077 -0.8647226711750527 0.340813093764884 -1.1286055301407854
Ni 3.7882875087748777 3.6854154946887507 11.420254024456579 1.5457461921238154 -1.0194573158481925 1.5762399898372985
Ni 3.5289140404233956 1.717019458989768 8.994154296234099 -1.4161255689094836 1.9591708387078384 0.978428680041657
Ni 5.5179192082975925 9.1943233485186 6.768713487029863 0.3613850043789647 -1.9493852200759847 2.05615567816502
Ni 3.4332529377724104 6.131852003805372 8.25025875954761 -0.061048787682204536 0.8639539113298282 0.6031743738797677
Ni 5.1682951056976645 7.101641907741682 3.00375405358857 1.2126479505046859 2.8072947249839455 -2.669849720629189
Ni 1.7002305561933737 4.843721837373686 7.611580382541998 -0.184032879416625 0.8085389248946333 -1.1061199474437595
Ni 5.3682539539732845 2.374601573907227 13.177537604382545 -1.019309734526735 -1.071748411942425 0.752663196772936
Ni 7.757295629360263 6.974861472471359 3.864933373996261 0.24797338682432776 0.8138783348296758 -0.05797709073541628
Ni 5.77173597937079 7.672217841591272 8.596316705440323 0.2585164524474967 -0.692449246287201 0.6032137117581354
Ni 7.325052211964796 3.4781726205401173 0.4746790371364672 0.14319887611939855 -0.03538017927150681 0.7178316909160476
Ni 1.066173011661282 7.675837006265945 8.932382649467332 -0.6282796535878276 -1.4905294377423557 -0.30795953756997285
Ni 2.1159866678486683 8.704639400869818 5.0164455575419264 -0.7145980144700983 -0.5892760186311207 0.41044319535819634
Ni 1.0623527822824617 1.7646443759587451 5.212542135636948 -0.7249888707861192 -1.0834456457746955 -0.6407567030089159
Ni 1.8230171152949297 5.530942717543571 1.2393756313975846 -1.0139135032118278 0.16951437408547582 -0.3219746209021423
Ni 9.143782993339471 2.1627250722584455 12.76890558076742 0.6359811359971435 1.9696334288020594 -1.941072329334915
Ni 5.075997267188799 6.324353179418032 6.69571877404972 1.4773916148088169 0.7820187671169176 -0.9173544384381557
Ni 0.21436879004974824 8.582218413957623 10.967105361412518 0.10253456563081695 -1.141589601105279 0.7232754876394383
Ni 1.2059221203491788 6.5884699469264705 12.476232141687062 -0.718044321147486 1.253901300727518 0.23433934098066092
P 4.854533634874031 6.9010341688299475 0.842771846742902 -0.45639755060112364 -0.23857343366666656 -0.8500923228563877
Ni 8.125929485806951 0.6416093520338122 3.70804349927971 -0.15885406615815223 0.6153804290276563 1.2952382118030918
P 4.870518278853831 3.5811543062830524 9.230982013737226 1.067363138390536 0.034579280636766255 0.05139120998778245
Ni 4.3542846509527235 3.3355354915562705 4.7840595421395316 0.6631337851525354 0.07759897873140184 -0.4476568282940161
P 2.416788604559462 3.189443705382964 3.4480083452654853 -1.0660673023972478 0.4503456879800889 -0.9586044462268782
P 1.5765940417515536 2.496583874192189 7.115440430029104 0.6281436422305956 -0.5746708671234361 -0.05087673224520915
P 0.188977059707221 4.168244963787017 0.8259984807645554 -0.39808441668252736 -0.5041822741845704 0.0523772280501356
Ni 4.7298917969114695 2.6970728021423813 2.2869053753319397 -0.7366992172445119 0.3283692115745764 0.1038352867201115
