# total energy = -381166.7044406816 ev
CRYSTAL
PRIMVEC
9.30145470670980 0.00000000000000 0.00000000000000

0.00000000000000 9.30145470670980 0.00000000000000

0.00000000000000 0.00000000000000 13.61361916872167

PRIMCOORD
 96 1
Ni 0.16296892724540848 0.846893728489769 13.516063791577128 0.9715666628145009 0.36061341632026284 0.4646237951656578
Ni 2.3263217210891285 8.822122820742823 6.297632677443741 0.4567618759190779 -1.3881439960948931 -1.3307965685236758
Ni 5.579254357900575 1.1451857993657508 10.990179360220761 1.2873099580949507 -0.14969991046270992 0.5389327902918783
Ni 8.023732457853592 6.942317431808381 2.6780850645129206 -0.41143178452371076 0.04802280773618181 -0.0787505758373418
Ni 0.9752389208156357 5.3685019976472494 12.436613232761394 -0.5092306352417553 -0.024894449248834546 -1.2084848202659317
Ni 7.747628076983272 5.8529496620074735 7.804892482751637 -1.4536945283021931 -0.07785274661342075 0.1805814305329148
Ni 5.03950954543787 9.10752865629817 8.884888106811912 -0.10985552477226242 1.1070170053367323 -0.10415230373989803
Ni 1.4039429672484969 3.4862503261306457 0.41067968754421746 -1.0260552807806844 -0.49183712235565624 0.6138449662197364
Ni 2.154644771967598 5.691383394128567 0.7870518896281838 -0.42434617859253365 1.2404611160622119 1.808019540510583
Ni 3.2900733453687563 6.479365429225253 2.83359329495547 1.800057862461345 0.021030338307737977 -0.5595473812184363
Ni 0.39534716964142014 5.23248682578811 8.798100883873273 0.518979487098403 -1.326890034380418 -0.14859433610335698
Ni 6.107530476736643 2.383135006305269 13.100984515966893 -0.5274502435735755 1.8063868900031663 -0.41668506250285015
Ni 5.592378710461147 1.4630630132265239 4.61095990315278 -0.4472778476880426 -0.03234524909992494 -0.308991578378913
Ni 6.989866468158235 4.368549111733499 3.582205992952314 1.4475354506793328 -0.536732697316766 -1.5205311263107681
Ni 5.758651514410677 1.6978875382046976 1.6249622731831543 -0.5472814193668897 -0.10494034685883218 0.8153135246143056
Ni 2.321196619557679 3.644579687779163 3.0171723854919597 0.017064925902086737 0.8278093430884711 0.7332482825814339
Ni 5.674185004415953 7.9428470079126035 11.798365085038792 -1.835733975706716 -0.7307707675752189 -0.054004736351229564
Ni 3.4615363610325307 0.6916766335788614 3.9104980456239113 -1.3389081418872169 0.9063616868720777 -0.46678326471082193
Ni 9.123536459811099 3.2149734002418544 4.468480220287548 -0.22671139212175792 -2.164212973386279 -0.31453693367717445
Ni 4.031808547771493 3.466763778565516 7.348168734225602 -0.5203979647124845 0.21352368978689032 0.16865074053359988
Ni 1.5711831224852697 0.30659082874596233 11.54558782237305 1.0692503281109198 0.9149095764420889 0.6073470172002186
Ni 2.3154297176529623 9.286395629891224 9.052035247501834 0.010825372750278131 -1.5720454921399762 0.5843721535716
Ni 4.340747063679955 5.984528039981855 11.016167624610725 0.18949338831056398 -0.4162585164883928 -0.26890293788814335
Ni 7.936531320181471 0.8202943585269994 5.117495731953536 -0.8441533316641333 2.4269326652818464 0.1692060988164376
P 0.45684931816428237 8.487661113178648 1.7808109368671754 -0.821099020947831 -0.15748855326919328 -0.29078971065890563
Ni 5.380649697465894 5.914581100750458 3.307728436506405 1.7610490852983156 -0.5733521483120125 0.35092292850537626
P 1.2794243933800502 0.5866250742207061 4.410308922687393 0.40089668932034184 0.7492397729136838 0.33677620469134906
Ni 7.7200585652968545 8.499306534444301 11.404210361887994 1.1803965466701478 -0.25995035668054584 -0.46811946702374213
P 0.7006674196774079 2.53221872199687 12.10254869731227 -0.018243005370587935 -0.017262900845505753 0.3838564460086034
P 3.9673494668042606 2.9424686823346393 5.257947697697433 0.4468104211333208 -1.4642481354483232 -1.4065834337470033
P 3.7176612172394146 0.4558224375670555 10.822582029124083 -2.5250680734037028 -1.1122527998143747 0.061497959404481176
Ni 4.332785018469573 7.946000201050827 4.379242994184874 -1.2137599526219418 -0.48248576304774327 2.1554298278770103
Ni 6.528477109962192 8.155441056193565 4.757687560372664 0.559176885252895 1.2788170901325913 -1.1572062245966135
Ni 1.9146858440032901 4.597792763900657 6.817156127421199 0.29259411085749615 1.1374902342249251 0.24647134835750456
Ni 4.840969995185985 0.22902041725471714 13.231757387965553 -0.5062237300946314 1.0581200225257132 0.3337968103480509
Ni 7.276388478275785 0.3040775756900682 13.71830811123006 -0.5962575921552763 0.9708282419865797 -0.3645009243001271
Ni 0.5729519358337175 7.737256955009468 12.813506316307723 0.7016031448723272 1.1456596574095947 0.8372144384524549
Ni 1.595757565763109 6.980927770205925 7.977186118318784 -0.14925690938802036 0.8696964702405602 -1.93636798188071
Ni 7.379550912187412 0.16749687538607927 2.5121889694781343 1.7671379718048728 -0.6190756184910564 0.35240876902228335
Ni 7.187187527846383 0.6911752851713384 9.293460084724503 0.14742037039991385 0.18658264242167222 -0.523800305525814
Ni 2.888194694247511 7.617277491027314 11.941635391552254 0.4798395836741478 0.719793956848741 0.2812820282787865
Ni 1.2165000524358476 1.0931069545842886 7.344248171075863 -0.3950281463547068 1.5742275873929599 0.5496548046950727
Ni 6.819891685244066 3.3388129679182943 5.5781121392652535 0.08005566780201051 0.3092016375071901 1.7668582357809248
Ni 8.715277010775926 4.301336800179499 10.70221097389969 0.12490830534032682 -0.04608368173193999 -2.247536513306284
Ni 6.17205466788667 1.3658256059492593 6.956940248718712 0.44692432100336577 -0.8177185345113724 0.6760013851438228
Ni 3.235148255453676 4.823734399654629 12.713731472192384 1.2524288299470496 -0.6756350029433396 -1.155970038196667
Ni 2.2182202147397527 -0.3153769828414381 0.48886399504467437 -0.5476354602721988 1.270854897862721 0.35117541083581455
Ni 2.1540773832318116 6.821100874353119 5.047154411043493 -0.38830651136015704 -0.49093980735236736 0.032210009073641306
Ni 1.2164349422530523 6.497066097490858 2.8623859479329683 -3.210112028365768 1.8063938319817017 -0.6954458670216798
Ni 2.9141643557281047 2.165518172494394 9.422652639572176 0.8720030068865497 0.6637865882451859 -0.36175061524849955
Ni 6.84464285616092 7.472565459037675 0.36350642996363813 -0.178948265804866 -1.63261219797944 0.07249276785308804
Ni 4.780743076100439 3.582157625387952 3.0223319024057433 -0.22954757601897244 -0.35084091031453124 -0.00789045849167028
Ni 8.111073117345988 4.110266318039689 12.726909773190128 -0.6412395561826053 -1.1077330575671502 2.122317618704074
Ni 1.8539287420006985 2.561546208618758 5.6593584856480215 0.31231318655297824 -0.662231327942924 -0.8925170676795016
Ni 6.069933996899767 7.048279603580201 9.569884435635986 0.6743530509071225 1.7132083116659527 -0.12731511500960654
Ni 5.553573041515217 2.7592114221302513 8.96151907137997 -0.760903068184225 -1.0445685090935235 0.026937962041424575
P 8.800357416779862 7.134318059416694 6.451425719642372 0.6100639019107493 0.2052010288538079 0.6064764416698072
Ni 4.18318042131561 5.057963631532962 5.03687537347107 -0.5094625487469032 0.19764532799373702 0.42387669515528287
P 8.3967486950872 6.548345017169408 12.065573554648354 -1.5959320689495868 -1.7423772199204253 -0.37787143206976215
Ni 1.8719642626349644 6.556437282745382 10.164472485212544 -2.111074955910719 0.015472898824618513 2.5472852329306903
P 8.68101045171629 2.316945854766622 6.724569447486448 -0.14576278019183284 0.2072442845360818 0.17757709648895223
P 4.130952753259187 9.24754345367187 1.73400787718306 -0.3876627071285711 0.833635462851945 0.49658620700486733
P 6.641973460028883 3.102881569832603 10.956553671388923 -0.28571949522484985 1.347312563900828 -0.4447908196001307
Ni 3.9017742112748253 7.532411018481134 0.40304784397515336 0.4221684542149245 0.03028733812963171 -0.050445558245061514
Ni 0.6794415000861778 2.7874506385539912 8.824973716603784 0.3989987009666806 0.1932741955092349 0.23592442607959369
Ni 9.084851709776077 7.438801178531029 9.487263334250773 -1.1581583040972376 -0.6788846202288888 -0.006186588426686119
Ni 3.0859529223058546 2.182911892755393 12.917854685691688 0.4116629266979104 -0.14749390395032663 -0.9492422882856877
Ni 6.8725379187613145 4.79734617271321 1.1453364829316484 0.29173227707783306 -1.034055782487658 0.6601942429082372
Ni 7.914356652212368 1.5416882096790514 11.684146942088544 1.460512065444659 0.5695718553339739 -0.18433061316270188
Ni 8.210105705377464 2.591050422879661 1.18181771835179 -0.8313726349596973 0.08878687702742129 0.3642638685886565
Ni 0.03784761911337194 0.2699393767050848 9.940978062186202 0.0882222627732029 1.5185344075957137 -1.0965940102311955
Ni 4.331082852262213 3.3918870683510542 10.9183265529244 0.5627810576643857 0.8388604586963101 0.7747448591633239
Ni 1.8345817162558438 3.825465077038869 10.764260978103499 -0.12178235811683541 -0.09019327045664467 0.3130233252461254
Ni 3.6372408400326774 1.1337450101031685 7.30106523755516 0.17551352909170417 1.7080661053433808 0.0026088983777567973
Ni 5.939657822581288 5.4795148593130385 12.470510524070036 1.436250878904449 -0.4218684064760025 0.1752808442556078
Ni 6.549972771739288 4.967562793449191 9.579250070358341 -0.9029485474254708 -1.636489421546659 1.2058270709281105
Ni 3.1285535847632753 5.051136363794153 9.250971969868772 0.6793016531616495 -2.2575694720622543 -2.080287538216217
Ni 3.7596665865969934 7.2857643445982925 9.333007079608828 0.24691640631472317 1.0083900022904375 -1.335871669053738
Ni 8.764611926425305 5.845099234253311 0.5990480970980271 1.1772346040023984 1.0742783774531304 0.29889099960980137
Ni 6.609892742820227 7.801362580698669 7.000394784716217 -0.4146250946500279 0.4045425136030452 1.4015013912384056
Ni 3.2301254699237623 1.9926227328091255 1.7428154246243115 0.4474922776916938 -0.5829297646981186 -1.1164460119601158
Ni 0.8050557853165209 1.7314657896176426 2.388400559802462 0.19905454963643782 -0.9342812961004812 0.5464267846760782
Ni 8.915760565056983 4.7109635630533715 6.127979724861673 0.7019433018205653 0.21759528875310266 0.5615536130151877
Ni 9.407584282982432 4.470632576901663 2.5716122428788935 -0.9507317283470207 -0.20942278024463934 -1.4862171835202467
Ni 9.053691836581237 8.341349230983184 4.671240770675499 1.5152004581264742 -2.226215640341321 -0.8095797074543217
Ni 3.6724282431061317 6.595801038972413 6.879941876690594 1.2787119320132945 0.18249227440238247 0.4658219292388171
Ni 7.220691367621848 6.054270347210182 5.148779314495684 -0.3699251806394919 -0.3146217800814969 0.5418175680388412
Ni 4.917000085781388 5.76879940147204 0.9538855712952208 -0.7901915327356971 -1.0240819591043977 1.1083390665822654
P 4.423660230742279 3.7457702132975643 0.5539462734758033 0.15391523409563812 -1.916186878947145 0.5319329619352774
Ni 5.620673735612997 7.934373382694545 2.535563525101606 0.1604414652499301 0.9497961039066286 -1.7264937159209492
P 5.44483903624726 4.974194730639615 6.933415939674811 1.4294983906719638 1.1147575685140996 -0.04057123655414303
Ni 7.762231360838763 3.2468308825380694 8.60062169945548 0.5707635616492299 -0.3031819136756714 -1.108044418159982
P 4.608545245516547 8.682889345562666 6.737788674884807 0.43432977216780677 -1.0136545931234866 -1.0638065313875291
P 7.2612271071391925 2.150896285729533 3.3586706435253566 0.3763048589135906 0.9288606393055422 -0.32195276652527133
P 1.2944555441510528 4.953136237232716 4.403896499827535 -0.43645993113693216 -0.7969843872878145 1.282435917832101
Ni 8.598004270107115 0.0023858231267092416 7.360040180840101 -1.0818034821855822 -1.0999773248811313 0.2714521866725583
