# total energy = -381176.33173128474 ev
CRYSTAL
PRIMVEC
9.15657642073529 0.00000000000000 0.00000000000000

0.00000000000000 9.15657642073529 0.00000000000000

0.00000000000000 0.00000000000000 13.40157515267478

PRIMCOORD
 96 1
Ni 5.305750811543931 5.6109120381898965 9.437322679859168 -0.21081863215090144 0.26927240541242015 -0.06653089384269832
Ni 1.1542047871448737 2.296615903694734 3.7001753303928506 -1.5516592151741404 -0.16267061169076502 0.5282303162727097
Ni 0.13910030132765777 7.085661100582926 10.867015891685565 0.0024962840592924747 1.668696602406823 0.11457349907322202
Ni 2.529531741369695 2.6766687699343428 1.699856171587069 0.413849649936584 2.004106522878265 0.193110416237861
Ni 0.17312888675642127 3.2582945123219473 12.634616994869843 -0.8046784134979625 0.1658963177169143 -0.4603974157891361
Ni 3.2468396350592443 2.7996873758691265 4.00704425856519 0.9494680311432486 -0.4801470876122376 0.3322343509569375
Ni 3.3170156377301923 7.609518001523375 5.987609019124324 0.9930513150508381 0.14547404530682043 1.7970918378544858
Ni 6.257851641100971 8.379357174874096 6.176892853886011 -0.992063240105956 0.04762505807713088 0.14180045310997513
Ni 1.0189255252110816 6.93596023058458 1.4023003974226393 0.9586646100408521 -0.4772373701646104 -1.0321230842413192
Ni 1.4118250683488291 4.631405575021929 0.9089229928405921 -1.733335935653763 -0.09457005936810164 0.1563151017863824
Ni 5.26222044663035 2.484472228172444 7.864084564448264 0.46767080952209783 0.35184826853312307 -0.9141690987316385
Ni 8.170248436226336 0.8198340813078433 12.068346831354782 0.02818263308180308 -0.31242554376112647 -0.44377651940300344
Ni 6.920787783243014 4.047225147777175 7.371134771991051 0.3397409437466278 1.2598004398207723 -0.8934938297704741
Ni 6.316957342724271 0.39833488697718866 4.218346912954072 -0.36978968350289215 -0.5528699691982607 0.5578939047754133
Ni 6.982072750084957 8.57049155375632 8.391557397467881 -0.10687124533295787 -0.2212953633125092 0.3003449584475086
Ni 4.04888248813253 3.2175660598323366 10.129821745047064 -0.5133024913182836 -0.4215269639761837 -1.1493887854347236
Ni 5.9472788777145915 1.1583252465918892 9.655392959975359 -0.4960169647649586 -0.71468157532284 1.7023392301619327
Ni 3.82021530197627 1.0204546734947517 0.8700917830119184 2.2757793102020614 -0.2864219206085132 0.30093605506428817
Ni 2.4135820125306795 3.192504509817934 6.1990728292604675 0.32024375425396456 0.43823784897296136 0.18448745045554032
Ni 4.59287470090406 1.448735228417539 5.502888242011629 -0.17212790044892293 0.7079743385059936 -0.5247935226770188
Ni 7.637033514052889 7.767496416721947 12.99294771456244 -0.5016625930865103 0.3087290687461457 0.2455802040018029
Ni 8.169607475867911 1.2699805410294593 3.2528033133655585 -0.6583368779845242 0.9576181710542089 -1.0367299868857114
Ni 3.418589541387398 5.328239363548086 5.023875674719532 -0.9704497756012382 0.3553053738437881 0.21969048071923453
Ni 3.4471122773372938 6.055509612522864 0.5446853656162839 0.2117000063145902 -0.09419673518908293 -0.47776470342299004
P 3.231731283753521 2.1531689754793026 7.89179877468889 -1.452392264551002 -0.3818499571015359 0.5286458065435734
Ni 6.180496882415667 5.571538759029526 0.42925756164055734 -0.7805195568635719 1.3164318151615715 -1.3336816033809549
P 0.135994390562263 0.19468621492555127 4.674777531161214 1.0311465792606629 1.5438404904606704 4.271405563523457
Ni 7.324299798600964 7.165689579620515 2.0446919287618637 0.9109385076094829 0.3508092857456474 -0.7049913446182698
P 4.895288954585348 7.044850238904375 7.497926803121646 0.424698676835946 -0.383925608683642 -0.07036312310459494
P 7.808325591553595 0.5185744719293743 0.9580910619353452 -2.2973822331838174 0.23353407147054622 1.0958969841641708
P 5.609620960896498 0.1635666738663807 11.681496122685253 0.5687516734255237 -0.15167837434531942 0.28153811015365066
Ni 8.346411812451072 5.641733074853573 12.586934122491327 1.4096242774558563 -0.7571191756617606 -0.762742692496125
Ni 4.12839819888338 4.819289369229286 7.348203957339583 0.8812895743947984 -0.3172777296471052 -0.3632817071810453
Ni 8.647470892803119 3.8609895373486247 2.815804781910541 1.1981029628109754 -0.8982781385329948 0.11351883255646257
Ni 7.062925321011949 2.904383672129515 11.967861644649243 -1.916696728704028 1.6417329293337855 0.2078554357575194
Ni 8.125674221586179 5.86250729202466 9.32993526575105 -0.5577062142446395 -0.2275058629985953 -1.5074434398888747
Ni 7.110612771678742 3.563318390319679 0.7974865405825412 0.982767673736643 -1.3104876817629947 0.9450683594136563
Ni 8.526897092806896 2.4816153762891795 10.387748771565409 0.575324698657351 -0.2251211648165026 -0.7344063074452771
Ni 5.019040086644047 6.55404857930554 2.1917877527320413 -0.8500028484663749 -0.4118639869651229 -1.6038644364227863
Ni 7.698107879634207 1.867144993820587 8.284505114061455 -0.7959631451121517 0.18775712234574762 -1.523475810761389
Ni 7.7966143301475235 6.8759938107656815 6.938169712505836 1.2003159113018942 -0.8265155639777121 0.6188827857539599
Ni 4.702021093367225 3.655534272743885 0.5762142056471913 -0.44008930035940336 0.20528767503034323 3.274018340101426
Ni 0.7995843122698995 7.660694107855306 6.061210497082224 0.10766648754074361 0.4436330518466037 -0.47494266059316265
Ni 2.7500678875505113 8.455951937705839 13.118856136056065 -0.09554399324559675 -1.2726392434566534 -0.8071037351100034
Ni 3.770513404468714 0.3912531906742514 3.459469077390066 1.671602206089392 0.25507065999074136 0.9400328538722778
Ni 2.153947284485961 0.7109120249701267 5.5807246366234065 0.032954857659465826 -0.11422614303613231 -0.15449887451325003
Ni 2.249505317350524 0.1598912240396429 8.391919082241564 -0.2689469037522013 -0.6998887332843817 -0.04581911521664367
Ni 1.7222330133573276 6.110211000826132 12.354027441392914 -0.0019072443250418767 0.25718873477500864 -0.07606942946075286
Ni 1.7254561283025485 2.1470249126149747 10.705688000785397 0.6651631568777384 -0.13009859129201465 0.15585667409272513
Ni 4.303462785922243 2.2694849673802744 12.305982884240715 -0.28795404098232347 -1.5989348603316527 -1.5982985122992344
Ni 4.311960088959644 6.853551041644271 11.592697474629107 -0.4071084745580085 -0.19105687614294192 0.006854046807355937
Ni 7.359387799936438 3.0755200878288904 4.685767254335231 -1.0350052908851206 -1.4169544925686823 -0.8354907708931287
Ni 0.09634824542073513 0.6644863505517761 6.990194633483852 -0.5377639667947578 -1.1383829212425232 -1.2441164534266123
Ni 9.125526597845852 3.1039054751305524 6.110742997923625 0.5367848907109402 -0.058970822107253275 1.17209548300362
Ni 6.028992166837184 1.5456209648816959 0.15609307608714953 0.719694198046083 -1.3522303129174194 0.22010725654167898
Ni 5.594851402923085 2.306596572133061 3.0854311662854452 -0.4722010932922835 0.8642691285774019 -1.147485911985056
P 2.6597840427781283 5.204836181398248 10.650795240032258 1.9107747067926384 0.18879481958164257 -0.4553817077420996
Ni 5.163668213234289 3.764790544125637 5.169818685702201 0.45667960061791674 -0.24572392866851878 0.24587408109313783
P 4.351543969380639 4.2197899894181825 2.934140714598206 2.104364376659763 0.0931469537683299 -0.47634956824301833
Ni 1.8507547217980143 1.6121343369330743 13.009204300567399 0.42687177322786485 -0.6338124104805988 1.2249362809537356
P 0.45605336725332635 7.58582993799131 8.363413743787111 0.2918603180152651 -0.1055152455256957 -0.4466227306025469
P 8.933595596803872 4.1079881897558295 8.2877886624119 0.6040891723845532 -0.7828214655238712 0.07680322230298385
P 6.750869192224645 1.5516276790977894 6.098118825835624 0.036610195023865984 0.11448145358004799 1.3681320717493406
Ni 6.461731974539296 3.482676420653312 9.708677825886507 0.15909754962752598 0.5257026647548495 0.06669287334185933
Ni 0.40635055408811604 8.921316627651766 0.37907585952183837 1.9613498486370287 -0.6999375842444462 -0.331391543340668
Ni 2.469977367495498 7.580537436746033 3.9923964830598773 -1.15086074199456 -0.24753887039007047 -2.007263580450007
Ni 0.8955379092413761 2.1274115256471813 8.569623510299483 0.06678389039376886 0.9037651297894952 -0.9156199722455522
Ni 1.0838914358256921 5.510986318311496 6.991588264434599 -0.809042089783297 -1.2050701381574278 -0.264035582493513
Ni 4.735222839933622 4.510859244755355 11.950399137512793 0.8156217998833437 1.6110529837514254 -1.3018875987988094
Ni 0.6413751513422938 4.520940635535719 10.554129261405274 -0.853220069852092 0.11468765605358312 0.559296698660211
Ni 2.659811512507775 5.376302233853385 2.780933791439277 -1.1124299488221874 0.355831164440271 0.001992090729364311
Ni 4.402482004722299 0.25359047186477457 7.369057144772101 -0.06293006386531742 -1.1404570301627326 1.4677630905801176
Ni 5.901056479295627 9.151458022632402 1.9972095854097671 0.009639579972293075 0.04283946376302944 0.33501654168776496
Ni 6.700443925169726 7.3539213237367305 10.745490723385911 0.2332023991627403 0.4176248007083001 0.7770724788552359
Ni 8.898525908621496 0.1427968112804581 9.542752417901124 0.8866199854687762 -0.2034881599277592 0.8933914998646549
Ni 2.4837763283547254 7.761077656561152 10.299392386156573 -1.319580130982566 -0.5948069757516788 0.765741627223449
Ni 4.99715586869212 7.3726007398965345 4.080431472631845 -0.1628559882286937 1.6727810568888417 2.3912884337156752
Ni 0.14581115628036362 6.079463216774848 3.3997920053901134 0.3468361600305124 -0.7939155185545036 0.4746662670033245
Ni 3.708853017988265 0.5251031110087565 10.730145216747571 -0.46067123827581313 0.8663746049561789 0.19482045695043224
Ni 5.984582770574906 5.904068992980223 5.632012453189235 -2.0994432852090616 0.7137413228967578 1.4073622208945566
Ni 6.603823729425487 4.9496332364032085 2.97292522588648 -0.971978810651255 -0.03655388786463382 0.7365336382009251
Ni 2.1836970016934125 4.044936003639944 8.788525207566316 0.6144854280172127 0.861204116498833 -0.8370370323343261
Ni 4.822503327597958 8.028687762779983 9.506300086659863 -0.3967204464554651 -0.049089044217167074 -1.276583315706066
Ni 7.466675407360171 7.289330832760626 4.374797095526629 0.20922197708774287 0.7085800904107926 0.3628993841409621
Ni 2.782244097543428 6.5322925534252985 8.232520482020254 -0.05189308932486547 0.8779029173107525 0.8037080791648932
Ni 2.0020946189986177 0.5209625070933335 2.107531682301814 -2.577883674542838 -0.31677636453065444 -0.07835565439176827
Ni 0.1145112306631793 2.093935081784318 1.2821194145603667 0.23949980213567787 0.19598182424838506 0.32191625686038106
Ni 7.9921255526201325 5.1223262701159005 5.272045453267345 1.9792712090021396 0.38039008472655783 -0.1265278432216208
P 3.261215460241054 7.996731310624241 1.8499938102867988 0.8948035497208331 -1.120946728043947 -0.03969243349361551
Ni 2.4610863316664937 3.6648922939768847 12.502597474187468 0.9908494223035129 2.2218236819212125 -0.8761283419088329
P 8.270201625834382 5.338467259553234 1.253408968791218 0.8914174068574197 0.39192791016282824 1.5776471545974702
Ni 5.252770859631861 7.981275009409658 0.06573964133299448 -0.28244211002515873 0.016451203577487798 -0.3440292867093365
P 1.287533698273745 0.15840877429637223 11.65205315079219 -0.8023348529664504 -1.477387501043759 -1.926195669333399
P 6.990423547897575 5.144045669689947 11.048003868093929 -1.5024727261471609 -0.5088015181241367 0.06416239361052176
P 1.0701199446961114 4.64321755877004 4.857508004086836 0.42313878854799386 -0.11497973337270521 -0.5380760987185379
Ni 0.22155252617774698 8.37592345866825 3.0296804343096713 -0.5357065700450968 -1.2945535270312414 -2.4956996475439146
