# total energy = -340866.51398834254 ev
CRYSTAL
PRIMVEC
9.37117435880550 0.00000000000000 0.00000000000000
0.00000000000000 9.37117435880550 0.00000000000000
0.00000000000000 0.00000000000000 13.71566092693074
PRIMCOORD
 96 1
Ni 0.6823545605454382 2.06482580542615 7.980622302914635 1.5588266794568573 -1.2362907867346062 2.0780162256835375
Ni 2.425156828873948 0.6310173934327045 7.623410943395103 1.3673699967723354 -0.1678027907110078 -0.6622711800419239
Ni 6.936084037760034 7.020171584856263 3.9514409260897603 -1.2352523181677628 0.33479774080873953 0.347905224724975
Ni 5.8334716682802314 8.072788739384725 10.456037676738074 0.006755059335646431 -0.1788467072299952 -0.13805512713492998
Ni 1.8954230873988986 5.795499669970422 12.956869549528903 1.3301381090040705 1.1280200899509605 -0.9164311552929378
Ni 8.958514650601392 4.800712032117634 2.5452699813755078 0.6592835581685098 -0.0982963591797533 0.8571003787431046
Ni 1.5989847304062537 7.479574663124225 1.0307935637920644 0.36557050321522205 -0.13910285167315398 0.6323165426613625
Ni 2.1540581272193395 3.856378796757446 3.597837468680119 -0.7027442004553058 0.09741087125100643 0.537676549287274
Ni 4.342433494767041 0.8383283857844477 12.058479433347806 0.329122287690517 -0.7806002895028362 -1.2587938529331288
Ni 7.32242944109629 6.701167440121757 8.833297019452411 0.2267129347836547 -2.1952415605573097 1.5914766042813946
Ni 2.248603904847095 1.485490438320839 4.079160660779886 -0.02247632672564516 0.8104932204075268 0.465945599300875
Ni 8.70981305555104 7.675994476691254 2.325366942101531 0.37701911137179583 -0.09352747703620022 -0.5262855338415131
Ni 8.496112796553781 3.0268237043633346 6.882257886750192 -2.361028349279553 4.133250420475553 -2.455585038911216
Ni 4.143174215383656 3.920299576735533 12.616748400601079 -0.169072915672683 0.1159960904523615 1.2100876459766774
Ni 7.8547589978555985 8.917834382915588 5.142097352460066 0.11331365852419195 -0.9956537856706917 -0.36241781651885324
Ni 7.69792302457994 9.148112249269719 8.54053591125956 0.1929569213791322 -1.0148406430117878 -0.760253093305052
Ni 8.792626122940916 7.647637303224944 13.521131382754321 -0.11313573818543096 0.9346764746563708 0.5847058827619349
Ni 6.1166966694937965 8.849368583396469 13.498075482595972 1.0858509127820783 -0.8148594677960224 -2.180532279371593
Ni 6.088264526632996 5.400139196946596 13.334351696201434 0.40138288492814095 1.2287073179603936 -0.5087500960609109
Ni 2.466136974137718 4.815003072942526 8.897061300819498 -0.4357274238462819 0.390675782923282 -1.248406339051218
Ni 7.867063349726472 2.3275560484206745 2.277252521834489 -0.21500053144273296 1.2485909442581982 0.06934316648051284
Ni 4.814881247676476 5.678622383958591 7.119223960210373 0.47766931549570635 0.19510584940133496 0.614693944483593
Ni 0.5778565957989715 2.1045595845065033 0.5942955097760365 0.2947738921176343 1.636357266844169 -0.4239183470264958
Ni 9.04732526955057 0.2737619893939094 12.329295125538208 1.541333150657784 0.9012009686067447 0.28306251721797704
P 7.9576076359232575 5.99979126995903 1.0806238460755244 -1.2264707153203909 0.10411707962658844 -0.42263845187280763
P 2.556540692719833 9.226886340531381 5.410019226023109 1.5962431724321025 -0.4469739432943786 2.101618181373193
P 7.058265408432121 7.428960950668331 12.004261567251746 -0.418100454793138 -1.0246476017998805 1.5611437576258083
P 3.656369823429149 8.831441526938754 10.24665471774608 -0.6702040617357554 0.7548414353711774 0.3677505415856763
P 4.149434159823674 6.196913921599416 0.12243814084821873 -0.4735177552211781 0.08440777412311914 1.703563332377021
P 5.856018713673469 2.3873066558301868 9.96508560303334 -0.7295235254316791 0.30927465683697064 0.7521564323398465
P 3.190931708904643 4.896907136424197 11.120342418442316 0.9100170242364779 2.6211800233376277 -2.615477830746528
P 0.6368443896195355 4.09667444845047 13.09428657539647 -0.5820139377520686 -1.1350065485711225 0.18930646911073848
Ni 7.679002623645215 2.0666719267654967 8.713202609299474 -1.0746025935617687 0.961127469759048 1.7092773520426625
Ni 4.599644116092149 5.872258958755133 4.598572990868355 0.6057490765854794 -0.22013091069076282 0.3383101248373722
Ni 3.9987925327678533 7.306451588895345 11.994976607744006 -0.4526553099498721 0.04658813217218428 -0.21504398308615869
Ni 1.4307440379936165 8.548863136752676 9.469456376229784 1.29112804628946 1.025148709806015 1.1554887276848744
Ni 6.904475066807668 7.331360170215058 6.761588086494534 -0.5691072569927296 -0.07016283416833077 -2.1827375145530277
Ni 7.634648855629338 1.3672918167310995 13.747344033692166 0.02248018338038709 0.3099104906487566 0.5115212310481448
Ni 7.143271330610867 0.8611322013538183 10.98690251895251 -0.47111377376537567 1.045519560152883 -0.05740656294392693
Ni 3.9911925104013046 5.082587584230357 2.3310721130223135 -1.2750347402720237 0.5340109275102286 -1.2572478486022476
Ni 8.846875851029635 0.5854594295178136 3.2891659807413673 -0.035232597950048995 1.052127295277388 -1.2234879785429833
Ni 5.6378202910067365 1.9237240338193389 3.130640384737363 0.14522953339618214 -0.2740518290789345 -0.20405663083671957
Ni 2.3363462099247716 0.06504813224774908 2.380064612322334 -0.2866119251321322 -0.08691665658790192 -1.893868675065919
Ni 3.56740926569099 3.7308987727277456 5.7375904983131 0.9452231398239656 -0.3850990601664529 -0.8525035034010414
Ni 7.86291191950652 3.9306078684780776 0.3038350248766362 0.7789177595940908 -0.7823170150836268 0.7357849329603586
Ni 2.098271526543551 4.070556985644586 0.9784668006720464 0.21102457751412043 0.05838512480711235 0.7445127997516597
Ni 3.9686267226594443 8.796234025050808 0.37739780610372703 -1.9347641277286998 -0.5931822956640622 0.5846115232759158
Ni 3.4712329037330503 2.2603366150849733 2.3326361620148868 0.20680591144708257 0.7442708589441828 -0.8759398800471108
Ni 6.876427142093636 9.252544615796007 1.8433437232807017 0.49882280964486997 1.235666008666414 1.1843082230197282
Ni 5.892032136552195 5.621786211759925 10.701081702454687 0.28788744941044614 -0.5705745855668753 0.8293772017962232
Ni 7.53687939403846 4.667425819886534 4.897148912721431 -0.684387552324989 1.1722780313280714 -0.13167699152272805
Ni 0.5836695352243354 8.55377363209185 6.815174335442005 -0.6066957567694647 0.4134279890181331 -0.48665789214756183
Ni 1.6779181316312102 6.309892799097702 4.978113047419669 -1.485561552214119 -0.414903288012079 -0.7585047431553775
Ni 6.244275836569252 5.170151836996117 2.679902831355156 1.854045372421394 -0.8955905643985027 0.24656930738794955
Ni 3.159669471401799 7.575001331137252 3.7944240891498913 0.8271004899469045 0.6531622757621203 -1.2977470942678746
Ni 4.463865171494215 3.9020820138741636 9.280482897770595 1.072240006866863 0.02210300254662645 0.5528008065232222
P 7.006152308086402 5.032067583517578 6.979652501368614 -0.5728003895736006 -0.6930123178795227 0.4959400887804362
P 2.8442170017313155 2.84932429173103 7.609901458507783 0.4039866410995752 -0.6829896435361978 1.240367270796825
P -0.09637690508820403 1.4747323302113473 10.078830105472868 0.7602224971774326 -0.35683852265886284 1.3040923197596122
P 7.854580945543682 4.723409215222863 10.278639472788333 0.8691082018372581 -0.03937541647382896 0.15003106854988355
P 1.3881145660510394 8.033804654249284 11.967874234517994 -0.7490384555361551 -0.33482576583319756 -0.23731230756605584
P 5.0571448459748956 1.3096684658902757 0.7087250450577294 0.46814852048946476 0.7685202184098506 0.19352102141271835
P 9.369534355899575 7.410256086742768 8.531429004063739 -0.759493332320892 -1.3148181908175485 -0.2715149215896937
P 1.8835591807206613 5.797336420135458 2.6903545020646655 0.029745092472916512 0.8717605518584406 -0.6466658694044992
Ni 1.1302198490011994 6.119423681218414 10.558082268049816 -0.5085045557090081 0.7483046626939241 -0.026260219248109614
Ni 8.537449046441385 5.646676050731014 12.40733732808615 -0.40538840654310826 -0.6426230667936932 -1.416276492665051
Ni 8.39071519907342 8.255545380805728 10.63010349110268 1.8343509793162602 -1.1206279112519475 -0.8835133215189945
Ni 0.2906497826204907 4.1808931919870576 8.955051064575898 -1.833990767763364 0.332277288379731 0.5071588403143911
Ni 1.6265640964047159 3.5891129053962016 11.115541565842584 -1.123610133808723 -1.0895126779043816 0.043707211079963434
Ni 4.459441977219233 1.2099404288683138 5.311060562412114 -0.8945315270063692 0.3062626094835242 -0.9323606820390007
Ni 1.908186626811031 1.0387103318503386 11.526257645093079 -0.6570932353854103 -0.6478457486452134 -0.09120011445460423
Ni 4.568653642644335 7.940636439245305 5.821228229042382 -0.32651338931276025 0.5050369088753818 -0.40713444269993754
Ni 3.0593979062697754 1.957375920771591 13.66675099749666 -0.5406587718440495 0.10928422564982469 0.19290524220559038
Ni 3.4621709781739227 1.7250832519405068 9.7662911338958 -0.5964709937176631 0.5668434006592172 -0.2300348000680361
Ni 5.3099978712452 0.4577453175322744 9.127648415925906 0.3344619547358756 0.40366679586631127 -1.1289695983484236
Ni 5.369158094673094 3.0461283234448273 7.105246853724914 0.9714162532795658 -0.2648598781670213 0.33502245522503593
Ni 5.983860273629643 2.4948408810535487 12.620547474666921 0.5291420294537017 0.10962026883300474 -0.8296214565965454
Ni 5.50288475209683 7.230582561670218 1.7816504714364352 -0.5548381486682251 0.0653777540748616 -0.3147847880219224
Ni 8.520196714534089 3.0229721517213477 11.836176436332678 -0.05684066313812792 -0.5540768450221684 -0.9576652222420604
Ni 0.5484086176428153 1.5271359369607187 5.62464160857261 -0.8520427617145391 -0.5064222192586827 -0.7603644220719357
Ni 0.960311087561132 8.64948143533422 4.216605800170387 0.2598218015224816 -0.7582448046257716 0.25784050942639464
Ni 5.906538714386248 0.3083828557699606 6.725323516144264 0.7833729671519669 0.1102357909298166 1.0935451961025424
Ni 7.3058799472623495 1.851528506924282 4.9859988906027155 -0.9502403905328989 1.5673542573118944 -1.8948048137269433
Ni 8.999429197644982 5.897476788827121 6.642713803236942 0.49467459180445134 0.37315962841638955 0.2928270528039086
Ni 1.3086563790646442 3.76750257958809 6.201755070248686 -0.5911377544302078 1.1027872835261008 0.07227088165026908
Ni 4.026887313353443 6.6593907450415175 9.446990860053054 -0.7935913024458656 -0.2212015180471223 0.7481938481476726
Ni 5.549393890204327 3.6323983595405775 0.9910044947832739 -0.9080357321403911 -1.7172788821909002 0.7344644143767223
Ni 2.696461696363407 7.5488276412855 7.450923234784537 0.5290702956755018 -0.4023120816106297 -0.094934641796372
P 5.263123257339557 7.785993320758514 8.120013835209615 0.13982841698526888 0.6979874024966108 -0.9957512304805045
P 9.015641329203712 6.978835334968659 4.404716193475495 -0.839611992150354 -0.6018664537016215 1.2640972674239133
P 0.4715902904599427 0.1527051596391916 1.0407307570318773 -0.6033697777200254 -2.520731393701562 0.9879037094116278
P 7.941161225006744 0.9953217947885378 6.718726209429034 1.1640697844856662 -1.1768684789122312 1.8177393389015082
P 4.786224196632204 3.8492567042807786 3.9478883139083067 0.4043648503746004 -1.5092388412264006 -0.9733733770059366
P 2.688758591079433 5.571172499304031 6.577907447286428 0.49467150648065766 -0.7491515840752517 1.5334462917105396
P 5.6346903187867285 8.968616776509085 3.5829419871121426 -0.1855853115054094 -0.5771676654033608 1.1787160736439313
P 8.874333391762049 3.261852756093349 4.141717934895664 1.4819733206422283 -1.8447991712327778 0.025017347979944014
