# total energy = -340863.42758746864 ev
CRYSTAL
PRIMVEC
9.32406484188040 0.00000000000000 0.00000000000000

0.00000000000000 9.32406484188040 0.00000000000000

0.00000000000000 0.00000000000000 13.64671138701183

PRIMCOORD
 96 1
Ni 1.560969666993228 4.250654679080315 1.3669228239902182 -0.6644231933879202 -0.11631953523005127 -0.2868577225943511
Ni 0.13998498265648085 5.658168886943281 11.450955824821364 1.599231051415833 2.3042504210585606 2.4641730376905433
Ni 7.464137681662038 2.637647406217237 9.742360104035596 0.2041849288844677 0.8980464821381631 -0.9151072942751918
Ni 4.833977499511007 1.254935210827627 13.140104343571162 1.0546760298411706 -2.1141507666225654 0.13809600767519445
Ni 8.37989138581926 -0.0025081734418544457 6.448016946351829 1.4702575748671969 -0.5684495688040726 1.4786879650227371
Ni 4.857427522582619 3.401903704860514 13.656946581695452 1.359979617845535 2.030790974147987 -1.0492492023986446
Ni 3.7576727228805815 4.613631199221399 7.052879288968498 3.3789334901492776 -0.3483474544687162 -0.2677873362264614
Ni 9.02428683094938 2.313421699549562 11.388644964311235 2.5589202460664575 1.6671539405100513 1.5106753165626112
Ni 3.2244108065737436 0.004862499813855366 1.7737718664211084 1.1707528529327966 -0.956640894742604 0.05921173447346577
Ni 4.115194665090495 2.598066750973103 1.906445849836853 0.008715268385810798 -1.065153532333727 1.2906750179124418
Ni 0.6380494866002843 0.6715629728532858 13.070042387959866 -1.639066952465848 0.7328142803678089 -0.1545523534590048
Ni 7.165627745822 7.969063764921309 8.569479461015968 0.2162392889458405 -1.5926138032096313 -0.16734230613482148
Ni 0.5839755049694639 7.082624920619814 9.385430239942998 0.29885089040048535 -0.04187709984976014 0.37449351673646475
Ni 5.486223807236077 7.280565493099844 10.271620131713275 0.5477017947337599 -0.2492070021211128 -0.2745729916897271
Ni 7.275987377263596 1.5347876929236097 13.415604352200015 0.4983119314467224 -1.2941130970597132 0.2072496838527205
Ni 2.889024194293058 4.58297367402877 12.746478689895802 -1.5115577191675644 -0.8779731084270557 0.5611916016900786
Ni 0.6215225816720799 4.102635149751544 3.7662331468098253 -1.034169939468019 0.39275374849823325 -0.9088489720703058
Ni 5.795381825122946 6.054003411579142 7.093847365060766 0.444325449927938 0.31288782810952565 1.0420714537032827
Ni 1.6641217963138069 1.6780705973138597 1.93683670677507 -1.2458380641034092 -0.09323925637182007 0.5622305844775543
Ni 2.254241860012572 4.2756152006559445 5.334471854752011 -1.7066730816505962 1.4352802874610637 0.3914201172884743
Ni 1.6701358181353538 8.968873913607593 7.572723875971141 0.2805299806041104 -1.1434037714958825 0.07510706554748356
Ni 1.2795414179393516 8.204971929428222 0.7832689992577208 1.6643270125842176 -2.3249172053792924 0.23763163857868752
Ni 6.258433533187539 8.741180250224375 12.31449196865733 -0.07953630496343077 0.692887105155568 -0.9124089215074221
Ni 3.909571063182629 2.7256945504976513 11.5407922571445 1.6001065120422509 0.6205552883603764 0.394228790381863
P 1.5451001086362157 6.306331254268604 13.277321943783248 1.8193048836164152 -0.3205772263339834 0.43490184262119297
P 4.212332772589527 8.411406724977132 11.752069971971105 -0.09902089605060367 -0.44980549920590274 -0.3743083973088521
P 2.1703532486506227 3.330071109336177 10.810419610128356 -3.368436190162379 1.7967213418889445 0.5170593872575546
P 6.464187672003161 1.0886871347374236 1.8461956076562764 0.09285384800794332 0.12241947748020209 0.6440711120941295
P 5.592285044786613 5.266408978642327 0.6470630600807329 -0.200114615469836 1.147257598024334 0.5786023409673584
P 2.7290791860344292 3.4947061222091285 3.2102251743267645 -1.111499209477802 0.3903024587442633 -0.38938946001169067
P 3.632553096797887 7.476753141390026 3.08758201986547 0.4296737614530342 -0.11759968749405551 0.24421109156841808
P 3.4241975438920154 6.478817129736505 8.052774286644821 0.42750015084048315 0.49819494625288396 -0.7230278904050064
Ni 4.824653434671399 8.242603855120876 7.548937254158818 -0.6135233212142595 0.17886701894496937 0.0035555785617422636
Ni 1.8761417067016442 1.1487154641748174 11.197358976907232 1.2465584872092015 0.9844900557443884 -1.9171852383046726
Ni 8.623846218282752 2.3558834908291346 2.482118275066646 -0.47962695344270945 -0.21275364439008523 -0.17577578161415533
Ni 7.045114207770073 3.6986140961865073 7.113511817807498 -0.9156243431209262 -0.4965499544502932 0.6160062355371133
Ni 5.480013980052899 4.696242413700323 11.10251365695226 0.6481820489387096 -0.9619877608768143 -0.7614671682178111
Ni 7.891739295206443 0.5411034548369481 10.832131627513867 -1.2223302107894563 -2.054480347345126 -0.35006752248361644
Ni 8.173409969946148 5.678057117246164 8.224094654007772 -0.3014027102880616 0.20771891017965513 -1.9860450373908634
Ni 2.806450276073493 9.37833089697412 12.958125637690056 1.2279848379720724 -1.7365631843418092 0.8369444726205199
Ni 5.504396409608471 2.3283961476819712 8.616220065650438 -1.2748879302815141 0.5667037897575595 -0.21762897020451552
Ni 5.410866715202369 6.747872344748222 4.674831563609132 -0.618940892685405 0.16114851861928375 -0.3671728147053354
Ni 1.9197410338916492 7.529368839279933 11.53051620528477 0.5350139148534464 -0.6737611829593945 0.49242590497959066
Ni 7.874284645826698 0.7847794977617372 4.11860447560234 0.07940157915777937 0.16754619461551143 0.564155312304093
Ni 3.0164934847153333 3.061314264399327 8.96324217844447 1.5385219064612343 -1.915723051936849 -0.3830154381645468
Ni 1.5144146112490673 1.8096145040710439 6.680338143114944 -1.6276062601244163 0.5062263011977927 -0.08548609478896245
Ni 6.28334743443897 8.448898789697196 3.222739001748002 -0.4229840081376845 0.8820051124045842 -0.12376442154387073
Ni 3.943389446355886 2.9862928386998444 4.956008062912338 1.8057687968031932 -0.5084189379737373 -0.9723482781755317
Ni 1.806117979756191 4.513425474390136 7.76409191514573 -3.108233865372027 1.2125924146764018 -0.46046349314038115
Ni 1.707935576995123 6.134386174561399 3.1001368731720014 0.919828611010261 0.6314066292525835 -0.6940620993002756
Ni 3.0057428379552658 7.045142179964591 5.317045177566785 -0.08116818413989893 0.009676346747499464 -0.194760036026142
Ni 3.088754987222292 7.997259736996282 9.536881025132745 0.608949328690332 0.15351414200247757 -0.03192590217431921
Ni 4.635682612567071 7.441386963453396 0.41457589496347297 -0.1981127545484588 1.1263378171525311 -1.2235928795519635
Ni 1.0771812387253479 8.797777323800792 5.07079009830736 -0.38950901630869045 -0.6818015367653677 -0.050892415974493
Ni 4.515812434989076 1.0051435137745393 3.7136519479598262 0.15719004819216797 -0.6603299971551531 0.31793953160082017
Ni 6.1970532143484025 1.0116983313567836 6.801548188810391 -0.7218685799895825 0.36382163884491536 -0.7588986361596866
P 2.9130523093847267 0.531176123002218 5.386506663402409 0.7794823738483091 -0.31185475885932096 -0.8854154236377137
P 7.351624191242493 0.6481735562031302 8.544628963405447 0.48157893496275767 2.1476841224933207 0.7852395880470606
P 0.09825606287330096 7.289814965420734 7.309424406184913 -0.526979474584744 0.680604431133473 -2.136821468747204
P 0.3566212375464079 0.06561064705686682 3.089738676062871 1.218337030469663 0.5832529523654922 0.16305010651737079
P 5.375733638886726 4.604661448845697 5.576019213673917 0.42996866698563374 -0.38923442249106516 -1.62394732321559
P 3.208457331633175 0.7478198371440167 8.829858633694432 -0.01266859660660399 0.857143573276214 -1.0823488131660908
P 6.369427201038228 2.4263547728868886 11.669371111282688 -0.7573647160136635 -0.07029833130493054 -0.23480728175601495
P 8.211797144890813 8.03767955807598 13.079909113373137 1.32494268084606 0.5564417457099191 -0.7541235833685463
Ni 1.3130148107135429 1.9209531623207985 4.212125778350088 0.5823903472548808 -1.3616289805235002 0.7879433601314688
Ni 2.7239136541132867 2.1511643232107103 13.71098699669285 -0.4442758276369252 1.3407971313798135 -1.482258198872499
Ni 8.868043476432076 7.362729152466466 3.308318066065372 -0.36299991427456835 0.38404722186317086 -0.8179908143361526
Ni 6.789364433284475 6.2419206143565935 2.3632830686858473 -0.2054985054895687 -1.241884735882616 0.28742027996604047
Ni 8.950831848142952 5.829675735603024 0.18981185275285992 -1.1490159754763372 -0.054184970682835704 1.4211880710340554
Ni 6.239598922211532 3.7201153897066424 2.4267678289592833 0.6359978481676918 -0.7480894613593244 -0.4909542055300706
Ni 4.610461017175933 0.909749006400514 10.452603027469511 0.7334940800436529 -1.6756614637604303 -0.014498193616175032
Ni 0.31031699914643257 4.448194316772241 9.723022925964734 0.37323778995249274 -2.7239225912141927 -1.6754105240918888
Ni 7.384472871672431 4.536838201202391 4.496168495184991 -0.8054947387516708 1.1234131873065685 -2.85577364642094
Ni 8.864108721069762 4.623486735756864 6.01706706112352 2.4297163986745702 0.08942116817731051 2.5622410829095745
Ni 7.748111400417128 4.233339890673164 11.930978263300528 -0.8311870013114524 -0.5247058480592189 -0.1515063675438294
Ni 7.730087983082166 3.5918815259675188 0.6321771905642994 1.1634786878688865 1.5258913621814174 -0.30012358646532183
Ni 4.06613143590448 6.2351513432830385 11.929054708724117 -0.039686519956344556 1.5296302603985592 -0.011211809555419401
Ni 3.3191060090847984 6.026124457708716 1.4206229106209702 -0.34152914599530215 -1.0736685117832734 -0.5311140655784079
Ni 2.650999467067555 5.339808017059719 9.841694028804357 0.28068630367631664 1.0586506982182025 1.212654635372905
Ni 8.744080034389492 9.217919685473513 1.2236389871934843 -2.2598058175919404 1.7076799256485558 1.1678775882675305
Ni 6.317949039058754 2.624864113322135 4.714051377543973 -0.363784872069709 -1.571160775542178 0.43979902281249417
Ni 3.75533238260584 1.878976222412885 6.825853228627795 1.514968030400694 -1.1759282264861488 2.184902126304515
Ni 7.60546253243597 6.633559309814633 5.411084898319615 0.8872187953950398 1.7256071995509377 1.1736566568431528
Ni 4.50931356179587 4.853455470960947 3.337193762467153 -0.8376337853780607 0.6296081425912641 0.5707278233152882
Ni 0.6433175832346625 6.254787823835253 4.995488018256205 0.28911360850806334 1.331147009884559 2.498307517480407
Ni 6.694128435012724 8.036952281018491 0.8738858558079312 0.28015819908698847 1.3270970081849016 1.7230664354069551
Ni 0.32082708503363827 1.0298989059236976 9.150529074438765 -0.5362418737232765 0.90051988337932 -1.2103344718801607
Ni 6.80066519987008 6.450742370504446 12.753316026642688 -0.8000044050610609 -1.8992829041029549 -0.9299507870459275
P 5.686280942434697 4.694153823176251 8.846385538622636 0.12279074477669175 -1.1770250590947535 -0.36958862323567965
P 0.6308438492922355 2.9061338532737375 13.377979885759231 -0.8035499563204743 -0.1969472734854479 0.3578502517528289
P 6.646566380265885 8.720443530021088 5.432632812163948 -1.4648520875809095 -1.0865093723016837 -0.7623948222384032
P 7.755328226602984 5.703511814258293 10.217565730618617 -1.3172332280169443 0.4452186511661687 1.4798336485914063
P 8.847399996877185 2.7033447670771125 5.138737356013032 -1.4638881810057434 -1.2547327954898777 -0.41295027805076623
P 0.5713292758275041 8.881451481671432 10.64768297685675 -1.0465490298586622 -0.19761601741769838 0.23984150174581276
P 9.515674372061541 3.209305821533579 7.645351814226296 -1.7785331010156917 0.16119145604207724 1.4854000869355901
P 8.60891839047454 4.945017787685893 2.34981352461855 -0.6354049517786993 0.011676407896663762 -0.6664870178954844
