# total energy = -340873.0285988138 ev
CRYSTAL
PRIMVEC
9.21049112022660 0.00000000000000 0.00000000000000

0.00000000000000 9.21049112022660 0.00000000000000

0.00000000000000 0.00000000000000 13.48048476516307

PRIMCOORD
 96 1
Ni 4.901694490847954 4.966407402297518 2.7223034484836517 -2.10405507294946 0.8562971661155189 1.4054485488116117
Ni 4.137960557258734 7.13852676182814 11.448059428849374 -0.40140139687090226 0.8523803475596158 0.22053046012202662
Ni 8.887350364968345 2.4661090294080257 12.558056254297332 -0.8340463251371184 0.9224305674094824 0.0971668735610004
Ni 0.7014654865146502 3.0516015365281355 5.661089362014188 -0.4750269927768529 -0.626530789217521 -0.5753897475673316
Ni 6.7012771112097 5.292744317408464 1.497493244488222 1.781830026599409 -0.8070962789108357 -0.9895345601468312
Ni 8.48822293759069 8.153596580364086 3.2725225373033924 -0.19254168821858453 -0.17884696434031136 -0.639859388005627
Ni 6.001611354683272 7.6926575462773465 -0.2451132770652405 -0.19999840160694587 0.4625535429001905 1.850637889401742
Ni 6.692923195655365 6.7210059834449645 11.27354088293932 0.3342336407751534 1.0539494360877912 0.20590011180336154
Ni 7.609265758593835 0.02753936880646124 12.304636035183078 0.47070162592862164 0.23552230554516854 -1.009928550422151
Ni 0.651750938999682 8.92184365466072 8.370733911338109 -0.5618528894231614 0.6393832197001569 -0.13609491808476562
Ni 3.507815588608951 3.096511891812518 3.654343451641804 0.4925274635544615 1.0048786467030695 -0.2726755175566981
Ni 5.045092628957584 -0.019463610087563175 7.405194430492338 -0.2468133050779556 1.9176035567890137 0.6024174411090851
Ni 5.367892715432516 9.128757340358762 11.447506799374997 0.10715098135690579 1.1765211228751415 -0.28046107503938794
Ni 1.522531043874003 9.175445320452393 2.6367960109623994 -0.11501778569949224 0.045618054949431115 -0.2752463636076679
Ni 8.416086370201992 4.181701180155685 8.368671682349557 0.2327012911566057 -0.09503028683397181 -1.6943546692945595
Ni 4.768123946890997 1.6288016917967285 5.358695118880632 0.5870419870942792 0.366166227817692 1.1077068323149053
Ni 1.7222513359139042 7.12980442662422 4.000845816272772 -1.8747625503640872 1.3211081375913183 -1.4976025425390531
Ni 5.789005585399144 3.4459302979699498 9.844083695139917 -1.853809602261504 -1.4883393720695721 -1.4624301084029783
Ni 4.487636857170875 4.853947304261768 11.351701111598729 -0.2725204800360726 -0.4176893353976484 1.047070449579771
Ni 0.3515856347461138 4.7314293497923545 3.8031011746037686 -0.13695598053348024 1.2626368808283028 0.6912894216511448
Ni 1.4212616926943904 7.988562998332591 6.048195256225893 0.6687930403208417 -0.42374351201152827 1.5888476512989798
Ni 2.63503864923388 0.3626023033178223 11.697326637463684 -1.5621143490691936 0.950612686270653 -1.503278766988224
Ni 8.991530231379677 8.106466496690954 0.8961890870570582 0.03411879606057995 -1.4478285564397195 -0.3533742182593463
Ni 2.055192173243657 7.739188948019902 12.893922343644789 0.6151114916369858 0.2720551103638798 1.130762171472472
P 8.73417068516224 6.0560361474181805 2.118606405428435 -0.14672951498047634 0.41236278097841245 0.9723927582602221
P 0.3810647330076388 1.7880879272947021 3.2141924962828843 0.3890451892983945 -0.22734876859544073 0.6603143134258692
P 6.865509380503349 9.036044535540757 1.7240326449196468 -0.007060249280891067 -1.6274049427468877 0.11903899104374338
P 3.1711445023271523 3.3285333766297645 1.351499589947267 -0.7228815946351292 0.6410210124138961 0.5127047098332848
P 5.058908365817013 6.513244932552875 4.317219743009821 0.038777634988829995 0.2987053659615565 -1.5994423960956905
P 5.478004138202163 5.595198428735078 13.336864077849311 -0.7375124571744266 -0.2008152410812864 -1.7427397454661662
P 6.532154071067813 5.338327038553339 9.782787875940251 0.5562041757778163 0.7974890948383749 -1.6739285402297235
P 7.675802347308843 8.813178279015693 6.2212032815726515 0.9646650505986611 -0.2967060761433406 0.39269255624299465
Ni 5.17432503154068 7.472195227965823 2.2473184152564927 0.3839873151595129 -0.05428524370612586 -0.2194562532212414
Ni 5.44252532594715 4.655313850188142 5.416040558387625 -0.2726644618131046 -0.4758062941450386 -0.42195248154937653
Ni 6.082295257942335 3.2951545563773843 12.320017555553244 1.4295171597250413 0.20405817349861632 0.9826188068636046
Ni 7.501429327160373 1.3126700009792807 4.4389888845414545 -1.088339483531887 -0.28138307263302503 0.22418168372136874
Ni 3.5445562381637914 1.2334781973010354 2.046418259288796 -0.5539367198998782 -0.5092835999668777 -1.0350849950831205
Ni 0.9103142964221382 5.946643142965225 0.4687053202999869 -0.6539109810026867 -0.3451937393310829 -0.38252564301232184
Ni 3.9431494570495498 2.2110428955092525 12.132975504704678 0.28398297214971735 1.2328694197578831 -0.04698691027249972
Ni 2.4109289763914674 1.3379159574670767 4.65673871318291 -1.000736856620554 -0.07846595471738746 -0.7573932552587537
Ni 8.2156476598454 6.704463941178608 5.266812179323316 1.0997035023944546 1.1946381441908265 0.3914612549390548
Ni 0.24541630222702396 0.36944477725973535 5.025228362501097 0.5414463007423513 0.08717685222782405 -0.015465699735766914
Ni 4.908915515979816 1.2282466382769317 9.396275137364379 1.1667141640870489 1.3748369945733419 0.2182079826364371
Ni 4.606092985003617 7.427607239874826 6.147950402645712 -0.5606781523887698 -1.1056759179278055 -0.9994806156159498
Ni 1.5075179431534236 1.7937339584245886 0.5805731837490291 2.2007871729658874 -1.1904865839162981 -0.7530573468875611
Ni 2.950903235805379 5.484414640104938 4.483420294281378 2.524334023451156 -1.2473244188409485 0.8554389318802816
Ni 1.8255377846749934 7.80890315621258 10.33656589857498 -0.4927712041341514 -0.11430481879286766 -0.8076503516420929
Ni 5.865931608232442 5.0188150974509504 7.658816359364738 0.632517345818259 -0.2843750653818135 1.2894424310569212
Ni 7.851777992933006 3.144618287557049 3.1405214610536665 -0.5450774697370355 0.5140725367150888 -1.553643592594021
Ni 3.9712506658216276 5.901640682768445 9.212941230288884 -0.12035976673769593 -0.9993952549909949 0.6481080011676644
Ni 7.161442464032312 0.37804737607753963 8.536799989437565 0.7051324981818243 -0.23360477680748154 0.5834272731598275
Ni 0.288679821677763 1.118126005016045 10.613522607002954 -2.0870335986907995 -2.0470966532865456 -1.639430506452854
Ni 2.9224980808223937 7.647701138536765 8.0635944231179 0.7429112595924948 2.1718848881092403 -1.1535735129400326
Ni 1.2306689974729517 5.316231070069492 6.189726427761253 -1.101208111964439 1.1021082551812051 0.5039979260879062
Ni 7.131379420626196 5.441033226366332 3.7723519496003 -0.5989883608228781 -0.4701339263506097 0.0842509368302807
Ni 1.6129320153908648 2.7978985553328264 11.021495790167142 0.9731031540636854 1.9290745335430903 0.5647379242804403
P 3.723166084282486 8.73949434909874 9.777126186975256 0.34525801691011504 -1.1081086957390143 0.6861862960966247
P 6.12764771680622 2.370854129007885 7.293805512587755 -0.14421446186810646 -0.4389027362504699 0.31746362040566617
P 3.987175605174929 0.21886337703232592 13.214703490439996 1.0662187403734478 -0.043577370370318495 1.8131049254532903
P 8.233414697446625 4.579023351250376 5.8445448475740465 0.21145755128648097 0.26572582571174236 0.24028604548239912
P 2.7860814950723944 3.7790000821770575 5.7864036216239505 0.38170726087608453 -1.6317917589606734 0.26660719987543113
P 6.81832403388278 1.6315372076948953 10.761592306269321 -0.02331167814274695 -0.03587820195384788 0.3141816072202847
P 0.48752051180428085 0.3523233950944073 12.666182816204842 1.4462439855614189 -0.7843931808863652 0.8213846705090498
P 0.1609008346122787 4.559165532137757 11.687337859714317 3.595404692600266 0.6095244844675115 0.70214487630841
Ni 9.275793622508044 6.096875465574652 9.950404079715335 -0.056572497078405795 -1.6267050884663854 -1.093289628448311
Ni 3.5746377025523874 5.576823498712036 6.9020888464614965 -0.4713749978465624 -1.3403811268883175 0.304430698481108
Ni 3.7307371080814526 8.586535721082384 3.8423019463687114 0.06021497892699952 0.07702279451295767 0.44013969398136454
Ni 8.205691118815372 1.6946106517038075 6.695877921245035 -0.06531913292278428 0.605136639812461 1.416404276492167
Ni 2.1193156132538857 5.807417357387142 11.531327795950276 -0.6705817567901483 -1.4980887381468522 -0.3535302842212363
Ni 5.2874574954369224 2.940633538073204 1.710915984345305 1.1578718832050705 0.32500440886740156 -1.0605777400375862
Ni 9.158175649378107 7.246178983436808 12.001244295848274 0.34076115748102603 1.4777621107743584 -0.2295216078770434
Ni 5.965745701796195 1.1805178726732253 0.2231536238517405 -0.11834402185924782 -0.05903278569344026 0.07940260759904391
Ni 6.529068556502541 7.366311420675161 7.412662296789421 0.4808700818211911 -0.34393184189952375 -1.149439179056685
Ni 2.1689970030003916 5.3467730590200695 2.3640052077221037 0.6372106375288703 -0.8269181987327695 -0.5463239405496269
Ni 8.017447098860037 5.581502428261763 12.855799199354882 -2.0027271260322346 -1.1724983748689937 1.807493492803784
Ni 0.6388378302817359 3.5330891765704657 1.7385511422606583 -0.5047327473714017 0.2506912999761231 0.1630583340474869
Ni 5.655499514880863 7.694674643858822 9.400441042552057 -0.7376029600057039 0.2304207226525451 0.46195704696677214
Ni 7.914879068415638 3.7370923470367905 10.583407063796773 0.000150923755567482 -0.9990340149968342 0.05792438312060992
Ni 2.075169728742391 3.948169174775142 13.076582963810667 -0.8667543568931008 -1.2774911722323161 -0.5703485855989984
Ni 1.8813533615870854 3.781090863688451 8.694454125887878 -0.44400920423909984 0.9810689458779814 -0.7897462176681624
Ni 8.604836967175508 1.086543230555391 1.0840490295277023 -1.189724766049609 1.1998289443631465 1.346212388858114
Ni 2.0827223315588785 1.592107094698086 7.116766055225416 0.48011957680841183 -0.09300837130793659 -1.8618764384300384
Ni 6.423230801668077 8.33055774855089 4.58216504981221 -1.2213593622357548 -0.30220206626090534 -0.7569235147111868
Ni 4.089669951689411 3.0585186154490893 7.674898798118237 0.1919001979798437 0.09606824118018294 -0.18631781879605977
Ni 3.3086202945697076 5.64662981181711 0.2696997623802798 2.2776413031114644 1.4837327265354963 0.30087254881620445
Ni 2.543302156487274 1.3084331750090559 9.341261794239255 -0.5163831871261364 0.09127441933596539 0.7274136781775279
Ni 5.594093169786323 1.0504749468610426 3.0389868477263526 0.16657303206896473 -1.8122873146480012 0.3092345476276545
Ni 8.691618215635199 6.756125586541632 7.512983888420476 1.9445044949449157 -0.14716943073137234 1.141581373575163
P 1.7038027219609473 6.02582573615223 8.309141514320526 -1.5066782795880762 -0.868054563761763 0.3996980410265504
P 3.5259049934035627 3.323882078553756 10.008491884816243 0.9083524920498613 -0.22989158962195247 0.5425631879556139
P 5.783893762761154 2.99417412364911 3.9580188741067905 0.44374000973811323 0.8252948041967335 -0.15722552941579374
P 7.608335498978633 3.1208460096675923 0.833029064430494 -1.1319963009898892 0.3669177612717358 -0.3809917228662987
P 0.5132675190155123 2.0793420812739383 8.473185889592887 -1.434905163509832 -0.20590679667158088 0.3607730818265787
P 3.3571043204550626 9.182003190215001 6.023997453641166 -0.8895371591155713 -0.47662904715665005 0.13896195521991553
P 8.645980231542886 8.14165978371754 10.071162830357983 -0.6854373337457421 0.6126476034775256 -0.5467587140942003
P 2.4843826440274297 7.4184335906001655 1.5468854248098038 0.10913253056330884 -0.20205888368040043 1.0646375119292568
