# total energy = -381167.48956665857 ev
CRYSTAL
PRIMVEC
9.22667345170624 0.00000000000000 0.00000000000000
0.00000000000000 9.22667345170624 0.00000000000000
0.00000000000000 0.00000000000000 13.50416924301333
PRIMCOORD
 96 1
Ni 6.829694428978914 8.395626998428536 1.843994060073671 -1.495634620179405 -1.108612117737994 0.29613066325584486
Ni 1.3312798095405796 1.9002057229076539 1.2206206238417316 -1.1154939324594917 -2.759914950148402 0.03294431613650455
Ni 7.415440568097568 8.295674444634313 9.740395281927555 -1.2434525945903683 -1.8286104772880574 -1.0298857102703682
Ni 8.359569158473969 7.115149253061406 0.12294081076627984 0.07844718566431005 0.31146960760576037 -0.19075245752864567
Ni 8.418767495512991 6.127738337396655 9.80345959515413 0.6401149556598589 0.6089740112806803 -2.4926235797217524
Ni 8.665839357924296 6.810927375123339 2.4918163356893386 -0.016548134166668275 0.07702510850580283 1.5893271620385596
Ni 5.873054469365464 0.9847720870498566 8.247023118048737 0.5639203134751514 0.24867401243577822 0.0589206855956082
Ni 5.791167742242439 4.244915667322779 4.615900831885015 1.426119704007718 0.11702813126130167 1.115238621915576
Ni 1.4464010145337032 4.917678564018588 8.791132970427633 0.5888101347382956 -0.0218345793765882 0.13020349230099512
Ni 1.6568983432756377 8.79389635913449 3.0267973173284575 1.170837699337119 0.8755336457476276 -1.6518617902376715
Ni 2.8270158471646276 4.986408054761055 2.9305529636053054 0.09627032988866002 0.3759544175527073 0.6559511513611671
Ni 7.959611316521424 5.467283823121367 11.756892152025426 -0.6498095572398035 -1.33191268440599 1.3213505926194276
Ni 6.227377184292603 6.57488138751902 3.814954528552357 -0.1733867125566885 1.3246878845227765 0.2488125948961715
Ni 2.935318540457028 8.99388450678424 0.925330165830998 -0.8814430692535272 -0.34848989358385146 -0.361137664254849
Ni 7.925804784895647 2.7802919726687407 8.751795970718753 -0.46309450300532506 -0.5170123360697032 0.5174265407889863
Ni 2.248115899767132 5.214260756316332 6.664752877870469 0.5993537145820969 -0.6560269989044251 -1.7052777439649665
Ni 6.182664724615062 2.803081856161008 2.6466011646324854 -0.8197201383224335 0.35645979916320547 0.5391294796837166
Ni 7.518188803955821 4.6612693080468866 3.1353712748211304 0.03164796592258421 1.1440684016630749 -1.5303560828209901
Ni 0.44984000678017466 6.480603237914169 7.334829889916642 1.0650450317803206 0.7084775033946572 0.8550936327257208
Ni 3.579257309205532 2.4112434868696746 1.9893400020481582 -1.3060808109445505 -0.6041030563416241 0.6263374422597924
Ni 0.3978781497504581 3.9376120804428423 2.843127464393047 -0.047635856710408285 0.5229441281731059 0.05316115740401167
Ni 1.9859399728712754 3.8745754472367016 1.1261800847836556 0.38819184015916375 1.6889221854250784 -1.2210757695570646
Ni 0.2379965063777049 2.0960234141450558 5.8496953001195635 0.49153476062388896 -1.3286147303810085 0.5494396033604731
Ni 0.2888816106124629 4.054089606437327 10.494319689210965 -1.5984293814501438 -1.4393454586693726 0.5153447185592931
P 2.230308419953336 8.044838099443718 6.4271199024278225 0.4155864301220326 -0.592211961330993 -0.41407847811793846
Ni 6.549268141942286 7.2434369211085645 11.794582190518364 -1.4114608164439628 0.8583075116773282 0.28798463710994276
P 0.52687719432282 7.834054743823946 9.110372182119551 -0.8680805319036922 0.40263681193990014 0.20482050558593756
Ni 1.5412973512616246 2.141031127373913 3.643722231466168 0.6716855313772884 -0.502266030998464 0.6342204445522949
P 0.6859874877927581 2.3200747262271277 7.971119746351344 1.100396671806737 -0.29917124985438154 0.6787537510779795
P 3.727068618333514 1.2299063480306456 10.345544192704464 0.4486708713808273 -0.720481984054701 -0.9019501880679434
P 3.390387303097554 3.9444767255109583 12.713607770361401 -0.07051481819111081 -0.3850669213769368 -0.41160430554583305
Ni 4.724130634456934 3.0630157014015524 11.028747070441364 -1.8824234093434546 -0.6926176535442653 -1.0279303863162104
Ni 9.01487518894817 4.228196934979464 6.831083966004798 0.5925184368278184 -0.6332933047523351 0.08644203094432855
Ni 5.483421275035527 8.359070918106122 5.872936367944936 0.33239941577989207 -1.5268275008424415 -0.16302748080955148
Ni 8.514457326160077 0.8969470728759731 3.6462743293503626 0.2862152039143458 1.1892077172038744 -0.8570085903602467
Ni 8.75975766726348 2.5083080918650786 12.576109114180506 -1.651863332899568 -0.12080945268060483 -0.12832427300041124
Ni 4.015955764950065 9.07818862235867 7.412289659104609 -1.355574289688988 -0.1532647449958328 -0.15547949325896449
Ni 5.666450796831518 4.769359787849279 12.219814659130979 -0.6666554251525487 1.595224244249285 -0.4119308356473164
Ni 7.794001754253123 2.8720512404139216 4.654441569672685 -1.2418816505588224 0.873041218343077 0.1504370457390506
Ni 0.5644878834238434 1.1521900773199716 10.248057928731084 -0.007813839617463963 0.5560751063991197 0.2682470494716993
Ni 7.2690501666852985 4.205130251282838 0.19636021963794623 1.2022632648362521 -0.8764296751993357 1.4527650745093883
Ni 6.078006567346728 2.384892107414648 12.832093943172188 1.3052061216490811 -1.2784126556053208 0.4542051709354952
Ni 7.581945117693297 0.9974772164299585 10.61218398422929 -0.5701927767474245 1.522971874541777 1.3749532084362321
Ni 5.398176038766274 3.5107215786061152 8.67159403417293 1.1014333406013677 -0.9500506431195961 1.109987657929282
Ni 3.8586317554655936 1.5704813194745963 13.086796264550339 -0.8802379932018324 0.4826870804252719 0.10325010364060282
Ni 2.5678570424962897 9.040617607953605 11.5253220237256 1.2652298383664597 0.12661680339100131 -0.6183359121115544
Ni 5.379372078216784 0.29703245396350286 11.633058199266411 -0.26017918486190034 -0.08567507087131696 -0.9093230834932469
Ni 4.025044038326535 6.880256599641919 11.760119642408258 0.6431984796811892 0.07994022527006878 0.5044488975823957
Ni 4.566631318176368 3.832677122970149 6.5404474420966965 -0.5408729447373847 1.080625402717081 0.12752543124819973
Ni 2.5315500823577994 1.8909698227555247 5.878945700381582 0.31681390263680925 -0.49198238968426883 0.42451407162896565
Ni 4.545640636012438 8.054138586310199 9.772062147973632 1.7321000063641332 1.4748019997047699 -0.14447877127308664
Ni 0.98201331167974 9.181213658421283 4.952275821561483 -0.49269304259804825 0.05064430451942891 3.3337437809865165
Ni 5.0280203521497695 8.348967710646999 0.15045106041022446 0.32302928741890174 -0.7328533611358605 -0.5375040282651518
Ni 0.6705503403956277 4.734778215651296 12.843274826093618 0.14061928831768042 -0.12532482405245512 0.6046239618421005
Ni 7.142847726844314 4.961505263042177 8.18136610957466 0.7663327238402287 0.8519553442070553 -1.8077752857102607
Ni 8.17426987500223 7.636225637768199 6.420476697523195 -2.0586362784950287 2.483210256827652 -0.7408587479388403
P 1.4500270972108127 4.4617240407241106 4.736978777275955 0.08595814932937454 -0.4033502930671569 -0.1800489550682125
Ni 5.16846877584179 0.8157514235965 1.737608669530134 0.0033064386654136605 -0.1744786600692866 -1.1157728971524912
P 1.9042654592382602 7.403787279494032 12.7425204743741 -0.1330049663055322 0.1143403000164934 1.295440043401253
Ni 8.142696198358287 5.778794773107569 5.2823988172888185 -0.07452188246797489 -1.4637123175495113 -1.3460933467817462
P 5.069263582599337 4.989406723641617 2.8059910263088264 -0.5359084016432577 0.1933212466970864 -1.5822185760182361
P 6.9288350355070145 3.0380021896009306 6.702997439439476 -0.712015855565219 -0.12284962303908518 0.22055180027826532
P 3.9400386955677273 1.2139811096064947 3.7477981856379987 -0.4462087829935799 -1.8326771911582633 0.1978258194356593
Ni 4.268812751632484 7.064983829357983 2.267795471629746 0.0171248326057447 -0.05814215555837083 -0.5440868236889921
Ni 2.5738728336043697 7.154261121937406 9.85915087360392 -0.580391314546981 -0.5812937717565925 -1.6009881433162556
Ni 1.1351668647518613 6.7339769183113924 4.571984634128682 0.6329678030921163 -0.2960105927382128 0.34058863645890375
Ni 6.014960707467109 0.3828017652863431 3.8242190313922704 -0.4640679226621879 -0.11176559731078171 0.15832313335534667
Ni 0.8794588359645387 0.5894801738754643 12.747516718062789 -0.995368650330105 -0.664546606339662 0.9746077636336701
Ni 4.797980928980054 3.8082264382517255 0.7542390368490322 0.886583475803886 1.3840058055568036 1.125841337132087
Ni 2.31698379061178 2.9099820950846538 9.95941897963111 0.0794645711852309 -1.6071469638287998 -2.924478407986505
Ni 3.907247098024603 8.163280906889156 4.353636328923763 -1.6822722842087285 1.388595738920331 -0.8112730359963447
Ni 8.905935855185742 8.993340133049 1.601553987748648 2.4612329812256126 1.327026302847966 -0.9728586421530471
Ni 3.8488883882721385 3.202689084521365 4.325317822683088 -1.7270501026450515 1.3006578401567666 -0.6389438181698931
Ni 1.1963397099153148 6.111111871788127 11.130244169375914 -1.830433646539725 1.031479022899417 0.9156423408430554
Ni 4.010705787740712 6.627584146429073 7.519580186316402 -1.210950765307921 0.5678327611556802 -0.43689624734340243
Ni 5.9435554814158325 7.6008228916306155 7.974036297837946 2.126592334820028 0.10601995307625613 0.5758510034744664
Ni 3.964166446714399 5.954415276100204 4.97309950093545 -0.5927359521552631 -0.6548391492439108 -0.2989154250898336
Ni 5.922620159292774 5.914103939671979 6.227569099100959 0.8332999338893972 0.6776780015152973 0.787515785675747
Ni 3.0676382648143568 5.787984539892305 0.24624146179822706 0.7572428457238184 0.9198998305678286 -0.10368564851612466
Ni 1.7811262749921895 6.9105939020397225 1.8514076922137668 -0.6952093255308414 -0.22727446371407956 -0.7030254791411505
Ni 2.1932264192426394 0.07430793752766042 9.024728353556021 0.49988930323617137 0.6923101496061754 -1.0158539147676504
Ni 7.455548917709262 0.29005801148099086 13.169063130620682 -0.03992229011623447 0.012578093775326725 -0.04141764371483835
Ni 7.13146201177166 0.5277537283032917 5.829169642298957 2.179474013310408 1.9766957349654795 0.8400567929972566
Ni 8.269618318730604 0.32008068431317205 8.019910395706448 1.0755281906998317 0.42251503892106584 -0.0498950850582302
Ni 2.9816364413198544 4.867900660601268 10.755328441911773 1.9998338636448398 0.5235673635794015 -0.11317353340190187
Ni 3.5164236628159213 2.130974053282184 8.037478904677148 -0.07269048568619094 -0.42427470192465 0.4369396989868281
Ni 6.203913753636395 6.224332382044649 0.7731795521660062 -0.8075315666760415 0.00885333662557185 0.27526281866790014
Ni 5.9192985568404595 5.579747746152639 9.914477698451298 -1.0436794216203509 1.129259104564384 0.944747742849444
P 8.893867366275668 5.262036471588785 1.0922748277516583 0.18457795328681761 -1.0468241378969196 1.1892902496153517
Ni 4.921452273471355 1.7218633512388166 5.838783836063711 1.0876915655352428 -1.5566271007023773 0.17554001145426543
P 7.789951244595996 8.196506158085777 3.9669575154416905 0.08865086567018925 -0.747490651433061 1.3729112383055389
Ni 1.7230904988114772 2.8005629743013363 12.00667850177415 0.5290952353761662 -1.1943805196540653 2.0709508341963234
P 6.808390039916709 2.9840538297712604 10.83388157190696 1.3162222702539268 0.9701774957764583 -0.29214262514237427
P 7.520882992611587 1.7483254507755865 1.5133580613009225 0.8409291682998806 -1.594209172721209 -1.716082033669322
P 3.7207760270210746 4.740600246616325 8.355192024575697 -1.4504284559564118 -0.48054380883002407 1.2447877684620239
Ni 8.809028103639475 7.959131529500533 11.528158303152937 1.3945447574149143 0.6186768403907409 -0.1479790711168613
