# total energy = -340893.55678761686 ev
CRYSTAL
PRIMVEC
9.07919262576655 0.00000000000000 0.00000000000000

0.00000000000000 9.07919262576655 0.00000000000000

0.00000000000000 0.00000000000000 13.28831614666903

PRIMCOORD
 96 1
Ni 6.504070081370192 2.1572887287372167 11.725251195863445 -0.21110736703591382 -0.40562083426888856 -0.6746566981904705
Ni 4.630787567590506 0.12020578255724608 6.17599709856899 -0.019821405601301346 0.6622698944903432 -0.39778539738486973
Ni 2.767038205746672 1.637604839540769 4.65962762199454 0.052367714968438846 -0.6737107893374332 0.33073128404884977
Ni 3.2979167390735067 4.166768206507117 4.535169145754672 0.4302003233804656 -0.17743954246982344 1.0146907476974847
Ni 4.879412170077543 4.697719373372511 2.517152503446406 0.027344453451223875 -0.2567480476931643 -0.02330010817852116
Ni 7.200889012727102 6.135491189953169 2.6704328757056692 -0.05953826457494908 0.1659027454748175 0.40270546039430644
Ni 5.080915764424508 4.407185219137002 11.652457863519738 1.466164635744746 1.5463809974943368 -0.21152182886551316
Ni 5.655882855656581 8.003716593610694 12.57781640811369 -0.42179153049148005 0.09487242109986888 -0.29756328193731335
Ni 1.9292920512009004 6.472229353904445 0.3450964684009381 -0.6552417839989683 0.45304714607165203 -1.081569254687589
Ni 2.7346164099724533 1.7883285112427594 0.29659088343208784 -0.06476403175026266 -1.059489392069414 0.06605652530944106
Ni 0.6012005095210757 0.10489100095210678 4.80187949934287 0.7075675899858782 -0.16369545341085356 -0.09199921331713187
Ni 8.429803089181707 2.54397152964004 1.5020179972744485 1.1079510871152274 0.5478694306598759 -0.38099403685914385
Ni 6.981608359817851 0.8336369121018031 4.950389663957278 -0.8882603492856768 -0.851160873330218 -0.8253066312712755
Ni 0.6575477928965888 7.358049831783872 2.510322227064176 -0.12084801922802413 0.9033246998179668 0.10817608018731048
Ni 7.799670825414167 3.9088737486615037 3.9299129610243146 -0.9854081966832834 -0.9540903604066086 -0.6270758630877136
Ni 7.63508322703975 4.050917712505709 12.841734910063531 -0.0024916560736021605 -0.1819870526311898 0.052053269051813573
Ni 7.995154915253066 8.89339572822606 6.972724370132868 0.3334389127879999 -0.2644184197542285 0.4483561683538859
Ni 7.166360844334676 0.6453498980148573 0.4641809707066815 -0.8772930516408957 0.1573330015279355 -0.6150945223561213
Ni 1.8298567369137975 6.566934408992901 9.26002894872894 0.3648683349418749 -0.6778916601880002 -0.6007791341747137
Ni 0.05029963337125456 5.255771929312686 1.4393243584673536 -0.07727244862991854 -1.6779443462573362 -0.4837864841370378
Ni 6.273158983099202 2.073088299162838 7.05087351802606 -0.1695136027545274 -0.7896595714916271 0.09075171406327595
Ni 3.4148204193840197 4.611902847565197 0.43568501769157 0.04104174843265835 -1.6836383113183195 0.18229584212086025
Ni 5.987445879985537 5.5209297410141875 4.8447069574348784 0.5777510487106565 0.8684456285525947 -0.6312685610128225
Ni 5.470721807485363 2.8890534713332663 9.402998082270537 0.7046563298763542 -0.8736068610385599 0.4758636297455353
P 0.0024786195033216904 5.769118542269871 12.5107629411546 1.8963847566195535 -0.6781809092936449 0.23193535952485864
P 4.113255446973865 6.1722982356178795 12.509992117726643 -0.24541513917884833 1.5845261411054903 -0.012310956156869121
P 2.2576410414486254 8.452428436442798 1.2874276551176373 0.2740970804945731 0.5246803941379221 1.2656538132777557
P 6.374882253850909 7.7151707824932325 5.876093217859386 0.2743547050313339 0.4584372067389718 -0.4825266435880077
P 4.777271256479122 1.0830840894130196 12.67602966311454 0.4064322744265904 -0.5272065029938856 0.3929738349288393
P 3.9593268203829637 5.936529769455764 8.20405986717918 -0.1845105903839919 1.095947377786132 0.0525615761467998
P 4.774529340398524 1.0154895025916644 3.89996161348033 -0.046116591852404444 -0.22461851414847125 -0.5754589102423702
P 0.1732963596476255 5.56147741391468 3.7372988038777235 0.20195938198805863 0.13392207880316293 -0.15449784607198552
Ni 1.4532427602936986 1.2749183439393346 2.4428048133775393 0.06624318739895044 -0.5929992331189787 -0.04542753620517983
Ni 1.9192777020720952 6.428830814615515 4.857796429002421 0.11752126884763632 0.21536434254005488 -0.8545668136879735
Ni 6.090521950392904 5.361934925108805 9.004561358990424 -1.1942607062467496 0.685914787602793 0.6139110435709814
Ni 8.56222310916686 2.5460052687196884 10.253649400779757 -0.12980008621498934 -0.24327058203201976 0.7272275303086508
Ni 2.1040937409351588 5.196457565887043 6.820374615086391 1.2072640604849532 -1.1575034441220582 1.7158280086769868
Ni 0.98536474247437 8.990733749087278 8.961228189886198 -0.8488098565995382 -0.6349624649246419 0.6548116384400852
Ni 1.26032808188132 1.036217298657904 11.343783483029148 0.7575593485229727 1.153564514078968 -0.4742551476078349
Ni 4.067178545950577 7.064319801851773 1.5715691500407334 0.20533858287293666 0.10093431102323262 0.010581889280904358
Ni 5.801749159467447 7.708833506253971 8.155132099767457 -0.5545152181111676 0.3598762810439221 -0.7928369407783442
Ni 5.425071628501109 2.8781675197417544 4.812469469264754 -0.4855302063010219 0.21806014420466316 -0.4587354547056809
Ni 0.7672770954359488 7.166351765142355 6.990942677441899 -0.0736847312786602 1.0147318853480654 -0.015590655349405408
Ni 4.653612657082633 4.503488212073753 6.688859790575528 0.34127460678233484 0.04555532003229574 0.5840494801248587
Ni 8.379867531422478 7.28316465352967 9.181800811862566 -1.0830481532259606 -0.28420922922791053 -0.30973771251631815
Ni 4.685771156279576 0.2890306399873407 10.623410403036827 0.21824834895606926 0.9233921599918032 -0.6508583102192921
Ni 8.37787010911211 7.237387365852937 4.936290586203768 -0.7929636961641957 -0.43996357341481646 -0.44991759930373476
Ni 7.3930319597922916 6.199290674384823 7.09358203869868 0.4818406732645766 -1.1683378157334008 -0.5739211334416052
Ni 2.3257349838475734 5.373510895316626 2.5303345827756107 -0.3526751353097926 -0.5899938706337516 0.3588416691318207
Ni 2.650661118590711 5.284879819890156 11.113457084743557 -0.4383985429205417 -0.7149381714183364 0.7520862412235435
Ni 1.1549277382400693 3.389734611004248 3.978136183112017 -0.8316688260438773 -0.13363900034510534 -1.1913867271330643
Ni 3.7488348256393373 2.5911016169724315 2.541230521478674 -0.7921751388246293 -0.1002120881452274 0.4929121005873899
Ni 1.0647804376961827 3.2665572088007115 8.429509831269776 0.318349108334413 0.09825342175695982 -0.6301341902980632
Ni 3.619619760543095 2.4171533713162403 6.821982540046238 0.5538145924997171 0.4784920685073178 0.44726550639286844
Ni 4.309166258851796 6.80375606146412 6.044535841292815 -0.7185940230033688 0.3576522768094098 0.20315828739216624
Ni 0.6487073833347414 7.542330198300064 11.139382718412914 0.5370957370831396 -1.5553742021318826 1.6776314430026074
P 0.1399966059760762 5.387674435335606 8.27937812290704 0.394408767603153 0.5469320064472709 -0.9812599788428649
P 8.674868648279359 1.4844661026816959 8.319056917102523 -0.08847577354490568 0.1975121448499824 -0.9368616552331477
P 1.9800992114228353 3.230939537329902 10.492453948853635 -0.5241016388163168 0.28395211891178196 -0.06384151993599328
P 4.045370325998274 6.0657448345520075 3.8808925858509284 -0.9681488953822036 1.5218801841394953 -0.15941302398541576
P 6.966709405220961 4.1873779730731995 10.622573301504936 0.2379666533206031 -0.9502141652806539 -0.7290542991047445
P 6.377161131123194 7.781203748235573 10.185042484014739 0.18154945087313895 0.6772136602843692 0.5489665203787965
P 2.5616668754714462 8.300397361046747 5.830128898820864 -0.8907358074093628 0.3600426314184573 0.276742231426904
P 6.746602545810603 4.10579235088694 1.7440647249257475 1.4780691004918158 -0.4037706684340272 -0.46169453733400484
Ni 5.189748042762667 2.8312008578711203 0.6070393381019775 0.2758030074420863 0.784176694000185 -0.8664262841297207
Ni 1.8505754537877173 0.8842942656504601 7.094286584022702 -0.627698584273377 0.0027865616062016526 -1.1343550310300528
Ni 6.82314921625934 0.727925152163981 9.187488017931726 -0.3878714807052675 -0.03154949267150695 0.0771768035923187
Ni 2.7650680210132625 1.5184676779195703 9.401602610410976 0.9749085827035403 -0.14480350160235705 -0.29822662655292514
Ni 6.352692707821172 2.0140917074683897 2.5617213506253655 0.06078602093912111 0.2620290935864455 1.1702671715456296
Ni 4.2570335365511625 7.042339077245392 10.319652405187442 0.27608042947318906 -1.3635231122224196 0.5926464777652503
Ni 8.017417094821361 7.254274663567877 13.455615419578523 0.34808623038752956 1.5055981591500198 1.2193258767454935
Ni 7.664645077233214 3.719981152446823 8.170586700934322 0.6183066015355158 0.07718425979148642 0.09042595529274104
Ni 3.1367066002420785 8.466973302539213 12.514989305179494 0.7912333437366502 0.017070325218725438 1.3993894871017254
Ni 9.185782037694823 4.934141541381657 10.52527613700916 0.4914766536924439 -0.13246940551703637 -0.706943583248634
Ni 8.711929911329026 2.07423227739514 6.04545283971712 -0.07246037195325586 0.6472122288262724 0.40937155956057236
Ni 3.778305883909602 2.705326935548586 11.64059135915768 -1.179720860759362 -1.0210200323496224 -0.8527079061023638
Ni 1.0995991402428444 3.578354831449332 12.52086263469121 -0.2496086084349056 -0.010868824393703862 0.38708600868949467
Ni 3.3852131732289577 8.125395929081453 8.361552984674859 -0.19925792389649555 1.4409541979173894 -1.0221706010142977
Ni 5.394483829575502 7.942949559413872 3.6641468434373823 0.4573586289628123 -0.14408153583466798 0.5168058764858519
Ni 2.870586394154672 8.470223653389722 3.503491443256697 0.2906115332098286 -0.12007668827963837 0.026567466075883277
Ni 3.59401643820109 4.020003062656587 9.002023724737024 -1.5066093740233537 0.23929488521372336 0.0528989048815605
Ni 7.192881165100985 6.264315849779658 11.45634821733 -0.577000029477245 -0.8827749006910732 -0.6794469204902621
Ni 0.5729669451640081 0.08514012597948406 0.10052027776932633 0.13202100512570814 -0.9088559140488411 1.1646043168328977
Ni 4.69842755037346 0.4786468478299139 1.5472387304619737 -0.2732732990416971 -0.8986933716935427 -0.11609147837964523
Ni 5.91929746243267 5.780821621170171 0.43274880689532735 0.26730319750119125 -0.3152735547328828 0.10010461603308567
Ni 7.975870710765683 -0.18050251459189812 11.223830102018395 -1.1036468033129188 0.869757919606115 0.48685689553224537
Ni 0.012851596728761364 4.634500957249329 5.855456213716345 -0.8422034070266141 0.4146454063650021 0.6507217846414277
Ni 7.710758295025781 8.995917967901917 2.664041124312488 0.6838365649175255 -1.1245928094369664 0.503067700964153
P 8.671364080043894 1.61359037585474 3.5528967761844457 -0.6761952463221838 1.1340071607723308 0.9148776947628889
P 1.7305122145498928 3.2706882413062477 1.485102554063318 -0.07347930013607346 1.1524471126450733 0.49676001357857025
P 4.665678903675726 1.08500887818483 8.248509776938748 0.26512573023389824 -0.39324740030520017 0.5220344718746429
P 8.564701728670181 1.6427618207784491 12.375581030865744 -0.7330883599648019 1.4176528041872876 0.9033354984512442
P 6.343077843154441 7.797228522680124 1.4492234018536965 -1.140381696840107 -0.05471487504437674 0.43714281613656975
P 1.6130910202771478 3.028863953866785 6.114246787843928 1.209183646105169 0.26937524953887154 -0.09826370616960496
P 6.705846051486753 4.003705912442438 6.15109468987408 1.7392908676856176 0.05401707764640374 0.3724068094107651
P 2.454741227520459 8.47104078069851 10.580661933917998 0.5949409302263818 -0.08745170315576552 -2.951072870645582
