# total energy = -381173.0599291843 ev
CRYSTAL
PRIMVEC
9.21530905585305 0.00000000000000 0.00000000000000
0.00000000000000 9.21530905585305 0.00000000000000
0.00000000000000 0.00000000000000 13.48753630095126
PRIMCOORD
 96 1
Ni 6.039602848986359 2.6261234296127465 4.197159422426664 0.4329069236783512 -0.33248323374294997 -0.8592043124599847
Ni 0.4114386596635103 6.295392177261082 11.07712471778794 0.01786839563998858 -1.260219786746378 -2.5489767617005006
Ni 2.4186131045023163 0.20081079556272277 3.9700693305624313 0.3369258428953359 0.22677027038415137 -0.6010709543835197
Ni 5.1546383076858495 6.113620209821557 9.732646171985632 0.7820948717704916 0.8910849632186654 1.024054705410888
Ni 4.179557260956133 8.353732781532814 11.2457049705816 -0.1695215731743274 -0.15051495016483757 -0.4335538132337307
Ni 8.361418349129497 1.4763569879637062 12.412714176655285 0.6516021303638521 -0.2862895087957069 -0.8262700236258093
Ni 5.271681945630053 8.965739874135794 1.8363014231985564 -0.8993862839955091 -0.6341409974646111 -1.106080866675708
Ni 7.804417435165124 0.6802464547773625 7.76167222497662 -2.396538883481337 0.6113335126517923 -0.024783120481950867
Ni 5.490112411750158 -0.04322256318791421 9.285116676667867 0.9280139750345309 -1.3893215613427623 1.3174887956711763
Ni 5.435023295331732 3.122036061085022 6.225954824933741 -0.03474383123908856 0.9043117463215846 1.22728035570588
Ni 0.5548436101581579 4.662817273351377 1.6798457522837384 -0.6565782434222047 -0.616651582430596 -0.45003895537294747
Ni 2.4999197746528323 5.516366826717723 0.27089137644911593 -0.3917777577382091 -0.7449727701072137 -1.0573193810012889
Ni 7.324345919638529 4.953744574343307 3.1590640936512457 0.6997244397923756 -0.2888431284554961 -1.796994650154989
Ni 6.030018927762678 2.856174400216565 8.437694382168468 -0.2952189500748528 0.04578466243428244 0.4765943372639727
Ni 0.0876348227508065 3.7111523264575954 11.036904502229522 1.363394042843723 0.40512975356508296 0.044718683063613304
Ni 5.126679060577534 3.9783409918031776 2.3937677102608097 0.136891445844132 -1.0770417991308807 0.33244132476142096
Ni 2.7172628343264047 5.1793998426166485 2.520604456940019 0.4704830821599123 -0.7019371311729782 1.4397738044560429
Ni 0.3956270327062104 8.621990422707192 11.12563963285928 -0.20319016907136617 0.3193621229799597 1.0039792748172516
Ni 6.420471564538987 9.028929247050007 12.251093325119436 0.1603064823339626 -0.6847241097288015 -0.9396464170671365
Ni 2.1799918966503977 0.9513977029365821 12.289505497077771 -0.2391449898994204 -1.59054380805448 -1.5355939341811617
Ni 6.778486314096685 7.22233245045954 8.269842138775452 -0.40670429714105444 0.5689884720266782 -1.535336052534085
Ni 4.766268330713917 4.461637865433897 0.24596580902045032 -0.7677234335401683 -1.2576029179488213 -0.2274590689210599
Ni 5.264641449654196 9.151290118211579 4.146095552922183 -0.966222110673136 -1.0195285354057602 -0.906811887035619
Ni 8.957068268490136 5.002594926657473 8.64560465168381 -1.0563354198214647 1.2382129434579836 1.8623839741940764
P 0.34168706530373766 5.29440689730082 12.970545389948748 1.858720152189244 -1.5553752305731472 0.7170359344876296
Ni 4.035918241616215 1.748475843554163 2.8651703847344083 0.024948956635853805 0.23621984583282543 -0.4785229217452533
P 0.6475993800474255 3.599508859510581 6.671582280500958 0.9030200240933546 0.2578217403733173 0.6733636904106597
Ni 3.508691990607335 7.853028189448699 0.03733766694421935 1.7396472225837716 -0.07423828978928505 -0.3270453505568303
P 0.5937967207470997 8.519682063644398 3.2596943449690086 -1.8645766109700213 0.6396243891766855 -0.9137636357631038
P 3.2479909027054754 2.8119685635723366 0.9701195244346881 0.17335380243622403 0.14887715745109845 0.48073355624332686
P 8.227409327557604 7.94833291377111 6.854716270591311 -0.2207353770439811 -1.6797114654600878 -0.41563142442735523
Ni 7.215918595486769 0.7574762722842668 3.087256563882816 0.6302676305521339 -0.8880443766201287 -0.761047049961257
Ni 5.2756260978259535 1.5274190144064144 10.854081068048052 0.07674922913659685 -0.38381530835802286 1.8461266317949496
Ni 3.678990898505051 7.577084980677638 8.708982938429834 0.7878502861970302 0.310191255113969 -1.4937109207941306
Ni 2.4652057061435957 0.4557200618404639 9.39236904893884 -1.329671196669981 -2.3200758181265915 0.5024868887600185
Ni 8.280295985156359 2.864772283391271 8.386603788268266 0.7811168241279386 0.7439206746936156 0.9874689358670542
Ni 7.378412136772505 7.232902409732196 10.447000327948656 0.09738130356465165 0.3580209730027382 1.1754757123297628
Ni 0.8716843596895028 1.4459003921519127 7.730300548994142 0.9231432772057909 0.2051940868752724 -1.4099132694511847
Ni 6.535644494782799 5.304184340010748 12.077373694569575 0.4042404089815941 -0.49702098054944077 -1.4749660360864598
Ni 9.156146585985503 9.169121740872948 5.498572065291832 1.4273944569550836 1.1114601287097503 -1.541642968588719
Ni 4.8109810093459355 5.744749826416267 3.8356668153018356 0.12226161174609912 0.26683191429172753 3.003016353592409
Ni 2.6491801324027944 5.116560651439456 10.903647449861333 -1.8280054967142065 -0.44988803161738006 -1.7538805925743344
Ni 8.091815272860256 3.7891967772685127 13.19063461166526 0.21456601500847564 -0.5695289179111804 0.9742035862167157
Ni 3.2687622088960304 3.5084523925767432 4.6021363075112856 1.0157379580150765 0.9927494675397033 -1.8164527588796007
Ni 1.7314735986909982 8.291391217034544 7.095361160270844 -0.23784169770696453 -0.2028461554683861 -0.2050850721012339
Ni 1.109615340907138 2.888971684481066 13.316406068639221 1.1478047287770554 0.9621335424260592 -0.058535534342047585
Ni 1.5863969911675277 2.570278657867067 2.6689810665694513 1.8838395729646908 0.7987831310594501 0.7825224462262136
Ni 7.9217467476842645 8.635186745007491 0.6826894331585143 0.30105741113350093 -1.186567708477866 1.7005751962829745
Ni 8.564477680056237 2.619645067477893 3.721184111692306 0.4445959299805053 0.8355182816969546 0.34318802175496377
Ni 4.454542077604825 0.9069292299895894 13.184066861034378 0.38818618373220887 0.8067779763394686 -0.06997668629945368
Ni 9.179415240879536 5.614491435554027 6.380642999607498 -0.3192255974020954 0.09991743972294405 0.3946003147886688
Ni 3.980856771124394 2.0507471897637393 9.195626812241747 -0.9175313303356522 1.740765138238299 -1.8007224926285372
Ni 1.1538211775513667 4.953348316061943 4.395102413869378 -0.6719742662623008 -1.471869142328691 -0.8916554910101548
Ni 8.223345376346408 6.841952146276964 12.845232855356459 -1.938342589108578 0.9359512276037365 0.018882952947431995
Ni 1.4884751191263415 2.2199310452883148 5.225962033738661 -0.9109927578861859 -0.5291916517447144 -0.06326430727628458
Ni 2.543010558923921 0.6212270091263388 1.0250621174421 -0.759077327829396 0.2288106978529479 1.8434632260301735
P 2.1684082534021605 2.279028821064724 10.59753516291519 -0.2851613087285347 1.2294699071580308 -0.8661948848452051
Ni 4.063260063030312 1.42365463654233 5.313846591359815 -0.7515319113819702 0.059424621815220235 0.49938973789193347
P 0.5245040487689994 0.27070983486439815 0.07979720255778666 1.127237189038349 -0.8721066223439496 -0.7099510026163902
Ni 1.4665242534005645 7.269957166694139 4.606250021390373 2.850346047647465 -0.9687852434146217 1.343369777202996
P 4.826564096643287 6.232921598438646 6.886803054542018 0.5206422195128065 -0.4586398096680811 0.4618842847473078
P 5.79901878034536 7.1082100654267855 13.108212889141603 -0.3253689912956719 0.2641548816801967 0.7878721405739012
P 7.021189903777536 4.967751843824071 9.892365905301823 0.5545527562173224 -0.529224818975495 -0.6955579671195119
Ni 6.089909220101815 2.969531914613199 12.551581509062874 -1.4067618683063965 -0.7718942770884061 0.6669613864287416
Ni 6.94792819826959 0.6284066562661175 5.455802895300268 -0.3998677338351952 0.2925357468157349 0.750885536047223
Ni 2.919363773130777 5.450680105100034 5.8539005523142364 0.9358324426376852 0.6053641824422349 0.7544501134700297
Ni 6.768008507912717 1.2366575889741245 0.6009395066514026 -1.6949647920747326 2.453986584075845 1.0957571161521966
Ni 6.817245903199379 5.03234194368636 7.33809608200185 -0.867314600271945 -0.3033397794097743 1.8858308923631069
Ni 7.282821737875157 2.6544881503112943 10.654060945986283 -0.1521368020389767 0.6907613170618168 -1.4360842714195978
Ni 8.549180267333822 6.720872203048171 4.5794767845334885 -2.3740916102214147 0.6744196424789999 0.043592539878970084
Ni 6.9066528298456795 5.4819660787100295 0.944804149440867 -0.008171994287831087 0.5897642711214488 0.17326638492874033
Ni 4.029403018245885 4.721435853066602 8.350767295138795 -0.37921534769216625 -0.22280460086818402 -0.7252135852024155
Ni 9.107204080582646 1.8436884147878856 1.4270080874397313 -1.8815651751082174 -0.586465802875835 0.6108506594781028
Ni 5.166157443772005 0.6852734057653606 7.314533458754899 -0.01991036577068184 0.5884887468431349 -1.548075097367308
Ni 6.808574297553721 7.471717139070361 2.9555642709605707 -0.8420010612078208 -0.21062194275906307 -0.056537530075412304
Ni 3.9576249774658367 7.886424468789679 5.843542545145566 -1.590457418988261 0.7179065100180411 -0.06790077760703145
Ni 4.751099932315668 6.293890081915447 1.717003720705014 0.05839155256501556 1.8349631589789623 -2.085307360028312
Ni 1.731280077204751 5.953900476505366 7.905179465399713 0.8573364060133105 0.06374407512618054 0.3877244136044419
Ni 3.273342217403885 3.0770561384958044 12.231023303933807 1.4229194519028656 0.7302580896048584 0.3275207475313521
Ni 9.203734440984626 8.589469597708758 8.85772355275959 0.8845175944137927 -2.5193746225633515 0.030997733933095
Ni 1.2803657989394308 7.385618508308005 12.882323552022992 0.9271380001874806 1.1252260721455911 1.4899468257660082
Ni 0.18140704120831638 1.4330911128241084 10.017273887834767 0.07778486948996281 1.2984148097588606 0.2855220345020631
Ni 6.978836344215962 4.774626615858031 5.204920718998246 -0.3529114196903148 -0.24483458408502995 0.5993269751092194
Ni 6.161816275206029 7.3517614635235775 5.36694704412433 1.5391348574548847 -0.9364320238948969 0.8660691579006182
Ni 7.993441850684493 2.6759137434315425 6.147497528285495 -0.5106262300377012 0.10548722050123768 -1.138900227198574
Ni 3.1534971255635287 3.0667994997246915 6.9404158784796435 -0.8378793257299634 -0.593241688147088 0.014551929672245905
Ni 8.860187726351139 6.711583171708296 2.307825739749225 0.7674650376724589 0.5624779246016699 -0.9515544813586322
Ni 4.295439769982852 5.8339724468851895 12.058140423429244 0.06442516035360517 1.9833687761102812 0.26742069691566206
P 3.737388310807422 7.594179378629492 3.2252475204169713 0.4403050159146353 0.45076529201601073 0.6256823251742967
Ni 2.06563912889592 7.461902835124957 1.775890465908325 -0.518275776163159 -0.01366567041255066 1.2714110274765071
P 1.956778685227321 7.10953706990391 9.73766390766476 -1.0966672866712919 0.30514700782184223 0.7429487976986495
Ni 1.620935968808255 3.595758228800929 8.802775430566856 0.40681614012857037 -0.2709701048298172 0.5373438485382036
P 7.477384554024749 0.3399702532614571 10.205047785940621 -0.09913068215559057 -0.1254423234669259 0.2991591656695235
P 7.040035210414485 2.7937683285562116 2.1503987752796223 0.0312432742849978 0.6212829105550204 -0.28932649584981784
P 2.9877413649381928 0.8267735519168016 7.180548396986065 0.20878051867495012 -0.14708612698894669 -0.07258815578037175
Ni 4.816989390728474 3.933241270198663 10.558920254161738 0.8741082261550107 -0.5200398100421173 -0.023447175279346717
