# total energy = -340884.4709202859 ev
CRYSTAL
PRIMVEC
9.15963581842089 0.00000000000000 0.00000000000000

0.00000000000000 9.15963581842089 0.00000000000000

0.00000000000000 0.00000000000000 13.40605289043446

PRIMCOORD
 96 1
Ni 9.085341917020642 7.473777288756344 11.703403957001266 0.1569506784878523 0.35888846320935613 1.107490088318409
Ni 4.952431842368169 5.5640481984576295 11.382355061078092 -0.8601782463374797 -0.3506907578899121 -0.21006272782148336
Ni 2.161674030478079 2.5933493428016847 8.130355548716178 -0.5270764051739245 -0.5206784720673807 0.040482019274446404
Ni 1.899772566268504 2.6699880148907105 12.420144536312735 0.5312325934341431 0.1664048819222166 0.39801216868369516
Ni 3.3165667005324373 6.790917286018331 8.266573987324897 -1.6761605148840357 -0.448222470989499 -1.1980150310828592
Ni 8.24755583567455 5.50695618900013 6.106108112798597 1.4285116012786625 -1.866502367237824 -0.11821340981865448
Ni 5.030334544186881 5.64849088018211 6.92458842993266 -0.8607040369339629 -0.155382562669784 1.2350653989679374
Ni 2.907762998607577 6.728274537313078 12.4979135074499 0.3741767568269943 0.069221553300984 -0.011555051827451068
Ni 1.7093986974148754 8.43719693367039 9.288262654886765 -1.1351186486689548 0.054790208367002415 0.04504675582699339
Ni 5.649223651039899 0.7665415187339659 1.501612361053031 0.556879604578286 -0.41301738384327574 1.0119882611646571
Ni 2.9742069961376107 1.2963266052433926 5.909427834750121 -0.7858821067270659 1.3218504150739816 0.0850304953087826
Ni 3.831658815379619 4.396597667827909 0.15127962762700384 0.083187785673089 -0.3983171015186237 1.0389925576676429
Ni 0.5492786232537632 1.0437130116562954 7.059104092260592 -1.0471182720985708 0.5928007439549274 0.09042621240305718
Ni 8.398094448771614 5.00600655170828 1.8527973744663564 -0.3517071149695685 -0.317551295023466 0.9385045901532095
Ni 5.4331112058064255 1.011764202256687 5.964996596786991 1.4090918019911538 -0.39551099952839625 1.8457864748467114
Ni 1.238730815821163 8.501928079320342 0.41497912832887907 0.26452974852111216 -0.7242892736159333 -0.4635645006632081
Ni 6.416627091495339 1.948510987947207 4.09339082632833 0.9476057811235293 0.17720505786151416 -1.179407443284001
Ni 4.446114658543013 3.193681027681192 7.41604044094399 0.8229232186407633 -0.12585832795842197 -1.0827897573582514
Ni 4.0856921525036825 0.5229135277905085 3.8778078080396092 -0.4959241479408363 -0.03532258656069401 -1.0259514082129686
Ni 6.961542980254541 6.175298169118196 12.534632655133716 1.2268918620182094 -1.090981034919792 1.5124488635232662
Ni 6.10721459679386 4.043951692516866 0.8702194354754125 0.5068356526470175 0.6586130144640463 -0.43917707295777914
Ni 1.1324973607131767 4.695769689791786 13.472278917052172 1.03047732110778 -0.5867733068139249 -0.46550105556428867
Ni 5.967933175999581 8.287253696895279 4.263727992039286 0.4065842266234223 0.7325787673182351 -0.16082173140748435
Ni 6.528933385087254 1.9619115350090264 12.907226485120926 0.17519728340286603 -0.16225820674369476 -0.019587949434256586
P 5.120987458931125 6.325204767350418 9.266906964200071 0.010529181666097997 -1.6339615129184828 1.2126674908887116
P 2.6715726318706796 4.6584166953159825 11.816698575287623 -0.3884129550310343 -0.5587760502700506 -1.8047796934170464
P 0.07058048902225375 2.238761524717501 0.5088049408873501 1.9315595047484735 0.30012847156132827 -0.09861491886143661
P 6.732579566102589 3.7545896404116417 7.567005893065717 0.03026214131865111 0.1531726995026588 -1.063798303857413
P 4.398631106958274 2.0190127041022485 0.27680052767557356 -0.2507337231782843 0.7196247782607283 0.14308497624935357
P 2.1558759810658223 8.546086683137862 11.743072507387682 -0.5643787411688087 0.9922622434906396 -0.6019687836074408
P 3.065675118461145 4.540907728633766 2.4051930217564403 -1.1114619284819633 -1.2921284625295166 0.8590834706114044
P 7.169750659859614 9.032454180359707 11.781051104983325 0.7825761822822844 0.38909995379572987 0.5863963830904805
Ni 8.576405077378888 3.3389620098736197 12.239887485114458 1.8271179519029308 0.7877250734730755 0.6036078618727604
Ni 2.5789503954461273 6.2234503741106675 1.3398898327389592 -0.08115969949946668 1.5445087201722885 0.43195535839835925
Ni 4.651528649252764 3.000128765231903 2.5527941396773426 -0.17354226429794628 -1.0591338085022082 -0.3624548404043758
Ni 0.8846238786124032 3.7383770851830564 5.9558397089553425 1.5110440127559397 -0.32480463415176963 1.1552326458100104
Ni 1.1793214185259053 3.3782476874868417 2.0123554808592337 -1.7383485583770062 0.3559792599823612 -0.6692548104486087
Ni 7.63791796090112 2.5378144714169872 1.9803022516123903 -0.13731104988005385 -0.7614625402321208 -0.03155360643656501
Ni 1.6145873080526778 8.617385287600749 4.975039655258109 -0.22586241385790135 0.1959111189114497 -0.8108665445865455
Ni 2.393165504089403 1.6060138890165443 1.178743445511824 0.4111821304067499 0.11608890727648394 -0.17560377481266531
Ni 2.3832639378735267 1.39570865283105 10.510063716002282 -0.2862990218774037 -0.16067183609318136 -1.1633868994860286
Ni 1.0792981964376824 3.615289900345919 10.209165102704738 0.1148079836815313 0.28936146285281134 0.5090154339071556
Ni 6.93403659418028 7.2331444986941005 6.2063053679655455 -1.5540014901540722 0.5801498879601363 -0.29190916897532954
Ni 6.547252656531984 1.5298240390779145 8.383448191251553 0.2011073184004085 0.5070410837896042 -1.173828663644643
Ni 8.175103117110645 5.067119641247898 10.440097838536998 0.3645513179220883 -0.1367628906860677 -0.33411974090510843
Ni 3.268093908289684 4.467630642854848 4.863809618863573 0.6181574775521612 0.4003297610732783 0.4920824055972428
Ni 3.3389620098736197 4.30022914039291 9.37294898292146 -0.12310724757584605 2.0768882827266815 0.4826387436858397
Ni 8.283553204063443 0.1956250880132605 4.8819612689745835 -0.21947656493621556 -0.3381661430603402 -0.2116917787844741
Ni 0.2976231275632253 0.8949422082536471 11.80722018424212 -0.38836024741622793 -0.43720066595769863 0.21388878643579293
Ni 7.201122412208713 7.472394183762267 1.2811161141628336 0.2289179128547735 -0.10865841914036771 0.9845409635869817
Ni 7.285253666318633 6.313205644554119 4.022499825655088 0.23955585218459388 -0.6393742208390923 -1.2568691251065902
Ni 8.262998981502458 0.39769672764792136 0.5345581726843508 -1.320895764470196 -0.7789624967890971 -0.2540219070112529
Ni 4.090363566722089 0.7345038608678508 8.111667143951836 -0.9965287320764774 0.19840071810252283 0.7163545921498888
Ni 4.209887653263226 8.249314485733244 6.0856912847734455 -1.3309233239095273 -1.5951885059153432 -0.4230647407769488
Ni 2.413463256850163 2.4603789110201157 3.5960400099117975 1.328431410725609 -0.2852297000726249 1.2796542413219059
Ni 7.41543040920488 2.218445452685296 10.621776465199387 -0.19182769287069545 -0.33097399618727513 -1.2051015056159957
P 6.806342112574792 4.150569852325193 3.260834896979709 0.8946906782920526 -0.6246999066563693 -1.009042805383088
P 4.125545727531692 2.4074636954520146 9.552898270359467 0.7084034556236123 -2.2962728021697223 -0.5913347009323623
P 0.15874473074073112 6.89910174353518 4.756695006799095 0.2994939233011229 -0.09717432976016813 -0.34360145514329854
P 5.431297597933398 6.141251803138166 0.8095670756126297 -0.7462511225990051 0.712307932884341 -0.33142985277777115
P 9.020528334649189 6.232619169468755 0.29465998540704036 -0.9104566828770578 3.5411744705017916 -0.4196356604907418
P 2.199292654389831 8.860591935300977 7.179919687438583 1.3790834285545217 -1.5062910714519866 0.32883560968803366
P 2.600732009193911 8.918416715616267 2.320962843580719 -1.3798573306060689 -1.103579440410093 2.1315795036219742
P 4.8240045899048924 6.40133049983899 4.968645313560327 0.18258252012334364 0.7376422978840714 -1.0923421769333768
Ni 7.108564293234217 5.8992175888104 8.225538819288703 0.8130931199242191 -0.2800568976224338 0.8996341383402571
Ni 5.422595943997151 8.003506501487864 8.115032394116232 2.02413953026974 1.09143277774523 -0.1781478813907577
Ni 0.7414010665667915 7.286169629890869 2.5515072108583507 -0.6576439656825577 1.2958079682636328 -0.03257741971538906
Ni 1.1817395623566094 5.183419536014763 3.4271903690421532 0.1770515630027854 0.06623650253073109 1.589609726275985
Ni 4.701027320696424 7.600317656260813 2.376517866164005 -0.02808544538230647 -0.09589803415090581 -0.14273659177099932
Ni 2.0177853129154513 6.475267079389918 5.938157032193317 0.8452360232053507 -0.8028621862248302 0.03562417696151284
Ni 4.975880509817422 5.274493794002236 3.0551186382911193 0.49984328048958426 1.3643566638673084 0.3004861120110631
Ni 8.308797160114281 9.071574984529928 9.555257792521548 -0.8168998952648189 -0.7330731904561504 -0.28865852324851576
Ni 6.084910883809901 4.339331625291685 5.331117746074322 0.3144765127528842 -0.8708686361717906 -0.08148391560810482
Ni 4.594225968173651 2.87705989966621 11.606772548021036 0.2845424441976132 1.2037573328832754 -0.048281974934839426
Ni 3.7768750341241555 8.869311908508669 0.6431273349015402 -0.5676460990661708 -0.9283402480256979 -0.28970907600021717
Ni 5.717069072835455 0.46306263605343284 10.31473723211357 -0.4584084103835654 0.04258261055721699 0.07961858026459191
Ni 8.658154826200994 3.3487628200965496 4.2698145699767975 -0.5412709515067516 0.08607359186131629 -1.5846783504126385
Ni 0.1973498474197818 7.74970215525686 7.103853492582205 -0.846138223304646 0.6996596479927112 0.05845762991626061
Ni 7.751204335515327 2.32110664986156 6.208343386913771 -0.5990498101884328 -0.20948602938240699 0.20783769514570657
Ni 5.288627111921844 7.92981723210144 12.614719930072212 0.9836742447113125 -0.8421848950838527 -0.43688030650380244
Ni 0.4841710165756224 0.9703443295201537 2.650739040420161 -0.23506362074119513 -0.7913670411010371 0.3888004202774401
Ni 3.971938636467635 0.5918718453263315 12.029868029563502 0.07476819415082607 0.6367997752436968 -0.838726247111291
Ni 3.8793896771288616 8.073641832214012 10.17003239100808 0.16863377125273538 -0.30588080066407325 1.2088964538820535
Ni 8.760660309569978 3.2147115512997417 8.24407883795434 -0.05360235870648833 0.5985988386939433 0.3081788526696306
Ni 6.7639055202730765 7.18561514893075 10.450902544835099 0.15591246703132502 0.7830996588859223 -0.5898262347076358
Ni 1.8820395115100057 5.957133965482912 10.268405962702706 -0.715417167937284 1.3857873229372588 0.01610076221660453
Ni 0.8018803093144213 5.634439998984003 7.840114171581606 -0.2901502773026938 -1.159958847641086 1.8018604628877226
Ni 5.781671983585293 4.040251199685032 9.516916473351301 0.5334745953907845 0.04549284222547649 0.4124031472980446
P 7.294202630419384 -0.07296382623721306 7.009140111322237 0.7419949184258126 1.8026539053232953 0.7491587831641033
P 2.620416066361272 4.563220601253446 7.201530015998358 0.10544196908559907 0.5865259666898092 -0.41331923135441073
P 7.412884030474063 0.23823754532084576 2.661155378163634 0.5530568883980862 -0.33854512366631373 0.758687548590145
P 0.9377085474413681 1.5863664703920721 4.873180842171125 -1.1388174376767806 0.8994086525930124 0.24834748233429488
P 9.0683691120271 6.962458943826777 9.624151992607315 -0.35553343069419413 -0.9454941340971653 -1.8896224981950553
P 0.2539673877468627 1.6857027198011176 9.699762037604717 0.9112439546650436 0.6169688565606988 -0.7835308328860701
P 4.554958609831873 2.6225136229416943 4.934138217903462 -1.2434839620489357 0.20029690668397118 -0.45620188965054986
P 6.692945822331917 4.069131531117647 11.77680194997172 -1.7654359015121015 -0.1708433773095445 -0.39429075396805
