# total energy = -340885.77536654414 ev
CRYSTAL
PRIMVEC
9.13000186577450 0.00000000000000 0.00000000000000
0.00000000000000 9.13000186577450 0.00000000000000
0.00000000000000 0.00000000000000 13.36268060529721
PRIMCOORD
 96 1
Ni 7.108464190434862 2.057993705444278 11.303504634897616 -1.3629199314207818 0.22830676163333585 1.72780266454036
Ni 4.843219444160163 0.5697687182498412 6.126388242956587 -0.10678665603895157 0.4654036107544759 -0.4414057051779818
Ni 3.004336651882814 1.800947634803764 4.456561128984808 -0.33706802490015497 -0.5125291034873689 1.087518273182172
Ni 3.6759487141967595 4.3695823408491625 4.721114800104391 -1.1332386580374225 1.273394376455123 -0.27393278700256696
Ni 4.142108346034628 2.880296447445717 2.646078120302485 -0.7479863601225569 -0.35883138471917553 -0.8667358449503396
Ni 5.217942107984083 4.951574305507099 2.3786101526087586 0.058590041729066844 -0.19133892615973502 -0.4073879534716403
Ni 5.340384562106407 2.8973604208074812 0.37171798023196745 0.3687226756909585 0.22831858870787775 -0.3523547758558964
Ni 6.062649874399523 8.169498219468629 12.721699769295506 -1.380593437441145 -0.2975116027637715 -0.7249428480395321
Ni 2.1939211722232783 6.495530649681141 0.19658811172972243 -0.33542149043566744 0.7231896127938513 0.5909847737921112
Ni 0.9000666193216602 8.73926511171811 13.047081164398728 0.5487646887806356 -1.5215546824792763 0.8205022679040964
Ni 8.27879347100083 9.007997584660956 7.038752061700912 -0.8829991008867373 0.8293041824664427 -0.8329042411128752
Ni 8.785663780859087 2.7364441391054477 1.4044709156940904 0.3593782583615811 -1.9347070492385194 -0.19514107351464458
Ni 7.22128362266136 1.0592445486812219 4.744420042695745 0.15824882847398553 0.3430306702414931 -0.9170662177737754
Ni 1.0532917875084715 7.548292897085289 2.070680755943747 -0.16154241162359276 0.024560977168815765 0.3358760614745828
Ni 8.183302782188258 4.3473507864693355 3.7892155165113937 -1.915483425122217 -0.13880768903023835 -0.36000226509882516
Ni 8.23457687228974 4.034337804802809 12.456543518057211 -0.1884718890245851 0.6776756875224523 -0.05100708717548635
Ni 7.956385717483444 7.5208846316856 8.884899596409484 0.44360245571898443 -0.718404275590066 0.08871231503574399
Ni 7.093591417504785 1.0365199742042652 0.2236220470556641 -0.17938895288671042 0.18974484219973775 0.35571443635674865
Ni 2.3767038082331906 6.674606504960783 9.027760386554416 -0.5498916032962272 -0.28252849909137795 -0.598882174262317
Ni 0.17257255499843002 4.913346987975955 1.5085264591940193 0.9305706800181135 2.123623481999691 -0.0015488325443586228
Ni 6.788192857338372 2.186416310744749 6.9224833147948654 0.9028120218476064 -0.9183851936955152 0.2645096939164541
Ni 3.689671106900201 4.706324197190502 0.3963114660771174 0.8512277220124115 -0.4643615426432067 -0.1472123681541658
Ni 5.999159841891386 5.461046665877985 4.527703929000615 0.6627257510808392 1.1952220417187545 0.8811679612152695
Ni 5.632772869709676 2.985227558118141 9.855511000629136 -0.9311764319229124 -0.09932505755458378 -2.090538012299632
P 0.5175816279684895 6.073916296619116 12.289457181139618 -0.46991204014779064 -0.5365691751557081 0.5538786129684332
P 4.462142299084352 6.388152698526667 12.590170224382938 -0.37283926896249336 0.12824585435399205 -0.2186486697182815
P 2.664344514901138 8.83666397090661 1.2482784969227025 -0.0008865163700113765 0.03275174050972424 -1.1244346865925474
P 6.627660035711884 8.43350135147975 5.800432570740227 -0.8676478152416476 -1.4522092020059183 0.6700150856534008
P 4.765943108935992 1.3262788412895101 12.344644390012022 0.7661226647119516 -0.28081974393038733 -0.2955884175991296
P 4.354298717838144 6.243350869999333 7.994450520982571 0.27486969699453956 -0.13922035108762476 0.6187213204754312
P 5.017173368430736 1.1512932268156844 3.8829678529814933 0.5834455279922727 0.01845769248455531 -1.4169910022335725
P 0.3566133052562032 6.168996135350745 3.5973403117101586 0.38140824157842695 -1.0261419269572198 -0.4478589170024932
Ni 1.0258196120961924 9.202128812906649 4.236758161681539 -0.8450879276632607 0.4088375414339733 -0.44617844397627676
Ni 2.107642655225592 6.926357174558053 4.799687595583976 0.6202976638236155 -1.1194601161960915 -1.0563922412013291
Ni 6.276647986559181 5.752175033233035 9.129904107677698 -0.7965236456013121 -0.1665717465173841 0.4946295974991287
Ni 9.142236001107197 2.3706597470424535 10.247920303937493 0.43590971506041704 0.8177609577135336 -1.3709939666781679
Ni 2.5973576917040986 5.555423494471116 6.823198197234756 0.7325324874613319 0.12013093855634148 0.12954040479569948
Ni 0.5546530872719185 0.11396981245313394 8.954105010043607 -0.22327665540859612 0.8281199323503544 -0.3898296328729028
Ni 1.6933870836133156 1.2439718750742572 11.44752767427152 0.8392281264483741 -0.29025877785610016 -0.38508723309191095
Ni 4.437126094155922 7.08374927556579 1.547518870875894 0.23790700372726126 0.8195015945537241 -0.7414058786915618
Ni 5.7514263730855415 8.228395861072023 8.144153334475446 -1.1491591859224208 -1.165806821781431 -1.033879919031426
Ni 5.5529492639836695 3.1080717323196083 4.716785353251448 0.5182845179139074 -1.3069585855638135 0.17590793631664545
Ni 1.135671793738114 7.8963011756462205 6.732412198349054 -0.136705555085571 -1.2519521474209472 1.0088859680902496
Ni 5.303271104794704 4.04008057593419 7.274643005173664 -0.9636412373198373 1.3539300692173455 1.0691631677137523
Ni 0.5541299381688531 7.426699533130243 10.418801982602803 2.003001976960176 0.4616821960388307 0.8580763695031286
Ni 4.468980670431576 0.5444092252537805 10.03653519829262 1.0256698724168078 0.2728997177523622 0.4643389169353873
Ni 8.39943731476881 7.668434590754342 4.705440413016388 0.05442896837284174 0.21200133960509296 0.13911853540243782
Ni 7.32498218309096 6.5248562154585565 6.631497375467876 -0.6907163227564943 -0.6657845925118211 0.5339908729055707
Ni 2.6040865030297384 5.741255551081793 2.547608311902999 -0.40267100761194524 -0.8480572947042299 0.2969377325381725
Ni 2.4260879879623425 5.4989726933497725 11.405502275992118 0.6275111508529193 -0.5088670812547493 -0.6936985453132698
Ni 1.3094887679817064 3.876854403777086 3.7737547714654807 1.1726878651719803 -0.11523890057136282 -0.289928648210191
Ni 1.8527877850167656 1.4862090827972847 2.3608915581180274 -0.1351071002501996 0.6950213778897513 -0.2642998918984932
Ni 1.3833778725385608 3.7196540328071217 8.02157666932668 -0.5072280029894296 -1.0232072698089283 -0.26033627926505487
Ni 3.4792154354384377 2.577436027779342 6.69978065892033 -0.5046533002837179 -0.11407187684645516 0.6231125075645914
Ni 4.461713188999813 7.2483358179909 5.94327966588246 0.44161884963005227 -0.05201984471071686 -0.16389857056059515
Ni 8.279085631058388 7.241059206557337 0.4744177184647899 1.1440599170226424 0.6071636975448188 -0.4775273906012034
P 0.6192597190000376 5.830665658696432 7.942656933778744 -0.12262182329899526 1.6228288933404307 0.2364730994942121
P 8.806370624938532 1.887892641932755 7.916666557658393 0.048532657493064804 0.5315550097705685 0.3648634498458684
P 2.066511997122462 3.3491311698106037 10.741483636174149 0.21534943014171945 0.419180061010562 -1.0089589874200302
P 4.254909518257529 6.510056482542868 3.756850573135193 -0.3060931737851954 -0.19115612072496757 0.2205163190546396
P 7.476640642969115 3.9579196897477154 10.270649443415348 0.4504210213027146 1.2993188096303685 0.22930254988770188
P 6.2315457776736185 7.911630448666233 10.32991319809087 0.42963416646435043 0.551566677005805 -0.5061496823235864
P 2.718485425567411 8.87547560855287 5.566425146638546 0.5777505344900243 0.6314590797570738 1.3433790331743767
P 7.124980363688705 4.2502258273347975 1.5931524458661412 0.7831107146295159 0.8214042108930758 -0.5709484239665265
Ni 2.9138400740541295 2.0678358473832734 0.06795551638788122 2.422931257431937 -2.6617101222411903 1.132496123444443
Ni 1.2370878537180399 1.2225072408455206 6.4696215305767995 0.6200235842266225 0.6317182469557314 0.5544789655565934
Ni 7.067023112270577 0.72020923588805 9.093357623477694 0.11845406507455084 1.3856104310397623 0.4597582395432404
Ni 2.5874425097507134 1.8235078692483442 9.099998786786065 -0.1970118081747962 0.20926080074547834 0.08320295518174059
Ni 6.521587674814623 2.4223081672176825 2.397692769368215 0.3131125425258221 -1.1984837431891617 1.1551066617551076
Ni 4.056304589130474 7.247231087773257 10.496185138848018 1.744414304955112 -0.5281701524587356 -0.2993643397017941
Ni 7.796263745937898 6.738954757637999 11.396415185201874 -1.8726938407605167 -1.468198892565955 0.6447457695636509
Ni 8.157665737137517 4.354609137899299 8.061251092142918 -1.6457613337668884 -0.7278469090602045 -0.6441590438222455
Ni 3.2007321205745836 8.388079592531232 12.349428510954539 0.968319616632113 1.2857577831164824 0.45707015118811606
Ni 0.36203470032426954 5.081549011113348 10.002367079561179 -0.1220682647883704 -0.8693375442392446 0.9746314177827536
Ni 8.770170167806699 2.904993102311192 5.619821962158224 0.5255255157470369 0.7260913598216785 2.0937958571152975
Ni 4.178564443216825 3.488336307235336 11.528064333138005 -3.3959382522373898 -1.9205495267912152 0.8162735745347296
Ni 1.4855243326623822 3.5676121128534217 12.993790256899914 -2.2657126699946786 1.8693688901523418 -1.261949624953291
Ni 3.2826830167196874 8.77388607853877 7.9121362507658795 -0.06105907209484969 0.03226991577729926 -0.3663837431451367
Ni 6.136383768925801 8.14062002377935 3.516763480835759 -1.680078104770887 0.6375790766118826 1.4323505154087783
Ni 3.2469116696723925 8.602808104834786 3.368678503661614 1.0849669675152283 -0.21401657026290885 0.02343329132227577
Ni 3.446475248988311 4.293219005804861 9.171823597936234 0.7116124494792132 0.2582439155124004 0.07806306285201393
Ni 5.857133533910855 4.716905869275192 11.802787913261156 1.708730478400257 0.7301747858624328 -1.6801446963427646
Ni 8.75538869489461 0.24615580449502802 2.01811203158721 -1.0795684222074764 0.751241633835061 0.2794604016890155
Ni 4.838207073172678 0.4379597952822333 1.6193701590312795 -0.21985374576997618 0.9150900678840111 -0.3094926863850476
Ni 6.535784827611597 5.828903568349284 0.19372311716529134 -0.767247265234698 0.03877017878966227 1.6131905989197184
Ni 8.053026786522652 9.13401899948837 11.29500642922339 0.7133363741488554 -0.516176213321653 -0.02748894944888814
Ni 0.27865495889766967 5.483469950295586 5.8083026322907045 -0.16345634081685395 -0.5608591580513244 -0.3248557991046792
Ni 7.446438597019026 6.433474027455398 2.640612901225785 0.39913445521359653 -0.7290445289127315 -0.6605698810801011
P 9.1590352044168 2.0397428318486828 3.7953892237276725 -0.30746202910826403 -1.744912841858085 -2.4115345855592207
P 2.243688812027975 3.6487413088366427 1.6882678916047862 -0.3566102086981407 -0.1546199734721466 0.25950992670901757
P 4.981776351457189 1.8633055470888642 8.012129856465569 -0.49600153814599085 -0.8798263595857106 2.1037820217937315
P 9.143879401430961 1.4375279132066325 12.82775934819025 -1.5278788249250912 2.028396762884197 0.18706061049935524
P 6.643135388760675 8.296752184538866 1.4888832603241229 0.9872444785610739 0.05215225652352309 -0.7159344738933348
P 1.8933158630011813 3.722173913303562 5.890189618423218 -0.3843737519646542 -0.4839821450876116 -0.8567159988204923
P 6.941449067531299 4.144655616536464 5.99043612517273 1.920201913643809 1.7946786004273028 -0.5824890776162742
P 2.331090319246901 8.752887074401766 9.96072879335804 1.364080527387786 0.04839458925330375 1.033130442459911
