# total energy = -340862.1906889809 ev
CRYSTAL
PRIMVEC
9.35455086248534 0.00000000000000 0.00000000000000
0.00000000000000 9.35455086248534 0.00000000000000
0.00000000000000 0.00000000000000 13.69133075974132
PRIMCOORD
 96 1
Ni 6.062787233732374 7.568720229832074 4.449545379745192 0.44873643451144013 0.5059619917928125 0.07750847590012458
Ni 0.9722558764636622 5.327201490954808 7.58312156069412 0.9700543399350327 -1.7135896062647713 -1.6003605370345857
Ni 0.3798546291111095 3.8254406244845147 0.5629970880159716 1.0774246363915962 -0.6798513550175324 0.12665562704873673
Ni 4.473364872290841 9.353615283506993 5.253061999076185 0.26572145483636816 -0.647345411970027 -0.35614509613626405
Ni 7.063349980730982 3.489191298186226 8.486050861634158 -0.6622459832309433 -0.9355550206065822 0.019293558122289355
Ni 6.392273219846668 4.710063069629151 5.619483493326692 -1.2101478097906513 -0.04694962927666108 2.091039120305766
Ni 8.15065747672845 1.1998146777303802 8.349876666532637 2.2691175819111695 -0.08726864061068196 0.40260827269480987
Ni 2.8225860125549547 7.698561394083576 6.710354137700485 -1.8528914613226088 0.6427876173960154 0.7700837062422285
Ni 5.979382059347187 0.9599359331409513 8.266593101307052 -2.3115024746352835 0.7321715045774875 0.13710587584778322
Ni 4.94987633236341 7.324884510280225 6.894351602542854 2.9760812197644615 0.08888483605786628 1.547588901759509
Ni 1.8829868727196781 6.91834508973224 10.836989780500605 -0.9443700477950512 0.4760376934295544 -1.8480318192374623
Ni 7.754875789529833 2.0541377330327535 6.0061538481059324 -0.32186329213525855 0.16200161064819843 0.3221476561448968
Ni 3.730866116517462 3.1166088968192893 12.635332000862235 0.7677239477608004 0.5475015057974958 -0.8144761163146746
Ni 2.36014379679321 9.281482342761796 11.006788908231954 0.7359417702531971 0.7301246493507877 2.8832679951864666
Ni 3.0047097608843854 3.984346377880788 4.762268946391024 0.7696936698926614 -1.3207039601743642 1.2751627812094555
Ni 8.236251615986465 6.693686199194483 3.8250701842752672 0.31682444415977046 2.0693294965428164 0.2915340450240979
Ni 1.933361128446936 3.221445346946565 2.5582385695986196 -0.2399345756802513 0.23419330232109986 -0.29981891074070943
Ni 1.5406477338905733 9.305046456072281 5.1997204798546495 -0.16427806538720094 1.2031765206791407 0.7591408340774797
Ni 2.5782638563647002 5.968942380722931 12.66832830768243 0.10652080397207461 -1.9082835649396683 2.696314856799253
Ni 0.9770547609925542 5.9728806465838735 1.6129752492911327 1.2046420494810737 -0.8955265439297867 -0.2391743004754591
Ni 7.220431596733231 7.5530420027942125 11.53528828403419 0.6416216221123724 0.9448912104058436 -2.253208366880081
Ni 3.2158139074019396 5.105208647377545 9.08710039114453 -1.3728567309185196 -0.8083913435731754 -0.6793631025272041
Ni 7.547354435945155 2.9629884645903144 10.741341370108763 -1.6201667731272353 -1.7387810179287346 -0.14274507641143158
Ni 4.937116725155986 3.5953280308661646 1.466218250939055 -0.47710675812401704 -0.8003620455107958 0.17161033738255607
P 7.585895184988108 6.657474733285436 5.945884348607403 -0.5766159066649488 0.3191973152673212 -0.4697071232258362
P 5.405377471477127 1.3059233467581026 1.5121257086886404 0.2128328343674528 0.05140355128295663 0.8502926117926518
P 3.4607815275931557 7.376362602994636 8.97807590865159 -0.03309961076744622 -0.5190321947132093 0.07207136404495329
P 9.462969981641002 8.272631463808805 13.063063220653401 -3.001344108096309 -0.72245119196593 -0.3806068287230542
P 2.8755608333875378 7.887523319002909 4.530365891761309 1.7693781739893009 -1.040654518751098 -1.3408359550375488
P 6.734640422327989 7.712424838278153 2.188696397221722 -0.5438479682053085 0.03294148792302714 1.0373359959008261
P 8.494465280023512 6.718344794941381 9.698801947580922 0.2520696683808885 1.038454682886302 0.7077015444605813
P 6.7408331349169295 0.6653396149163414 10.284516562065537 0.5308950075890664 0.18331759851715526 0.10908753625798634
Ni 3.9622415744855215 8.016962237572653 12.32683856206039 3.2002994131507205 -0.12093543673550787 -0.5670334051828363
Ni 7.341226910420526 4.134150153408421 13.630705778566151 -1.816445302680433 3.911445464516477 -1.0968107542276917
Ni 5.447641331714036 5.978736595346225 9.013838356125186 -1.1736610277185269 0.07521865142468336 0.8372208662103582
Ni 7.233462485912075 7.242742200244748 13.634319441516466 -0.4351892919546247 -1.7366891683967125 1.343555667961557
Ni 8.918301264887134 2.6317251138356896 3.8272338918611006 -0.10407748463790463 0.3002963645977602 -0.49881946721076026
Ni 3.3254585966088452 5.352187495977557 2.7675382232787014 -0.8320915154035928 0.5215760441809856 -1.3677299512149155
Ni 7.237597197338528 5.739082359974523 7.827854381661798 1.4578124071253087 0.5608095357603117 -0.6765459447933833
Ni 7.020861611276348 8.707290663876964 6.784259765810643 0.8976836994821057 -0.043223072354693304 -1.1586357579542885
Ni 0.020515465224781666 9.088825370300723 10.343047050581763 -1.2449903713911332 -2.7017077456800505 -1.7963117651553517
Ni 0.0885913373146561 3.328835589425473 11.828200783125855 1.5105192506007212 1.1394049347491344 -0.13046291660996887
Ni 4.668884337277919 1.8383469565951702 10.90741738664616 0.6751521497696502 -0.1301243023236275 -0.7260733620995495
Ni 3.5490510683624046 2.1289647843906616 8.816709908411072 0.7429544541256043 -0.0050002814280688075 -0.46692056161963463
Ni 2.1196382973042964 8.384474472439278 13.295281523643006 -0.7344934678424446 1.294298473597642 0.47276930709092774
Ni 8.728824839677179 8.096896873633826 1.6352512409649154 1.8685330245146077 -0.3090219173962162 -0.0026574922275051007
Ni 2.207804938015421 0.1357579175936546 8.934455638557589 0.5628530485529016 -0.2765092894804915 -4.294412823051907
Ni 6.005677701473338 0.29697985775280017 12.316542943517506 -0.7789812658421745 0.03694032466977509 -0.7368200590930923
Ni 7.724894454412682 0.2331893053562696 0.09504597732427689 -0.6634119785145864 0.00013986801197395267 1.9726215648961059
Ni 0.7236530778554329 1.3580562580242137 1.2262861854104161 -1.7479909665627766 -0.7987769604118631 2.4401579057228684
Ni 8.104221486862135 5.543272903914548 1.54985822454778 -0.17642678493459293 0.40428411773533596 0.49756245487520767
Ni 7.1852491314054285 4.749763782963688 3.637074584447229 0.2586900019108835 -1.800235268579474 -2.0990938722894428
Ni 7.391273756871934 5.170802757156474 11.573364111905434 -0.5424600867188464 0.7473320143680097 -0.7620839758662036
Ni 8.653473933477908 9.138657062085144 4.452160912131699 0.004646240522759739 0.13527396484536702 1.1827066828605632
Ni 4.112400822941221 6.1592700700500975 5.108139428123943 0.49291904256592534 -0.37446934836674867 -0.5654565476140198
Ni 9.082052675565992 0.9549967303509805 12.17214048558633 -0.45588898639582126 0.23017646785222295 -0.6979629770165786
P 0.273883471979244 9.086926396500791 7.337293321834952 0.1287878429003911 0.36508327916615835 -0.5315511531158265
P 9.03353997543571 3.462409219421669 7.73788792538857 -0.9317963248950984 -0.8124868537987877 -2.46065936811033
P 1.9190393112661688 4.582055397322411 10.875886002471624 -0.44251822151587017 0.4633611264031504 0.3717169824325921
P 0.08153613514761841 5.018716471248626 3.363467071714773 1.1578505430488317 -1.8258514264856813 0.45100414749969425
P 4.174627294454261 0.35128583115548356 7.271013523486886 -0.26190182397996187 -0.331597488703887 1.8913353671211042
P 3.4844953137154584 0.9624242436374137 12.661715575765328 1.504622425500312 -1.360406935190941 -0.07518728396611567
P 6.634827365947332 0.7124547451662778 4.641128449781475 -0.5949296173724721 -0.8086988475112653 1.6653150875290994
P 1.0503476660293352 1.506690714709525 10.137813820107743 -0.8276180530132714 -0.8060195009068893 2.630008163152219
Ni 8.980639991009037 4.745816162552007 9.468198240048796 0.16443515979035553 -0.6682284260666235 1.9103080515688649
Ni 7.760226592552302 2.9738584525485456 1.7735339518029127 0.7881292508900297 -0.7342808376110064 -0.3639957025289344
Ni 0.8145942783156206 2.0710975335218005 5.915668214266713 -1.1818823871870547 0.4367373531680349 0.42650436258611707
Ni 4.164982752642784 6.075453295432412 10.982308984404163 1.3530039578586506 -0.5492205453711315 0.562353997429296
Ni 6.355182426168196 2.389049358575425 3.380909567021931 -2.5447640091707333 1.302582567983305 1.1780565856830616
Ni 6.934135571378964 7.991583341418883 9.186075279779011 0.6807867223476082 0.7970910880690079 -1.4437716127615263
Ni 0.994267134351543 7.725390245601826 3.387002185917969 0.9385639826362353 0.3602064106898312 -0.5561872064969519
Ni 8.906617431014645 4.239847222203647 5.550958602801367 0.22017693343734981 1.1282859420178375 0.5530098372102347
Ni 1.7695068177099538 5.89426500217684 4.7601604306545475 -1.0444335261775561 -0.3717614625172823 -0.21194066157048658
Ni 5.65689327718535 5.932590596552806 1.6542961708135921 -0.3742232937942136 -0.2026993454778767 -0.044170009648994896
Ni 3.019153187224754 1.9332395192873346 6.452874805896418 0.24129520347320377 -0.6509552408084724 -1.4164994073091346
Ni 1.359029131301026 3.0690690699658214 8.997011390256626 1.1748709888662283 2.5473317698979097 -0.8396467020430314
Ni 5.284179912108074 8.523473741863851 0.7155660687419299 0.036716895805059345 0.565255230236491 -0.014963563288367778
Ni 1.5587207259175115 1.7713496642054543 12.989376489030526 2.057395206999076 1.4162340694628899 -1.0732198542816291
Ni 4.98481557937201 8.601780686096513 10.159090745762645 -1.7471268187902684 0.1822585611250216 0.19826264986276176
Ni 3.2114640413084996 1.2425369109534787 1.44895349209593 0.07391690189412431 0.02182609473615596 -0.5620675765371287
Ni 4.444010292073173 8.844652886922287 2.923428069516856 -0.590420673758525 -0.28662658042015154 -0.09641842543075008
Ni 7.4943515514603565 0.5441037018892597 2.645082476835309 -0.5161289050234853 -0.23177338002569758 -1.703081764754912
Ni 5.280943237552526 2.311967860489519 5.842569883885294 0.5846308065496254 -0.3381116356733209 -0.14424840042983544
Ni 1.0823215204538044 7.337503799226571 8.49367669139625 -0.41943048645847125 1.1367142752908488 1.2586514138179934
Ni 0.3856235805515923 7.161750499950114 6.12752727302887 -1.2222980719999401 0.9085612656265578 -0.19825776476675533
Ni 5.015199160170921 3.976778546333276 7.574071032854542 -1.2075363403097332 0.5143175628463593 -0.21802671986356645
Ni 9.374382386146642 5.783161003054715 12.984282936153368 -0.19952557573558544 0.997723523715527 -0.5555030359457336
Ni 3.731128043938143 1.8166818170846168 3.8807531475466694 -0.5505354075278133 0.13478211281061303 -0.6348236253539326
P 5.239801923404246 5.954873136412106 13.104478623138318 0.5543658370174969 1.239881332299342 -0.1677534255303111
P 2.645242439652939 3.8341122930191793 7.180445569601168 0.8656991761557091 1.1475391338204948 0.30588337176723446
P 5.54424577719136 4.001699069500855 10.993618636247108 -0.574007008287192 0.0020833648915899606 -0.45658626957316206
P 7.66254637374004 2.289825638891298 13.25832824186039 1.2546896009567683 -2.6885287850959307 -1.0673883352015165
P 1.1017976950915298 1.2519382344457526 3.4164250543560275 0.8604111882838924 -0.415055240208911 0.004104766196992931
P 5.049268433960831 4.6767608689998035 3.690950248515938 0.141036321250441 -0.9959959995014589 0.2818209315013921
P 2.8072913220973748 4.149706771286682 0.43636172830258096 -1.628359593350673 0.7936666357684912 2.4897118053915963
P 2.207786228913944 7.640039324663014 1.4998169908268157 1.1290896688660554 0.45864212366092627 1.6320583823584986
