# total energy = -381163.23963952827 ev
CRYSTAL
PRIMVEC
9.26511032237992 0.00000000000000 0.00000000000000
0.00000000000000 9.26511032237992 0.00000000000000
0.00000000000000 0.00000000000000 13.56042548850559
PRIMCOORD
 96 1
Ni 5.473715963344779 6.177401087985151 1.6335973731366544 0.18811064903042443 0.3352502549651258 1.263118962671044
Ni 4.757337637641112 1.9289033061076892 1.6679190476029848 -1.2578296892476466 -1.3632546890523811 -0.46245609809037774
Ni 0.9560018724920011 1.7476221586591902 1.9056877193162294 2.1886050290773986 -0.9445502821266571 -1.8765384113175876
Ni 4.3230170637402985 5.851519364627998 4.407192443521507 0.4706543176304539 1.431342128748922 2.518751901377688
Ni 3.7431786680145795 2.367865700251357 12.57319935514111 2.160285099086783 -3.609787443684499 1.1935811636812217
Ni 5.681532386592752 8.794173975510551 1.3152064914288986 -1.0341547699593674 -0.7900462654070846 0.37070679600052286
Ni 2.2218290322515997 8.029126025583896 5.592644771730675 0.3849447939767757 0.22489799306210304 -2.747319372871578
Ni 3.600245811953658 3.758012109549132 5.4545316260296985 0.595647212264787 0.6357646491109631 0.034749744776359504
Ni 8.09932776606316 1.9865137617365745 5.196748463121613 -0.6444711757460255 -0.3012746693506295 0.21086362645622395
Ni 5.989449061145723 7.2905207003540635 12.552302825449024 0.8874028863813879 1.3604545005994246 0.6178916254852843
Ni 8.91395332101879 2.609240352879809 7.4616102265108655 -0.6465925929644025 -0.5478347207671984 0.3183408808042969
Ni 0.6030187750981716 0.7497429142796048 5.879217411765752 0.299862105273819 -1.051039461529848 0.20075173483320263
Ni 4.512553424435073 4.131405318346125 3.1206068042127737 1.5706835787954432 -0.06629615212407292 -1.63197662127797
Ni 3.249746690621923 6.8073915255762865 2.7601161879710694 -1.74603821371178 0.20057124339128038 -0.277152065270813
Ni 7.498281532940445 1.1183821949995345 8.959807278232189 -0.37973599608232667 0.6244556518560471 1.0892468258375048
Ni 6.360285099509526 1.1029372561874804 13.47489934287992 -0.2725068531893178 0.8725323970274586 -2.601885436774074
Ni 2.747837137336627 4.118841828826541 12.29000384779769 -0.6167310295182798 3.940173428578788 0.7178782278832669
Ni 8.085967477060771 3.9490494181068647 10.219082152012252 0.02780082426235212 0.6475631844077879 -0.36573711070007336
Ni 9.029164967166295 7.482827329018126 12.205521792866705 -2.9151969826845794 0.9815307160057484 -1.0626114826381634
Ni 1.3544201441152437 3.0558649932127797 4.973584384719371 -1.3659975419048411 -0.8769351540808445 0.17132443071102108
Ni 4.858058651333876 5.05811091217963 9.772618724597898 0.8605816524234857 -0.2517498231476245 -0.08545524155102702
Ni 4.93570027535608 0.19514082589418102 8.365046495913372 1.4514412134916423 0.5734038274855544 0.4689543042202117
Ni 6.085176180405556 2.950965414790419 9.356435530552199 -0.6542771060928539 0.22538804532464407 -0.6397724847187757
Ni 1.5323102612066872 5.32887449456923 5.249972815550963 2.243403464974517 2.6457721108546948 -2.3273178444009854
P 6.6510798502924455 5.483833463754355 3.386079082129931 -1.2163621661314792 3.249067583693359 -0.12844280085614654
Ni 3.5153959321451453 9.333394127833724 2.8135712416460215 0.44186670397480027 -0.18101337586401084 -0.2557946826409595
P 5.046390547694177 5.726255073842772 13.256983949442903 -1.7966362383743057 -3.6800227829619785 -1.3106578887922717
Ni 0.7025325449233836 -0.09977782546776948 8.476608615127423 -0.6915262202522994 1.6101011613611174 -1.5246618606496902
P 9.37870051703045 1.8746653506153292 9.796661685736037 1.128788592685869 0.7159121052958315 -1.3487354123902837
P 2.888759464470005 0.8326776957963049 0.5120511429815612 0.08286896888108954 0.7351881799166242 0.6347511202447842
P 3.7174865172492373 8.503814684910095 10.426543721537069 -1.5795808812850731 0.9738045510060841 0.8129956751144063
Ni 7.0200258061621525 1.9880425049303292 1.8269685629701862 1.1962432838944173 0.6879202480685959 1.1928008338717717
Ni 3.847216591182279 6.291519451121364 11.23322629746236 0.12360449892723874 1.5994015155554262 2.415787190187988
Ni 8.575267215275158 0.6244184002776564 2.961759268249353 -0.47862550876138865 -1.3330591393056073 1.2872798761879638
Ni 9.161498537083851 5.358393135874092 3.642805095956759 -0.3145333341327486 0.8774866557089405 -0.8207799470455155
Ni 7.4104482876265445 9.050817529856019 5.096319300402202 -0.47969663033838034 -0.6985990679386807 -4.561130323252958
Ni 9.4483741462246 5.926613083327275 8.893903622404942 -2.3746284565614912 0.41753146966354543 0.8428958051079484
Ni 0.8122156997756562 3.5239198335891104 11.299156822109376 0.4005799294108714 -0.9664054303285357 0.14427385435113219
Ni 1.6150940214260647 7.074532449852202 7.504488230307089 -1.50595348560691 -2.048273704313782 -0.11382068006759753
Ni 1.5228691138464696 3.8634212690360776 2.695880251991554 1.5649333065752273 1.8744491328887267 0.36406717919681814
Ni 2.5325993607662456 1.0355891696698918 10.64470371388509 -0.6260780179508185 -0.1786839563998858 1.0774102382138928
Ni 3.3674691816512916 2.3524207614393027 3.5465526449448905 -1.4964694573758743 -1.2830630098931388 -0.06455628661483075
Ni 5.601704196547966 3.901593523328616 11.69448332643713 0.2560649055832106 -0.02879969784051169 -0.04017040157129856
Ni 1.1765763525751258 1.8549862564120885 12.785758588333827 1.884190014325574 0.4180333490006285 0.2915080768821689
Ni 7.943247718535949 8.144068983533712 9.263085838586411 0.061639370078351914 -1.0755947822717087 0.20278187788935398
Ni 3.559127252596792 3.2780701327025765 10.420916093561999 0.26123719381276944 -0.621008316737395 -1.8132895306602708
Ni 2.955051328417363 8.775588164318602 7.550241197818598 -0.04871623425878062 1.2247699305792004 0.6729057769376346
Ni 8.795526681609267 0.5918506111845245 -0.13167018802256986 -1.5259605248564558 0.4978702159236135 -0.2833633362878475
Ni 7.815398461986739 4.749490089246505 12.736195807481277 0.05737005327903668 -0.5331174691616818 -0.0793820387737536
Ni 5.795261615097829 1.6431487753090277 3.807618436419929 -0.40003665531289173 -0.8106279462131781 -1.1704888006381327
Ni 0.5193881838005567 8.328611449795554 1.3462121829313212 1.0216440390868662 0.6733153536712275 1.7785197312792533
Ni 8.401398156038802 4.24632974607541 5.4159933998816845 3.2726865086638797 1.320009505210501 3.6617062440409778
Ni 1.7968662197186185 7.753692827620645 9.781717989389328 0.8743421965426879 -0.23666901755510206 1.4132240789919726
Ni 2.25025439054517 5.464274815984561 9.762936684370782 1.1932014117443 0.26237876361638035 0.891383982516323
Ni 3.43764312679976 7.332398998752674 0.5153800970998401 0.045133916224160985 -1.0501740282057592 -0.19534753309849584
Ni 1.6549247304560708 6.530457379750076 12.471048734934428 2.4870280879118454 -2.4079167863009756 0.6819192932901547
P 5.511304515690611 8.59129585603392 3.968065130415119 -0.03958778959495118 0.3207088668158412 -0.5431411719462711
Ni 1.6729268397013142 8.761004880761208 12.840923054852706 0.660053860675631 0.8089816688590068 -0.4949653835719927
P 6.737680835941077 3.3835441479613784 6.937229074788403 1.26549414777144 -1.67984413438321 0.9764121638322603
Ni 0.8021954830238648 4.650770339371019 7.053143016294009 -0.7705907277856342 -0.23524462640374968 1.318298436056665
P 0.2434583759270913 5.511341576131672 11.181668738369716 -1.0533632245670181 1.2068747954663346 -0.8866482676035505
P 7.736292950542637 8.119525706441252 0.3748469045975997 -1.7749451265541176 -0.4371587569761697 0.6270573511449523
P 8.213825998720246 2.806883685056615 0.26528141664569477 0.08665337562418624 0.1565776114191497 -0.6771154441436081
Ni 3.188837855738634 3.537428364355742 1.1113258870215739 0.07507415542701909 0.25786724889927204 -0.36588006403584084
Ni 4.833126239610278 8.821431929910709 6.124064627721593 -0.25435640753253613 -1.661836642062196 -1.2699676101617614
Ni 0.9229180167570986 3.994504049067835 0.2697518323486438 -2.0594022101267755 -0.5484906091836425 -0.25198405064561763
Ni 6.792678530475181 3.798565497179822 4.347919827111048 -4.235408576603557 -3.3462020613545276 -1.3876364603308553
Ni 5.566617223973733 7.86969200814069 10.05546215775124 3.4264032535954665 -0.17467072147543466 1.0760074443290955
Ni 8.981792458380433 6.33079425353546 0.614067419089398 1.249734570944338 -0.6605786228308494 0.3095947591805507
Ni 7.870655579608268 1.9134398370751051 11.231259314553062 -1.1799923692531937 0.017613599316705152 2.1368379238074358
Ni 2.8946798699294547 1.4191276742072563 5.7345816284380895 0.9246905670882527 -0.9874581372337767 0.7995272083143263
Ni 8.860632611442682 2.9675406970548255 3.1529883645895755 -1.8713311560850352 0.2093135083602847 0.9616859133656792
Ni 6.527714907111582 6.743360348533631 5.205901465552584 1.0975867131617678 1.5403157651368633 -0.9966025227372062
Ni 7.213638815373605 7.726240305904918 2.6920973074702816 0.9823544974586242 -0.825015839503734 0.8996945592645472
Ni 5.080115549059429 1.1249511581775467 10.596645586939603 0.15518561616762952 0.27135191364926814 0.5920764641943932
Ni 7.535703313301505 9.294758618027927 7.0635440290777 0.9779486550814448 0.45321940998345817 2.613513250820989
Ni 4.122946272674016 6.990627611290739 8.741050612783093 -2.500588343094784 -0.9828448068314816 -2.444901076834809
Ni 1.376498901877166 3.6519914527846846 9.019431968832723 -0.637789907071108 -2.7335079209097826 -0.020469323597945392
Ni 5.7348623612791245 5.008348004945351 6.291833538359355 -0.861172234819633 0.8933097387841261 0.06275317196782096
Ni 7.265050912235085 6.3466839176402425 10.796431012609718 0.6434548186663692 -0.6233909580369587 0.40852180996576737
Ni 4.317865662432859 4.094965639673175 7.776781482401472 -1.3263007375358513 -0.7502741277154691 0.6765981381875573
Ni 7.807513853151071 4.931984966139742 1.8043913422759972 -0.5325844794763472 -2.29334020190396 -1.1941138962562403
Ni 3.0130045931260603 1.5869836768815104 8.469258603154056 0.11824400594627378 1.1038596906546732 -0.20675037561879875
Ni 5.727227910420616 1.5715480031797218 5.9927585585324445 0.4465193722554633 1.7167952576862626 1.862805120891895
Ni 6.878890381492675 5.215061880071767 8.822385309756996 0.07360322730844744 0.47802104240817034 -2.515144643642404
Ni 7.063405052423722 8.955859414748195 11.51724917915246 0.9682589385975068 0.6831361964163912 -0.4196444022414902
Ni 6.253940163885797 7.434018728141162 7.690171231642575 -3.0100316085679775 -0.38983297530701244 0.436125687725965
Ni 0.22982198663880035 -0.03607741286158188 10.778693885518058 -0.029934582775903284 0.8751217550211897 0.7873090689815796
P 8.084447998977282 7.073744915479662 7.088102130346584 2.9609096542303455 -0.6816390430455744 -0.5075537617599646
Ni 4.2551686612683906 9.003565467503604 12.750569699546677 0.3924945812995757 1.0601493942509161 -1.3947255059671528
P 2.0121966473916517 5.536570471383755 1.0995990369589363 0.9884115022859815 1.6298937706070122 0.5815033166642372
Ni 5.717406893539526 3.6724766115809957 0.5277934918331274 0.27544099611697725 1.121287142102501 -0.13849632843740664
P 3.3024744331410587 5.9923768359895195 6.703365647051933 0.9109678181855214 -0.2528127171945001 -0.991465201510641
P 1.640739846640081 8.496921442872802 3.394472345519157 -0.0011680521661721819 -0.12335561614122627 -0.343874249188711
P 2.297645429551562 3.070865206732105 7.108199081022784 0.27024093997327653 -0.28930335592136625 -0.5144049803538432
Ni 9.28456699673623 7.638156902613858 4.350808688491731 -0.4256877802220927 -0.028138924328061213 0.6856353086891611
