# total energy = -340867.19319768134 ev
CRYSTAL
PRIMVEC
9.33593720352650 0.00000000000000 0.00000000000000

0.00000000000000 9.33593720352650 0.00000000000000

0.00000000000000 0.00000000000000 13.66408778835645

PRIMCOORD
 96 1
Ni 3.260716011953202 5.848404330602734 10.421271340607282 0.9760977179156349 -1.5481841121413467 -0.3007753611167078
Ni 3.9565047194928873 3.5184438868504295 0.331221304006061 0.2326508975346445 -0.03518091877650715 0.1949281861728901
Ni 7.566954264791197 4.789242285862806 3.022700967884255 -0.4667647527680606 -0.019207169056070148 -0.7138657642897642
Ni 0.14991740882008134 8.387078980368312 11.094364385469465 0.13057450248716868 -0.877223888965857 -0.4864689160652074
Ni 4.108269710231471 4.500126991005988 6.4167369599828925 0.8937730515737897 0.663275195826406 0.3760266655515395
Ni 2.4892875434044126 2.9921584502168534 7.50498604982279 0.2669280735499596 0.5415799981067383 -0.7202894084279208
Ni 5.757733711135884 8.628216895340437 3.652287613057653 0.3478494317863751 -0.9563004806840497 0.48371989256516046
Ni 8.628777051556254 0.7197055107676692 4.637290576385618 -0.9270017317199324 -0.801324152313749 -1.1825537022224666
Ni 8.390542612969444 1.3814012438253689 0.18337927396558026 0.44937895319144544 0.6222571015428315 -0.8697813166448828
Ni 7.5979682472735774 7.684764452914363 8.30505997365475 -1.871622462073209 0.21466011738417873 -0.49766889854608487
Ni 7.4581159120580285 7.184694327181004 4.745087038557368 -0.47796962034494456 0.48035149031355984 -0.2254914036717278
Ni 7.217108700202926 3.629289466023608 10.931884539916002 -0.39322734570054213 -0.39668342256994266 1.4825708450169113
Ni 9.255890607036822 3.3578004200911526 1.7017387125581132 -0.45389123923950214 -0.30260881478102075 -1.0679676047437543
Ni 5.659006178098205 6.275999577946352 2.9682631196438094 0.014011226677427482 -0.40237610207934577 -0.10312617646822884
Ni 5.7983823805303105 9.237694865959712 8.75653468047863 -0.37775290421402685 0.14101343843230554 -0.8084795324116077
Ni 4.12947162300013 7.000337580618825 7.379181498906228 1.6843201678766928 0.3896326863707483 -0.049202944087212035
Ni 7.89430955731443 4.966317001619371 5.332259588662825 1.3872196845084108 -0.03984412858013138 0.5789214148696739
Ni 8.78270797966266 3.400568347168752 9.321517575688205 1.3025974803816407 -0.061675365522609917 -0.8211584134308567
Ni 6.377406524883021 4.982860281859822 7.624041651932455 -0.7163525352673599 1.6285328857037438 1.637297262159935
Ni 7.970490802665491 8.692205407060555 2.3491980753908335 -0.35220230943843217 -0.5955081155837615 0.5889782848850437
Ni 4.124719631102619 8.506214871535576 1.2293160304500774 1.543290274384155 -1.7531848520588904 0.836910791169107
Ni 5.424739512706763 5.03539359896649 10.166053899150606 1.038049219917767 0.4346498745113869 -0.5201629658835428
Ni 2.394210361706471 3.22323222517814 9.804228460293405 0.1502205588528703 0.07688061250813856 1.721952633517486
Ni 3.741628795105632 1.0706359112272381 13.587185581001988 1.7417102757603875 0.6258358200330254 -3.679199258619418
P 6.428362068648473 1.8574219960263334 9.33376072337857 2.012313484169089 0.5309400018943888 1.571406830114713
P 1.7826318052778845 6.455865738845069 11.89988956287501 -0.6179736436761293 -0.09091060823864343 -1.119419749876459
P 5.396376936312582 3.6617411827932513 2.3329105998222723 -0.016368928276326647 0.015170279982535161 0.37929890854490805
P 2.3294563031580697 8.04053833745336 7.96665466618084 -1.0955727680555325 -0.021828665839317245 0.8010647280047752
P 0.5403686974928988 0.019190018360184406 12.772641888521791 0.045578974181379565 1.9557867527269543 0.1077436206355822
P 3.1472563704395458 6.5482635066440205 1.4457837320839455 0.7315104739547209 0.6536602984444614 0.32974063800080633
P 6.997359416738066 1.3905504620170404 5.782491682281285 -0.40001043006064657 1.1099282654462561 0.921536080619671
P 4.02632819179443 8.96195796872398 5.314865804568027 0.41987065931968337 -0.3616272022967579 -0.5696585015105092
Ni 6.651322914417349 4.458470040423092 0.6603924362622332 -0.6368918207368708 -1.6129684556065835 0.7277710615169466
Ni 0.7235351120964688 1.7348411441317961 6.6673368470338525 -2.858201282025826 0.8016936198380258 1.1473861531823983
Ni 1.883450588187946 4.473622266060932 5.127203202738834 -0.1484027889178412 -0.3995527736979376 0.914395870030464
Ni 4.404704379641627 1.7866462581579035 6.0557732281043535 0.752173401620711 -0.35962251316190325 -2.0587560919023447
Ni 2.142681548930948 0.7233334558587748 11.485853830328928 0.5767835425910648 -0.9898284372381663 -0.22048392315480736
Ni 4.907752669255744 2.4599820373802728 8.109144403579194 -0.3707206799575938 0.9579894383506986 0.48849931623167475
Ni 2.546778243021058 7.879988230063386 13.273881807152513 -0.945253735951585 1.0165072320809334 -0.2761020267397439
Ni 1.1452113754262907 1.2839807419579283 2.686810761819362 -2.879973897816227 -1.8061832586327926 1.2000428601461657
Ni 2.424673523909965 2.984316263195421 2.655301041085984 2.0278041236055206 1.2574669065915893 0.851134905188289
Ni 0.6229301221421106 8.774529698911739 1.0093156102817926 -0.17715800667366263 -0.09805133304848275 0.9657852802460335
Ni 6.658306195241196 2.0882810444382236 3.6094365961413746 -0.28357828051213096 0.3885224840257051 -0.20073682243486718
Ni 1.488568463848019 2.0536073746791748 0.3556394470472005 0.6375785623912504 0.10429525707566553 -1.048202249191369
Ni 9.481017390173522 2.8562832241336022 4.801409812464036 -0.5230361736662799 1.5102359150323474 -1.6215579970478073
Ni 2.2433416209131947 5.598929423951872 7.289271758299196 -0.4495131647764646 -0.3890117649572978 2.1542525197394577
Ni 7.407487126085135 5.884254328414998 12.781838719991807 -0.2291264293211538 -0.27639384694854985 -2.8072430458104036
Ni 3.965037765847161 6.744159471252023 4.651979739551716 1.2050361995956989 0.821618898007043 1.6384264906683716
Ni 7.405591930888289 7.328281037168666 10.773559186296515 0.14634539216818024 -0.32357693239225566 -0.48707081131526436
Ni 0.3984484522472928 6.732666932890853 2.2318509497394095 -1.560021728206223 -0.460543197338381 1.1351698136218644
Ni 1.4587308094188536 4.3990561377988096 12.55538343302993 0.022321032094703496 -0.996779928855335 -0.08304817477143117
Ni 6.416300038134555 1.6131098624979143 12.710580314184082 -1.0742840338800852 0.05054017484139683 -0.2700398797060639
Ni 4.836258064243681 -0.14328702641219862 10.94017858628486 -0.42266467712505273 1.9982870879830101 -0.19261136511425536
Ni 7.908640220502406 0.9599770507926645 10.879633168104629 -1.106498413829101 -0.32020004550022274 0.04638218680896528
Ni 7.655524298448736 8.379255465220739 13.289199278874019 0.6326803537586846 0.05091169924820264 -0.35713317108114623
Ni 1.8772421901293117 4.839740368718676 1.3681031352618824 -0.8187968551772157 -0.526071618058494 -2.293503981175334
P 5.549766380077033 7.220693699984152 9.437744388907996 -0.43790643377547167 -0.15674781844842683 0.36368279927420594
P 0.37693938715362757 4.712790298340769 3.2625057110627362 1.0309642880465277 0.16748757346343413 1.2755751861565257
P 3.928730307125314 4.400167114293512 8.660257830885147 -0.1216365765675905 0.38956198103381295 -0.2540131652605045
P 8.579894085789324 3.8923574968449546 12.847713090971842 0.12276554796571114 -0.16998102930924922 0.4145559319749893
P 8.044310055973192 5.603466689299986 9.418382589308294 0.014919854534625916 0.0013410874089267227 0.2402752468491217
P 9.459638094603187 7.966345646668448 4.525723329287729 -0.42417982821799854 -0.6691545374253185 -1.2891035596602638
P 7.663926641685984 6.683699943691549 1.0809577230973522 0.974765886478089 -0.12786481686548948 1.7767227872798306
P 0.5801379216284929 4.254601185676632 7.347261930541612 -0.5043360261536153 -2.4909222807599294 -0.20452868537713165
Ni 1.586810528165324 0.13507420269463394 4.9180875514375595 1.3678783038673215 0.2269808437330607 -0.996835978904251
Ni 2.669891243320621 7.964861232696534 10.349821548092486 -0.5485263475175843 1.3609620363634627 -0.6044002758670688
Ni 0.267524073518167 6.2623411022173565 13.527050010452992 0.5861503285179454 0.7239678857207725 -0.10497171431739985
Ni 5.215409134856092 7.214970770645893 11.743436064610044 -0.13721746172498306 -2.899462345558142 0.12963604983329932
Ni 5.826586245996676 0.7329644083960485 1.520417079091966 1.684472377183841 0.570227743750418 -0.7532766619872189
Ni 8.28929437696059 0.805336591479556 8.461239928967661 0.37950074014306895 0.16403946701383362 -0.17523353595744015
Ni 2.0866285836015646 8.270267737496686 2.777744654707646 1.166014566916863 -0.304106739482786 0.678448818243051
Ni 0.3907014917825489 2.2928781022652447 11.42633349802364 -0.20686916058485016 1.378832231775664 0.8751888608136992
Ni 0.03421807603685132 8.724134311362103 6.701387809799653 -0.40215318743526224 -0.8004903435585441 0.5827888682448802
Ni 3.724936139874296 5.842335971598054 13.097259884337067 -0.9788734808885593 -1.066973359151285 -0.4975485709181367
Ni 3.5314861907420263 0.9353861929183148 9.396369383620392 -1.3404909129933043 0.003321351063749119 -1.1659487466759337
Ni 5.609656415484761 6.68236490471052 0.532858869826184 -0.5868108449200797 1.0794786907071474 0.4097852500592233
Ni 4.41727988668671 1.0103257586576484 3.365286907915542 -2.2969963105993085 1.0931559310839238 0.539829848184851
Ni 6.114478533115629 8.887195785786322 6.365182982660208 -0.3259104656214387 -0.2909432055176344 -0.2796051547969959
Ni 6.2674105159704965 3.4673856477787446 5.66916181029096 -2.6398074086308276 -0.49806870508766476 -2.0477067760667182
Ni 1.009429508712342 5.303904481018187 10.060006991559591 -1.1591553779031842 0.22692736478730596 -0.14005647383567493
Ni 7.531571063825448 3.1485914094205754 7.304834765161967 3.091042184084089 -2.723795835828341 1.619377187346405
Ni 4.83046044740998 2.451402311341348 10.944784003972567 -0.25108904963517403 0.5858680213908362 -0.1512744540386814
Ni 2.500471995846884 5.68816230913146 3.338355530652772 -0.08607153497878725 0.7733873166941647 -0.19351613631671188
Ni 2.5914787090432245 0.6628412525190449 6.905160504395729 1.76214591790692 -2.398553599918521 1.4053446762438957
Ni 4.283813332331469 3.5556662673914436 4.283991648726838 -0.3163444191995584 -0.10566334106778577 -1.4999885262727262
Ni 8.913915237280774 6.045243224840695 7.299751347503432 -0.3021997522680602 0.42225690016367273 -0.5084479914394598
Ni 1.650640328957628 7.078003239941799 5.757212765855175 0.4649600954591541 0.7097257739794616 -0.731466765200979
Ni 0.33919512773821064 7.579380396845395 9.034817487715248 2.0164164505938693 -0.25158398699372153 -0.7133186335370425
P 0.9185609673825696 1.6001982617233412 9.344760324269823 -0.07422749115600764 -0.4422104604674642 -0.257147340014112
P 2.7748458462907952 2.6591735877246627 12.032527086030845 0.27967688857519574 0.7265297329106777 0.7705845571380471
P 8.270146370316592 1.5407096716036162 2.2722148730574623 -0.5065345764668309 -0.7313451520214501 1.0943908319322895
P 5.8273984725096115 5.812414293736517 5.758893234502624 -0.24281241144867857 0.7961333521414289 -1.3569765693531533
P 5.142710193980025 4.3633835227882205 12.250291549304327 1.0781967386709304 -0.05679489750185703 0.4569171705500195
P 2.901917283848796 0.7775033627093211 1.6779227374489765 -1.0043687969461863 0.910583181152593 2.365370685408649
P 2.3062845076971223 2.2644315024386903 5.076344752717457 0.7432776417929781 0.7657341710242812 -0.4268350064526584
P 5.609805790475644 8.934893087563106 12.929792781275452 -0.5864663170964673 0.8883876188921602 1.7241411565283724
