# total energy = -340860.07315446367 ev
CRYSTAL
PRIMVEC
9.37483667114445 0.00000000000000 0.00000000000000
0.00000000000000 9.37483667114445 0.00000000000000
0.00000000000000 0.00000000000000 13.72102109123529
PRIMCOORD
 96 1
Ni 7.712884438052691 1.792112542203841 4.840570393946671 0.1719432952419426 2.7747759264206344 -2.2075003233200046
Ni 6.224404108406252 8.895201349220075 10.91652677491737 2.0211652781327643 0.8454491676574214 1.2984222659580285
Ni 9.399492567507334 6.548904707562171 11.52335245767242 1.3987364268987588 1.1635907879667187 -2.3068732033933883
Ni 0.9598707848378176 5.91616885100614 13.705694454431788 0.9210408861508074 -0.4061911049500617 -2.4427086971691803
Ni 1.1222898314772205 1.1488393691443368 12.68261477031192 -0.19845908214428404 0.5804764180616196 0.03408074373379292
Ni 4.495777960652167 4.4253729366832255 4.789061290924707 -0.20636265326207687 0.4671424478224535 -1.060918925427089
Ni 4.5269492928354875 4.243332356732638 1.8985506886930257 0.9888359914179099 -0.5880429175549678 -0.5224039393989197
Ni 5.590543271440597 8.065650170000403 2.959199093592272 -0.38673119645323717 1.0837526354921527 -1.1789315320888472
Ni 3.0181911913055828 5.708647464777578 2.9077865513888 -0.15644519960634348 0.9854938144185544 0.1498482631151161
Ni 8.662724147571366 1.6603585865634272 6.838639662126022 0.45760031265997314 -0.012305556840230419 2.3662080937082797
Ni 3.029900362402415 7.5386062229285065 6.014307454523327 -0.9654965453610213 0.5020228046394064 0.024992408279279538
Ni 2.6874657005497466 2.0260334687115686 1.1128090590751178 -0.6877299864346608 -0.6245780363665243 1.6078020809142954
Ni 5.268217634409952 1.6487525386708108 11.076377116288134 -1.79648454328779 -0.8573888565178008 0.29529916849348503
Ni 4.897864708725125 0.9270626061584956 1.5058547145894008 2.48554147606399 2.305974859948835 0.6645412070230233
Ni 8.14963933241555 5.381559410679526 12.837716756870396 -2.1812087366133275 -1.3417810925596374 1.2657376312408135
Ni 4.369564533529149 2.1995898214062453 5.393719511423883 0.4480977724861766 0.4176150305162872 0.13180914622521814
Ni 9.211592714589958 5.7538716772444465 1.705632485665053 -0.31260526387210036 -0.7145579052607823 3.358925679568783
Ni 6.001179870626695 0.40090083122447956 4.936123417489074 -1.5491495613784094 -1.5651166262306273 0.09453946324048235
Ni 6.876264631925883 3.114527013716348 0.5411052647085157 -3.070965210828556 2.691672987151868 1.1924205677142174
Ni 7.568511952151 1.468043185538278 9.180365133386157 0.13252699822784916 0.6373651608288636 -0.04374680606864724
Ni 1.2194131401747221 3.9242410383796593 3.340025586890694 -1.5589174393984506 1.1601915324771825 -0.6124650551530743
Ni 6.332214730995178 8.966403234312502 8.42480297822375 -0.34696651496078956 0.7140799371830993 -0.06254748371491807
Ni 6.669352610085867 3.7876496669778645 3.6960996987263726 -0.35546221113662657 -0.15146754388609399 -1.1822896499278024
Ni 8.932850693595478 6.821159341527822 8.845599087992424 -0.12006588964636097 0.36907723081689986 -0.37726053795864056
P 7.46334503352469 7.372718486692765 -0.029797918599904317 -0.18432187141195353 -0.7917375370665783 1.0876545416497205
P 4.72308025241661 6.61662852822151 7.153069811648461 0.47507507240596897 -0.15596286065328624 0.6455368980063786
P 3.3841379437193835 7.5983989316999985 13.161862049713609 0.16138403166885754 0.6362310472244204 1.0618661198317068
P 0.9207064668441224 0.2733289902568414 0.911314755391115 0.7843736405023395 1.1413227205971375 0.7744458398656662
P 0.4625881945025134 7.558780871607756 3.7470463115435253 0.19160374978534744 -0.08926767331858175 0.8247242764052443
P 2.2735760330124886 4.34903364105352 1.421676180471968 0.8908355662120205 0.06540295088584219 0.2575234924066081
P 2.0287240468579184 3.100867876576168 8.600940223474838 0.4454186829921168 0.07872949279141925 0.2489241807733713
P 5.877010157914493 5.8570323808069285 3.1421002835562217 -0.9108693449344443 -0.2516950586502891 0.9179419355105094
Ni 5.087058289113569 6.7078456897684875 0.5729337729477906 -1.327903820356913 -0.03836677270365651 2.4798871059916907
Ni 3.2237719863275434 6.415332033592865 11.192429157861225 -2.4435149951205593 4.223630867242339 -1.1469511225275086
Ni 1.7109733301597412 7.68243496829888 1.4427376887074703 -0.49395751113276865 -2.7650828675025863 -0.038834199258378284
Ni 2.1454126398461235 1.7581381338332094 6.528571624141899 0.49713796574327923 0.2574229622730018 1.2906390224681836
Ni 4.115431458995185 0.2934764519095248 6.667607015483601 -0.2958540125556905 -1.4815485743999839 -0.25035217146914945
Ni 6.878195848295737 7.689831714492154 6.563573514619987 -0.5400694749994828 0.08732083400485607 2.1772973173740633
Ni 8.45554025546569 9.148378190405861 5.312958105300681 1.9306853296736364 -0.24022896699221852 1.045707250683657
Ni 7.455788915106718 7.410161584659735 4.520870648688821 -0.773259532867049 -1.3093378844292676 -4.929483017199007
Ni 2.648044512029188 1.2923306203918232 10.712907195742854 -0.7041624209590711 1.1985752744617033 -1.1723646775046068
Ni 0.5616886562699284 4.119818882592717 6.502817072630918 0.46738233174740157 0.08140806806484689 -2.5281613676170456
Ni 4.812413071777469 6.938072930597951 4.860918477105738 0.5397187765282834 -0.424562665478714 -0.5897634997905004
Ni 9.185661916148135 6.707770691074513 5.8032920666392105 1.0235397134476825 -0.6111378517012185 0.5245184146387611
Ni 3.0597029684206927 8.031797634507479 8.320592292945621 0.9078637253389009 0.13894421460810266 1.5769419010003292
Ni 2.375555507144865 5.523316317128843 5.165374737813189 -1.6691735420432414 0.9266451197114621 -1.358157219924816
Ni 1.0905747587625827 8.241428359004086 7.00168588534379 -0.42466345272263634 -0.07419303837364642 -0.7469633181746813
Ni 3.377050567138755 0.33036643450843106 12.608315439158332 1.073835633488757 -0.8157063891773499 1.0770112030032613
Ni 0.8601168969491463 3.40751878656606 0.1736997876969033 0.2530171198958223 -0.11186098523806541 0.7059699064814552
Ni 5.162169481129436 7.310319573305643 9.855164944941688 -1.1728920107629863 -1.8748846777642487 -1.394318243226405
Ni 8.93439754165871 8.175860750796524 1.8539977145372337 -2.432173344855495 0.4683377536821353 0.9315888368699827
Ni 1.756169418116368 6.036344883264179 7.7099923009162845 -0.14223368399265182 -0.253226407693151 0.24923708402809983
Ni 6.553217132465728 5.544053456012904 5.617893420165896 -0.3058941704005119 -0.7670150946192339 -0.09234374114074419
Ni 0.3276177323742508 1.0678407796514398 2.9740450850646045 0.28778846193873664 0.05258111653082557 0.1575983393741802
Ni 5.582087168694928 3.829030196378518 6.999394675242857 -0.14640195643772852 -1.5401131622077542 -0.018833844877051434
Ni 8.606372003885971 4.776179327750842 4.676590436988915 0.059305065518220436 -0.6431506571623892 -1.0317713573288554
P 0.3597246732649075 4.120606368879454 11.93417374114243 0.42681032386231005 2.1355030070460965 -0.27495685739170705
P 7.84536963095936 4.712027319892059 7.059918621280605 0.7995452060364553 -0.11646814499277361 0.056818294540624724
P 8.219434991995945 0.8802193593854447 11.162859985277946 0.6957852526389695 -0.31109705475769 1.182050794444119
P 1.5752256940651637 6.993806335058052 9.825225466306907 0.06696258206347822 -0.5586698637094895 -0.6901087710794824
P 6.001142371279707 1.4543746735613516 6.976604447111233 0.0940650947072251 0.27608042947318906 -0.3389418448841001
P 8.632630921613936 8.945637970918199 7.829722090945172 -1.3590864166073044 0.346009807474475 -0.10396075655438224
P 7.260576689526788 6.611706738929406 10.344222990998968 -1.0305526544304058 1.378798293213935 0.5687442172263559
P 0.6126033946421418 1.9052480720649847 5.133417794310481 -1.2131739982114846 1.0303148273879867 -1.2362195671770386
Ni 6.624803385864774 3.3212421639846785 11.649942753232661 -0.7242591917089461 2.1087190540840326 0.08913114774071747
Ni 0.4526386802630675 2.444310559846359 10.775502043217983 -0.35932580785709084 -1.004066435214419 -2.157802698984561
Ni 1.291580633452074 0.44678128226362746 8.52362219488876 0.03958239027831248 2.1560039552129258 0.7318544875577009
Ni 8.27049035291936 4.821862907218307 10.220473270973025 0.9765839135234342 -1.910396497517613 1.172201155343549
Ni 2.386645939016404 4.313943627110011 10.904493234469097 -1.344432928360188 -1.3997234734023765 -0.568610519861969
Ni 2.4385356604102912 2.1654654156476636 3.7995294601034892 0.49855104404072204 -1.0977780032369675 0.502095823969187
Ni 3.4117843372858823 2.873003094606914 12.88259785031233 0.8441417616999075 0.5362683560858378 -1.1847820773323532
Ni 6.978244106058259 5.443677078964241 1.331792120710394 -0.45407995821154057 -0.04866172687176135 -0.1270772879671876
Ni 4.67882164813467 4.964341676097131 11.187421120071052 2.564064252161242 -3.417069892009683 -1.367115457559368
Ni 8.332814267612507 2.6951905660291624 12.820702365658514 2.651582546888885 -2.599506395018936 -1.5616021853194653
Ni 8.35718884315435 -0.06718851748109304 13.4962296645456 -0.8450611881903832 0.7533401682353026 -1.7206609112892561
Ni 5.952074475746626 6.671771317966558 12.279270856631207 0.9689132843520539 0.2635758692482751 -2.350242828628275
Ni 0.7483163438407558 8.844117863786419 10.56340292420593 -0.4788093426374205 0.746306915537605 0.8159892105250914
Ni 6.484733950029893 5.1556352199168725 8.736531299795745 -0.5469122089529291 0.8445963327388228 0.004758340620591804
Ni 5.765796469586457 8.91031358605602 13.527116001691816 0.26765209620017777 -0.9451999998955141 -0.6383187829913846
Ni 1.5835974232801122 9.377555449519674 4.803194794804278 0.7042909761171354 -1.7810995761912871 0.16057130595957506
Ni 9.235451674110726 3.5744658793541975 8.439923652412768 -0.5059568495864899 -1.0984014957535793 2.308203749279354
Ni 3.0940804947714393 5.451036325810529 13.216115167451381 1.026924313649199 -1.6658560476342341 1.0319803880158678
Ni 3.924616031849534 4.8319971057416655 8.672083047095759 -0.010483158919510977 0.3445815596683807 0.1519964198063705
Ni 4.386917356347593 1.5486667815613007 8.6709852537127 0.03367810897873555 1.014031259736615 -0.14127877627855023
Ni 0.9928327108397882 8.149545584048079 12.920838746886458 1.3820394258590523 -0.07887964521603834 -0.16366151484912458
Ni 7.910768492105477 1.4613120527540302 1.5647455640658454 -0.032805990786427375 -0.4901805605888397 0.14598800882876148
Ni 2.8678563092328866 4.057785587838724 6.583579416237793 1.5993179547026843 -1.7409728833737308 1.6293795499747552
Ni 3.3655007682666196 8.891835782827952 1.7702447980081084 0.6603713919160498 -0.1448546665552667 0.9200073026799704
P 5.726628401658063 1.6064626501057115 13.332373455432904 -0.6960562469121689 0.12305119752693001 -1.4653763355154956
P 4.491390537054635 2.2089365336428677 3.221037346448483 0.7786830178754655 1.361162839520359 -0.4714526451620332
P 5.732393926257383 3.249599661565151 9.682128895686462 -0.6307741378749072 1.0845296228674937 -0.9735623530882911
P 3.7178071332137343 8.906404279132577 4.225402043970588 0.6438466547881492 -0.6169629430234278 0.03538352170561648
P 4.109694058906105 9.284913312787173 10.064108493904747 0.6797022310341778 -0.8665034172245594 -0.2726814310939691
P 5.260174024481143 4.615410252378887 13.189194386249088 0.8008929783136013 -0.25074837846630366 1.3101639798749887
P 8.538010694327847 3.566853511915745 2.066865570162531 -0.26040287083693214 0.6867671083007592 0.8997590939538956
P 7.306072772259315 0.14809617105754555 3.1204894098873526 0.13412750994574965 -0.6012681579959903 0.8676413874837444
