# total energy = -381163.32261207176 ev
CRYSTAL
PRIMVEC
9.29500750499126 0.00000000000000 0.00000000000000
0.00000000000000 9.29500750499126 0.00000000000000
0.00000000000000 0.00000000000000 13.60418303731084
PRIMCOORD
 96 1
Ni 8.239466642516266 7.452430453917174 1.6944417976597188 0.8424435480618782 0.711978060348748 -0.5822995873132875
Ni 3.298603044345393 7.873429238538231 10.598638128704884 1.875721571843247 -1.5942348837528222 0.33435885349910804
Ni 1.1396794864539106 8.319273578792432 9.449791905638401 0.1372298030201572 -2.031178439394392 0.20135183031104675
Ni 6.544986735324899 9.000012059115933 1.7861472733171007 0.21282229284449156 -0.8821053854278744 -0.6537811402930417
Ni 1.4206954548253676 5.882949810532222 10.556465749182571 0.07379503160427936 -0.26047820415955786 0.24832254263363043
Ni 7.464625504044629 1.5043319342818013 9.953160260163777 -1.4099292102907848 -0.37666892712122874 1.6262674867083347
Ni 4.385022136568878 0.6491512555916935 1.287740593912177 -1.1967752451384872 -0.4013764571702378 0.2079513379054354
Ni 8.512005563847907 9.065634813612757 13.401902775693427 -0.6833218300646361 -1.0718072902048188 -1.5286979783922767
Ni 2.314884492410209 0.44849806495800465 10.637777547208458 -1.0809599032383643 2.615139730680819 3.052815279392407
Ni 8.217995174685152 2.2813388095519884 12.308738296368194 0.013568482713054051 -0.6605302860914173 -1.0850325306458408
Ni 8.314895630156737 6.687051633303576 10.12684491540128 -0.07553155467941186 0.23864516744486644 0.6157527247654104
Ni 5.6836276650039075 6.031930194253908 1.9426910048198152 2.0636010786994716 0.4306785485684647 -1.198116075437098
Ni 4.739728926137335 0.2569065773496634 9.20529788159682 1.1012680186680968 1.3710793273031225 1.010336070273215
Ni 8.768724382041645 4.233318315585498 10.10913234869177 -1.105145499345632 -0.8120924465738466 1.457824748420483
Ni 3.498808215607021 4.381322723496678 11.779875594670877 -1.2394059353248204 -3.0918237994451205 -1.5595625291816173
Ni 3.7778164623111534 2.8371430911231075 5.02821529221263 1.7979503292000392 -1.2404359192512315 -0.4660073057767458
Ni 3.4241693036226732 0.4318488471315583 3.8991627880839634 0.6604390119291916 1.7920607031884814 -0.11408884612731963
Ni 1.167462264526291 3.2842701424425456 7.445977859558577 -0.07855671465898084 -0.38392072358763557 0.5066394774758113
Ni 6.427869638064279 1.3254402157200624 0.1374025221067782 0.4655326801331724 0.26298374419023096 -0.8306905212910081
Ni 5.734926812605604 1.3190080703784473 3.15750389766873 -0.3455110134611856 0.9491607843154751 0.5997113550318317
Ni 6.7199838456523375 8.397388823663723 10.642906532467856 1.4170629931220884 1.0572944413006242 1.442227408202858
Ni 2.7042802507863364 7.663659504333651 4.052264578228296 2.304586978462373 -1.9403735034956777 1.2529520494403712
Ni 3.5606107219312966 5.809054499165401 9.609205935524772 0.9689330818463957 -0.26011387884160364 -0.15598728613331847
Ni 9.120605489263497 2.1003464192457337 5.859430652500591 -1.2655725664178592 -0.26738290169919116 -0.8333791238667647
P 8.057247311191091 6.07986454906129 5.499232372371692 3.8555298842957795 -0.5263606100538226 0.6101166095255557
Ni 3.274705579499595 7.668994838764412 1.8776082902714706 -0.07740203222924734 0.32776448811104203 -1.6905903171561207
P 2.667044449863634 1.2456611644670534 5.911126696931893 0.39660834635763303 0.10376663826570516 -0.0672222634827681
Ni 6.657763063980703 5.052543115915823 8.632453062374282 -0.06771308707625757 0.36404943858500527 0.9359013482024076
P 5.301305407502014 7.5661455783526055 9.503773592467828 -1.5847081752093095 -2.17428835534441 -1.570118964541225
P 8.197629812772611 5.421034401931701 1.9466906466413427 -0.32171391104158786 -2.2437742180503744 0.038349289202159756
P 2.2351798012189534 5.0478863170485555 8.129261312995567 0.8670569757351841 1.1177691016469136 -1.1161369653601294
Ni 5.809946819906434 4.418800194620077 6.218540487225585 -0.5939880793948092 0.8304285258788731 1.0383222710734956
Ni 5.913260830704196 2.7065761176929533 11.899497696511796 -0.3265676395894634 0.8112226423743837 -0.23849192969645377
Ni 2.9934851209583178 8.899728220834596 12.897486873798108 2.259330934838051 0.10617087683182361 1.3479576536839946
Ni 1.004688089349466 3.5324189635192758 12.11928651953679 0.07509421003167711 0.06405260750553485 -0.5926413355589277
Ni 1.2816421393476778 7.86273068465355 11.944160208602057 -1.9198514722829259 -0.4553439125256287 0.1738060594822942
Ni 2.5590829352063236 6.7506666661330765 6.382620610986943 2.151963466594965 -0.13496826067949014 -0.15063502068246962
Ni 1.1143227053962141 6.3464546654527085 2.0088342797489087 -0.15309248108402665 -0.7477374773365446 -0.3687882388215713
Ni 7.016987227300641 4.6504875570262865 13.394596899626219 -0.22241867828367504 -0.9951771031445893 0.255797767964753
Ni 1.6785854439917114 4.685948011474641 0.46911996908359305 0.730513143038458 -0.30607234784958903 -0.6749150940581796
Ni 1.2243477117671644 1.0028104977902086 7.416606564667003 -0.9674228158494566 -2.0239484973048563 -0.8327831421539786
Ni 0.6412607235389521 5.296239628295106 6.360853561910362 -1.464261505184762 -0.371156996164064 -2.3106532392611108
Ni 6.249517029950247 2.53029629630028 8.370191631077645 0.21118552857201695 0.8789943506027184 0.0070288818223233785
Ni 8.277501814102811 8.79149715095343 6.040475094850073 0.12146225577325533 0.49701378146058917 -0.028277763898770653
Ni 2.7389227445554103 4.417164273261515 5.998737721689012 0.6445976740215609 0.7803570631437786 0.9841324152946535
Ni 1.0940409985531447 1.1123335737443274 12.894262435620355 -1.320109778233791 -0.2645927405485637 -0.48888241060270643
Ni 1.0618895668527886 0.17858963081086854 4.87463759767308 0.039124991025919716 1.703095905822299 1.4061054656693204
Ni 7.478967700955195 8.216731053635355 3.7449325840025325 0.9693663127290725 -0.24979655607599563 0.7318920256638556
Ni 6.123030564908776 8.44806520574824 7.37514060573134 -0.9253701096537805 1.9513035201446203 2.689571367427832
Ni 6.27428822552164 7.010657327043935 5.722341372153946 0.3337744417505477 -1.0786068296251554 -1.1006334704078915
Ni 6.480563036823838 2.6506201712239896 5.1139617384213 1.1016606261208255 -1.249024946471823 -0.41267954088788283
Ni 6.97850589534358 2.910452817003625 1.7678500506220585 -0.0434992088342154 0.43935987839254653 1.2315671560066919
Ni 4.790972303692716 6.350618828910863 7.625620614744019 -0.0015454901102489513 0.020847789983286676 -0.21906595976135818
Ni 8.647917166716542 3.807430356904196 4.053923737106156 0.15071729598363076 0.8825596993564735 -0.0662591282385504
Ni 0.27242459273669567 2.0258190473540147 9.449996395808222 1.4766341678175021 0.005520415597596945 0.5175561243883151
Ni 4.355575552114779 5.178035015131351 0.06635613060586094 1.0918796354746616 0.3048832126374943 1.2570946108538348
P 5.406896695190954 8.595623453288903 13.487826756549532 0.5082608151293182 -0.40347524868079543 -0.0007870146776696123
Ni 5.00038882760397 0.49585241128371577 11.69856379664499 -0.008105916936586039 -0.3242325636983835 0.2024651179798836
P 3.859891380470779 2.1108962530069086 10.81125771227614 -0.08307208603083112 1.0098614446296414 -0.18890666256915853
Ni 3.672987365255178 5.159017429338078 2.1912125557060813 -3.2953554110163052 -0.000788557339566384 0.456736164887465
P 3.647230898865561 2.6556487704000213 2.917213076117724 -0.42270607188594944 -0.46832104151158704 -1.1718689688151107
P 3.354791366007334 6.302786719188391 12.249751247882033 -3.1914329638990266 3.1331008038170363 -0.2623908478012384
P 7.355464933391555 1.0871998728718895 7.292468018575375 -0.06504016822978476 0.6158792230409458 -1.216555255978892
Ni 3.02897346042983 2.180367140699439 12.941755277561079 1.8754207527733764 0.7028699273998927 -1.7443384574118541
Ni 3.1062800396295587 8.565628463379376 7.928790304513171 -0.1431813926179018 -0.3365309214497624 -0.8281883236944446
Ni 4.978387544332868 3.907584065077465 9.951120005969438 1.4676499620410208 -0.36731011161414806 2.9964448710224785
Ni 5.1130071411285485 7.726419396452993 3.3757283708945995 0.12302934315005908 1.2890863332690832 0.8260013433454549
Ni 0.17640902199996839 5.575777690439226 8.471787924448918 0.5211847222798379 0.07488697911687749 1.06058879578118
Ni 6.035573837279793 0.11762367518131188 5.2399369780382195 -0.16517100951511554 1.621113710421537 -0.5128026688637298
Ni 1.3452014021308623 3.5906707768948563 2.57144901347581 -0.47022777161599666 0.06230811401060238 0.06891224959068132
Ni 6.830222637200826 5.436101609444358 4.039952411003581 1.1189320116067634 0.598910199286775 -1.4226314883488016
Ni 1.8868122069149205 5.179410676273776 4.016716750707382 0.34085397430514847 0.9681995461144809 0.9194113209671844
Ni 2.1037669820863614 3.5728708371127857 9.661935584814437 0.06929277285855164 0.39409843545158574 1.7795024069074965
Ni 4.498151675518007 5.855687552892111 4.6589562385591545 -1.965366168885273 0.22555876657455348 0.8133196341127282
Ni 7.21944179043029 6.901859261691906 13.20794756762212 -0.6634101787423736 1.4520793612962732 0.06288944043536912
Ni 8.70682892564018 0.008674101203461237 8.565180444007316 -2.0587617483292995 -0.8050702496197425 -0.7812075840695321
Ni 0.9172992152768327 8.393401265352232 3.022046820677559 -1.3217108041723236 1.2015963206762146 -3.361519151327572
Ni 0.6677905345707986 7.634640490234631 7.219264255782856 0.5229253591200284 0.982176320009547 0.8105891225554426
Ni 9.188579880713252 1.0005146308835915 1.5479385334951727 -0.14981792409781294 0.22343837779744097 1.4177967859643195
Ni 9.226447742160852 5.8681521582434195 12.380010556556687 -0.4358629209828816 -0.8560223151875773 0.42919939291977693
Ni 8.038973326015347 3.7123424279378345 7.402811843711091 0.5442223208255917 -0.3323230540160019 -0.7236626957755279
Ni 8.911040245228737 3.1945082528992264 0.6031902309230749 1.55241769060672 1.2399726064615677 0.48791310471090155
Ni 5.2260344349927665 4.198118121353278 3.4051136082977527 -0.13377886835707928 -3.8502431819755434 -0.47508509970829793
Ni 2.8038948485118977 1.4595207020680352 8.855589017678922 0.7935959304315559 2.0841341656558168 -1.0109492783771816
Ni 0.7689639050908527 7.204978758419376 4.938372536102156 -3.0445206434837826 -1.3599338522092643 0.04801406598543344
Ni 2.1527330827505637 1.9143997898252 1.3470195056407177 0.34756686754894983 -0.785062696149564 0.6851771381058199
Ni 4.1171864891431005 3.673888981003931 8.11152179076367 -1.892994757101398 1.6119266446056304 -2.8387395737567886
Ni 4.65991269485345 3.007929562953794 0.9713059986271014 0.4151010058451819 0.3287181102735629 0.4492583684531811
P 8.62345270639988 1.7473592061053091 3.5925520864572014 -0.04121915455078707 -0.4211806363803585 -0.03386451395792878
Ni 7.810808771534675 6.869233784597876 7.526283008248487 -0.34588408052988817 -0.5191985450877445 0.5245009311372644
P 1.406576338100059 8.331868314251809 0.6436235145011465 -1.18995847932697 0.14722882321439804 0.7826700275476715
Ni 5.37760812586808 6.312276922069589 11.729336778700603 0.7235685933998247 1.6482748442173611 -0.999343061596821
P 4.514622429196247 8.003141071258227 5.7223952831987175 -3.8295931098253595 0.252982410003145 0.21327557833182623
P 6.63534350536224 4.7601779431193485 11.165619657058219 1.935148507651312 -1.322601177197077 -0.6538582733878803
P 8.891055978632679 9.254239815240952 10.86209675699574 0.2222962937731978 0.05104539661258951 0.6663425218978203
Ni 4.498188855548883 1.7424700320450643 7.230623684716364 -0.10537666306530238 -2.289961258129398 -2.3196017067036503
