# total energy = -340888.18056647805 ev
CRYSTAL
PRIMVEC
9.06906896567284 0.00000000000000 0.00000000000000

0.00000000000000 9.06906896567284 0.00000000000000

0.00000000000000 0.00000000000000 13.27349914680119

PRIMCOORD
 96 1
Ni 6.53534354891194 1.6589413379297782 11.290584809732152 -0.04395377987313075 -0.4159471558955611 -0.09393576821821242
Ni 4.712505993125101 0.22250417039576406 6.148338253746153 -0.5303774445226995 0.18580282683285418 -0.8729897962798514
Ni 2.8881176265119275 1.4552772518067152 4.861140781399943 0.2525923736535779 0.8944266259973886 -0.018033460462943136
Ni 3.286267900768271 4.0393180584575665 4.653781956501151 -0.4023933284705263 1.3974493326562192 0.5759818726253758
Ni 5.106221492562272 4.555157643201464 2.589036049944105 0.5149927345365131 0.07223385776474656 0.836297068844508
Ni 7.1159634946647445 6.068567628322906 2.6850430298842554 0.9420033473350874 -0.4786931287745305 -1.1237867685959033
Ni 4.7914341020233975 4.661900587213061 11.685564537410206 1.1410969777395767 0.4739676982744031 -0.2737659224073995
Ni 5.766930388065834 8.030687948266934 12.331505360693848 -1.3352466338752296 0.22996512317236523 -0.3424508864786231
Ni 2.014757197347877 6.604313819872704 0.7057005476056469 -0.1012688115445159 0.6962220830660718 -1.7871334410901931
Ni 2.853002190724934 1.5797683641641664 0.4234194216564722 0.22082356588241323 0.6160820830803712 -0.6627910571011361
Ni 0.8640990957379973 0.2271901584306657 4.6439465509972795 -1.1469621782711021 -0.5138002568903086 -0.5664615918397663
Ni 8.533168794138351 2.3050036867401604 0.8122004405637603 -0.10106183774003238 0.4629381799331188 2.7143133502592027
Ni 7.072214305037561 0.6712571298433999 4.8184263725639 -1.0577824366806363 -0.12224052870017656 -2.0935102075540786
Ni 0.7281981874705212 7.3675848185051676 2.493214079014815 -0.5126702570509236 0.5231994387170216 0.4271329973090514
Ni 7.67382914589545 3.674886583337597 3.620081291497624 0.12417451249809583 0.5273957361865563 0.34695880165130566
Ni 7.212086558690141 3.6454302467063595 12.491198971902227 0.542525135628827 0.5331143838378883 0.9905884553326423
Ni 8.00971119130017 8.918205194389532 6.75383556311138 1.271186827280843 0.28784528331860104 1.22588501802025
Ni 6.783246554396818 0.8425065489752774 0.3798924242237055 -0.43136863265695385 -1.1175592996289527 -0.5968378901387785
Ni 1.7592089665612332 6.710712139256227 9.057530583171772 0.20174572331535578 -1.4530754066609557 0.4175618086808486
Ni 0.33006060991100156 4.900689178192278 1.3661355572205813 -0.28432981396617485 -0.7160182918563927 0.21562762350377057
Ni 6.342979522962068 1.812326504630556 6.7295449682736015 1.6808651194485567 1.842322170447195 0.7997120706316226
Ni 3.7731680858230416 4.7943996876386725 0.7663617374021444 -0.9534133889442419 -0.533515733041365 -1.0062583006594155
Ni 6.056406006579529 5.442593267701622 4.766978450126909 0.7197703026996572 0.3943051521457532 0.7982421709543156
Ni 5.038167197586654 2.6615269335527283 9.55540615572381 0.1582460002605081 2.844584976793972 -0.31206841753202386
P 0.16945102271747642 5.443971766213922 12.489062299208161 -0.6563239613195536 -0.026461022405006043 0.28380299492842737
P 3.944899979434224 6.543841266714732 12.586250978859843 0.29570180324854234 -0.8613704668733682 0.30327935848548415
P 2.3323559993263094 8.818128016210434 1.6226723165456505 0.5134307893660319 -2.526339998137591 -1.4941222972999366
P 6.5739052309796815 7.5805628386554105 5.92323307431534 -0.12365926342457413 0.4252787177091321 -0.8571032069565819
P 4.707853560646091 0.9437726821212333 12.620828618845657 0.285191904856154 0.8816693263317202 -0.4293672859562089
P 4.0913201010202265 6.101479280304052 8.049342116621858 -0.015367226484689663 0.3420695918798044 1.3810688344156665
P 4.879059448246002 0.9571949044778318 3.9205005557665267 0.40503925073380564 0.3781689087055229 -0.25460297632570345
P 9.29470760056128 5.361951104732113 3.5923798197488197 -1.2713439216839975 2.418499189802512 -0.08412109612063577
Ni 1.4798816364374259 1.4975753903683204 2.215957217380205 -1.8772590915336957 0.7141588700501507 2.428453987022379
Ni 1.5600068624648231 6.831403311635696 4.710592419532371 0.880781010189496 -0.20002616952108776 0.03819733700532777
Ni 5.771963721449559 5.518492307500524 9.339937769182269 0.35668117114539216 0.8997912327434117 0.9065329223426195
Ni 8.833880989341118 2.2943384614081603 10.08131603486282 -0.02403004436601023 -0.16501597199449003 0.0007528190056245099
Ni 2.5445540795288046 5.430758132448 6.833675113460242 -1.1301078257179247 -1.273248337795562 -0.4491097586904588
Ni 0.6291022825745207 -0.09181344236062983 8.835319343709871 0.23425500879697078 1.181352482825514 0.6640778942333596
Ni 1.4363501044700793 1.190542053961129 11.45869361021397 2.1977347592928087 -1.3676114233591803 -1.1110299831508672
Ni 4.123587849091022 6.969833583291858 1.8981235265105318 1.2861902426682108 0.16453748969617468 -0.44194872216564535
Ni 5.735415372735307 7.737693530919211 7.983731028877906 -0.21400140075425725 1.210034938361871 1.2008252468381446
Ni 5.226577109382826 3.084589940791218 4.866980355031979 1.7898179299008916 -1.3987513392970945 -0.055054774882298735
Ni 0.9411426520648728 7.409737851960215 7.005553925991813 -1.5045249806904992 -0.15257003292165336 -0.145927073683839
Ni 5.122436988220109 4.101994395421386 7.539281342746626 0.34738586188639525 0.49553668269443035 -0.8196694875901562
Ni 8.358825008609127 7.169788420128536 9.367666448138552 -1.3799285501636365 -0.03904631526918437 0.8113018323517511
Ni 4.466389594264716 0.6910240729842393 10.22165625248405 0.5792494876330541 -3.77340473555925 2.4649873060617224
Ni 8.149338580085432 7.376019052823841 4.427521377659372 0.45170631577304143 -0.20534346796894312 0.8073094233629063
Ni 7.024474724980038 5.897280119100558 7.213655507654798 0.7593511503160728 -0.42923898790846077 0.11504298251047285
Ni 2.4934408057438118 5.547767262748565 2.740048748152662 -1.5326528492749667 -1.4946167204378515 0.4921330563295202
Ni 2.3715343780969214 5.025896747013358 12.010047669787893 -0.059298894870633355 0.47530724302143307 -1.1512636338599336
Ni 1.2138404926328192 3.530942317632238 3.7879252751599726 -0.8884881490257667 -1.3248750608329183 -1.2538488502230276
Ni 3.839880158563001 2.6301026089138 2.6770658766512394 -0.9734721073673298 -0.7298194594055432 -0.10505887471456746
Ni 1.1750520838360816 3.4790672420378166 8.171059907630223 -0.4767959117518176 0.500784304246615 -0.18664332045627854
Ni 3.5245304857362143 2.614068494639161 6.936930093472956 -0.3928702194714395 -0.3318160324725963 0.04819995674399441
Ni 4.444923107563318 6.9426717211580655 6.136219256627827 -0.9794501793276358 -0.8273347174448977 -1.7400876525553
Ni 1.157231362936949 7.1422456570900295 11.510287544664434 -0.9173194714351622 -0.12181783934046117 0.4235807611814189
P -0.03859614453054864 5.625271527788761 8.175692388157081 0.8795923891980335 -1.1219296607825064 -0.7060946049847775
P 8.430416240557093 1.9437554548953029 7.880941292113093 1.5424027295728793 -3.844491367093431 -0.5820118808695396
P 1.7903340119178859 3.40490946351761 10.34788771921328 -0.22358750178079556 -1.3975907433300898 0.7116898396843678
P 4.141834816240668 5.9926232431782065 3.9525560876189814 -0.1744758318558092 0.9320166684360207 0.8354609460964578
P 6.592360786720005 3.877843282066191 10.4839273842389 0.5685799237343497 -0.18516313636632628 0.24595841327682802
P 6.245251233695375 7.618988484685754 10.187570156046702 0.7787172135475106 0.006992115047116991 0.29854338646239553
P 2.4594952798784413 8.379756420230093 5.989560618522921 1.3486119994385417 1.3560846536665032 -1.0161002264505017
P 6.847428356841175 3.9317498291524213 1.4955121771344513 0.6185860804491476 0.514042969028734 -0.6941898831273915
Ni 5.082959330167221 2.8698706593622814 0.47891486965951113 0.3739340446885689 -0.33186385499139626 -0.39919873279262863
Ni 1.491734909829368 1.1590633149072416 6.972210586318658 -0.7088765386052889 0.40442861373300026 -0.45334153738361926
Ni 7.296165898871239 0.3699772109112264 9.190451395313316 -0.855613766895249 0.28148977341421844 -0.1041211933916465
Ni 2.7500591866913195 1.538105060443752 9.123353887134066 -1.7733045056269006 1.364528156448166 -0.06021317915478662
Ni 6.307347150232962 1.9214001994162384 2.4462263247906444 0.4499415105631347 0.36874530139877787 1.1171057570313019
Ni 3.8973961951748577 7.125132323585367 10.22946109340303 1.212614011942957 -0.5535788223398272 0.5050569634800398
Ni 8.254440022579095 7.070618148865425 0.5041976206633796 0.10507661532638031 -1.247737080898335 -0.4909313227119352
Ni 7.614444881036661 3.6606027994108117 8.479270409214365 -1.5677892879667836 2.7329435637658803 -0.032280714410576665
Ni 2.887809278160492 8.460144649263128 12.606997381469949 0.914898006477863 0.3268836281679854 -0.5244767627675483
Ni 9.059673604214247 4.7757627505151525 10.323875544798707 0.15397462657866384 0.266558863135999 0.03598953072073156
Ni 8.713416543690645 2.287427830708344 5.598429803796312 0.040607746219033285 0.9130031034479953 0.46668453434942847
Ni 3.4180142684536134 2.854172100646557 11.782527397239809 -0.015224787369554425 -0.9991101196504084 -0.909707206305543
Ni 0.908747937025839 3.1976177497306013 12.52304228753634 0.06721969237960682 1.420774894756037 0.11334039799706931
Ni 3.226711323595445 8.458321766361996 8.107652603692118 0.3331059549286134 0.0015316061531780074 -0.4210806204673845
Ni 5.582111827656969 7.733095512855161 3.9433972346744346 0.08447359436404805 0.9225156709241209 -0.49708602945942143
Ni 3.2018983503740572 8.547615821310014 3.539710293695994 -0.3615313001488419 -0.7669122504927823 1.2344282796045707
Ni 3.2579996121969748 4.5951159619198245 9.437072941325907 1.009180873622849 -0.03985107055866685 -0.1165257377035864
Ni 7.167185597279656 5.9885240239179485 11.569500404116102 0.482997155466523 0.08255426585414814 -0.7772043764474099
Ni 0.4633822749094123 8.890499188106148 0.2917320029206689 1.1965142781676168 1.308626717294856 0.27186741983310597
Ni 4.595832418383453 0.23245112545030275 1.6601565931971998 0.5571045761048986 0.41950736244299364 -0.3163680733486422
Ni 5.975274113875387 5.979926546354397 0.3867976134820259 -0.5770563366364772 -1.61748074165464 0.021221114162305387
Ni 8.09291083177276 8.40797936345559 11.58998198990674 -0.17182399605525894 0.40605200826903615 -0.45314741909494216
Ni 9.128562253552573 5.295574587551069 5.891827794721647 -0.39094497742426865 -1.055502382397208 0.280159227528253
Ni 7.889373712617935 8.98021948930468 2.5614134790969914 0.3293675709321037 -0.5963254692787343 -0.6470628477326018
P 8.672106933667466 1.7412431405555426 3.345426345804979 -0.6129908457495572 -0.037644806935967424 0.6706879433507095
P 2.038082843227047 3.4838738486925447 1.5125946758039708 0.6010447291312745 0.036512750214053244 -0.7249333349578354
P 4.993166476415409 1.091952203124249 8.13977433974944 -1.1886580153479915 -0.8641703982160086 0.20928445489456218
P 8.61049167779535 1.3877580319115286 12.167020560248313 -2.305281433426236 -0.03274505564150489 0.4779593359322994
P 6.432844929267159 7.806600318395857 1.3355927461039918 -1.0132401312938875 1.1168977547855539 1.1459090544162394
P 1.5916488447635881 3.4345834578086842 5.907689596682249 1.058859471794899 -0.5658828365181608 1.256486802066507
P 6.88178199081874 4.018105505692645 6.176571172947725 0.19076197061034242 -1.4142957147895967 -0.7968571176813308
P 2.237665848228171 8.478845069870767 10.265246733400936 0.2074152628963073 2.0200992987620956 -0.563765533064842
