# total energy = -340886.07036883023 ev
CRYSTAL
PRIMVEC
9.14606228873701 0.00000000000000 0.00000000000000

0.00000000000000 9.14606228873701 0.00000000000000

0.00000000000000 0.00000000000000 13.38618665771282

PRIMCOORD
 96 1
Ni 5.29120741558594 3.420746209097208 9.504340111898657 -0.17195409387521998 -1.013903218799183 -0.25324954762160257
Ni 4.538861474631675 0.8353876138519927 6.15069856209443 -0.43109172484648334 -1.152550470992157 -0.00901737300726189
Ni 2.672708063498947 1.750464868758879 4.703518034704126 -0.6183672795701222 -1.3860153797876646 1.4742762091082868
Ni 3.6260204319637332 2.76411381039469 2.991317546902592 0.39176181689860917 0.6923188913569238 -1.6116301964111341
Ni 5.352339696179411 3.12267603786124 0.4606359414604717 1.5329855500240372 -1.8228352653671767 1.676998951624931
Ni 5.343266802351056 4.356735935514712 3.2146387799526956 -0.23476537277448603 1.8366729425812174 -0.45968547732377607
Ni 4.992131177494005 4.540580934349146 12.020782212903917 -0.8014179975791359 1.7265335680199492 -0.6867403688278818
Ni 5.373942695395715 8.102551491837104 13.005818613156032 1.2072992845982629 0.07500884940672242 -0.45517293416540316
Ni 2.226700334124232 5.495640200718384 11.645138799435514 -0.2031680575841791 0.9050650795478412 -0.17670934917201825
Ni 0.8581521629838221 7.854181023285895 11.407909149404787 -0.8702641698185722 0.49670010687491223 0.8114291019582348
Ni 8.201063729160904 0.6131565914312641 7.127568443294795 1.0577808940187394 -0.47744408685877765 0.35101625955013094
Ni 8.934605365970917 2.435331161864755 1.4830285186808663 -0.5412010175007648 1.405811074357353 0.8051306705440328
Ni 1.4506020693068251 1.0566903109465338 2.4988395894507724 0.6900195537997859 0.7819843143345565 1.0519635160060141
Ni 1.8707813186701758 6.453717667655522 0.592192901971615 1.0841899801398875 1.051985113272569 -0.08242108271039354
Ni 7.815987067008465 4.120227909801583 3.751612330625227 1.0733370965857836 -0.3952235501949645 0.12687494214839437
Ni 7.813307270746663 4.248977029178346 12.654845788208403 -0.42300663384550374 0.11697413809491468 0.4261351521721564
Ni 6.756150510621454 1.3343098868193954 9.699242700086398 0.11999338453721271 0.13099950583972922 -1.0599295649306262
Ni 7.207435517958832 0.7250769561264018 0.8437324811191205 -0.920646478925866 0.2866697749532612 -0.6515558505069489
Ni 1.8429681431338583 7.061308880160825 9.443820617481093 0.11379599747724917 -1.2941593769166162 -0.9652993417485505
Ni 0.1947205815474341 4.937702960586204 1.3565695733107763 -0.99145131755357 0.15137858371671348 0.855491896605404
Ni 6.4048776948295 2.074473272754135 7.042084771755765 0.20524808004165943 1.1536743001839551 2.4828333331042076
Ni 3.8964786410345775 4.596984700719573 1.0251693217428628 -1.7808674055758233 1.2625384075772255 -0.18573212149591883
Ni 6.641879607908285 5.901743660160527 4.854273494645812 -1.7709462898073696 -0.40761652454267866 2.447463438245346
Ni 6.086338636105772 2.452480028727825 11.79471624654949 1.1549331122917208 -0.7602245540599617 -0.6653801579845509
P 0.2250818500480453 6.111371408694691 12.64448512880441 -0.6016556232423961 -0.708171027897832 0.1287569896624557
P 3.8362975509231116 6.412725016306041 12.814181169219019 1.1314424853689482 -0.8267775593898471 0.731670910791985
P 2.3268497166045585 8.414752329368243 1.5827023059201903 0.6321180534973113 0.3209307530186602 -0.17366310614652672
P 7.008060505293202 8.088448263728917 6.021107090377353 -1.9673428329956697 1.0622718399105577 0.013887042394737375
P 4.6542390508864075 1.1147037842865075 13.142464442745903 1.6664119201377041 -0.6987530770180418 -0.059005789110246766
P 4.106069805319433 6.4420198539393265 8.32130883978605 -0.8267873295818599 1.139280236245812 -0.13190350571123735
P 4.80663074137839 1.1162677609444194 3.929488609185079 -0.044466972064123415 0.09847916461452072 1.6464025668953128
P 0.22593060463198814 5.846894724385685 3.499390455228129 0.39931674642773163 -0.1602018384352983 0.6082404755487655
Ni 0.3112944627545344 0.35256789821745405 5.224695421131744 0.721125531175971 0.5030684722951013 -1.7305128643826713
Ni 1.964272367776468 6.454174970771871 5.0174374173465 -0.7974322734585105 0.5600664869467 -1.0291143793219826
Ni 8.311090858954358 7.470567731105771 9.082702065594153 0.03152969517716506 -0.4886083310057133 1.2127348537915372
Ni 8.454263318620754 2.6193682280080552 10.827644541920009 0.10216741209938535 1.0344630452284056 -1.1016279731106768
Ni 3.3903995742963198 4.391719623915375 5.278199885744522 -0.2937145976151845 0.17991165815939983 -0.8832618676298208
Ni 1.6691472286097846 1.2977805138854754 7.010065322155274 -0.4131613656203078 -0.021835864928168847 0.31333211473579586
Ni 1.3503520801409017 1.3884179915457528 11.520219136355054 -0.12084184858043706 -0.4389104495599538 0.36351259224492877
Ni 4.059507202012826 6.884021608014829 1.9860683489078714 1.3771651284858861 0.2435734579844192 -1.3152197971313413
Ni 6.499173597420564 8.67834184563153 8.119832976603915 -2.1205579557004897 -0.6879981524943829 -0.1644143338547491
Ni 6.9931524237002405 1.0716532689134575 5.005376504955923 -0.30903682979455166 -0.7545676128845005 -0.47127215372011094
Ni 0.7312029886730066 7.683634399074877 7.017319978793028 0.20054116148429332 0.07315148448300951 0.8339396243559251
Ni 4.946053315490728 4.877585892911027 7.03912602059299 1.065553338875307 0.07320856297319005 0.5782912374848427
Ni 0.5348251406319254 0.1560016412924373 8.974193182146976 0.9742403529919222 0.9653823883806599 1.152750759928421
Ni 4.7627387882712595 0.594028516680638 10.833883071033233 -0.5518384426099529 -0.26243378522403193 -0.20882422742869194
Ni 8.630489647536823 7.306587979645519 5.127056632760172 0.9195000240262488 -1.1958113385633213 -2.111862999029653
Ni 7.334721267363279 6.348364175711149 7.23258353093307 0.22169131319934723 -1.1772909111616305 -0.10423252215853017
Ni 2.4175695088257783 5.411597033995853 2.8302279511376613 -0.4445015704944861 -0.3245850619417958 0.13221255231122392
Ni 3.3653942398943824 4.658299902559583 9.384801077285152 -0.41467368849977615 0.5316275148797166 -0.33166253761386755
Ni 1.1555318065141038 3.5025394444873053 3.6195313007427474 -0.6685307877983906 -0.4403713503761964 0.3722931666510363
Ni 0.7273177413965095 0.3896359742224327 0.32573518056258804 0.28623834384279734 -1.1415091255763308 -0.4319581866118367
Ni 2.2641443132908488 5.722956433792908 7.163644171537297 0.6413087188576438 -0.6088287439520675 1.5070850281081916
Ni 5.305173452759223 3.114709817574449 5.3478617840641265 0.4851260288840678 -0.34605454466948143 -1.2824150918964947
Ni 3.9767810682653777 7.222480790486698 6.109013553826797 0.8162846302783232 -0.24507806755440373 0.2396088169097164
Ni 0.9818389368626074 7.986378208159926 3.2189493191273972 -1.0776447228222021 -1.184130045570651 -0.05726360960815944
P 0.3067333214720742 5.6369011333584425 8.326047414677655 -0.7831955610338383 2.443085106671992 -0.2869819068770412
P 8.716480925534999 2.1775859794284003 8.570532635952366 -0.36617394112717583 -0.9880124670753501 0.0461610719370947
P 1.9912623977033577 3.648739250783928 10.706192151067702 -0.9986663472447703 -1.8262944275603707 0.016985478814403005
P 4.267214277458326 6.005853287628432 4.140213885198479 0.06707622482320705 1.7029174712629058 -0.13620136175564285
P 6.722392394572607 4.602719281798583 10.673596499540611 0.7327620869736349 -0.7364053401531769 1.0662102557330153
P 6.355754194071341 8.274771845453959 10.299225303341892 0.5941346322750025 -0.7096931209693133 0.8323766507441794
P 2.352915994236424 8.677683329143989 5.767907500917502 -0.12763187491907696 0.3872575012703524 0.19330093498211226
P 7.035645029271345 4.12908129813409 1.661921839371478 0.39273523655547204 -0.951999796426167 0.26431994650315127
Ni 2.758159723819832 1.8777414721010002 0.44568121494964236 -0.36686736764977457 -1.8935184908153515 1.5152130565319646
Ni 1.1174658951092524 3.738498706460816 8.191154885235864 0.1388737663814834 -1.5168071404919619 0.5549461350009991
Ni 7.786317240819774 0.167121423869568 11.738293273448175 0.25059436938694263 -0.3992884642929575 0.029932783003690386
Ni 2.556415881011517 1.7928202833950793 9.538608578225348 0.9433552333772915 0.30935744635876405 -1.183782432423245
Ni 6.376159059122812 2.322907763741634 3.020526411550005 0.7996753038564163 -1.1261257011417252 -1.4182274457438349
Ni 4.2049113008870025 7.228315978251305 10.662285564260847 -0.05485268617382166 -0.14586253899449073 -0.27463469816559793
Ni 7.397993726541262 6.770921401279512 11.988440821909517 -0.7583880150718552 0.08907638324338207 -1.1951461941754964
Ni 7.453482886678991 4.130626982667349 8.556129416999854 1.1871798881405682 -0.2920950597338905 -0.22071146578458117
Ni 3.1674917432633953 8.526380020068917 12.55795697694764 -2.0075723699396777 0.7902681516099035 0.755748520566479
Ni 8.875832769457805 5.351745202128158 10.528142097323636 0.6012339623239452 -0.2855688285795985 -0.15748829615887716
Ni 8.71113047907372 2.6790279925668834 5.992072000914153 0.14073498795993827 -0.18550020799077085 -0.38397625941591934
Ni 3.582540051661316 2.478207902053593 11.91665154949266 0.0897636391183938 1.8603191212452477 -2.644268272615659
Ni 1.0460168562109593 3.4910428441423034 12.95773501968445 0.5357821604780385 0.42923898790846077 -1.2841030211218787
Ni 3.1191090735537217 8.655805948057877 8.137650420623087 0.6518260734492 0.3121362946554818 -0.06150130183859086
Ni 5.613203685869262 8.08282343539783 4.262697037275035 0.28442083101808435 0.3445831023302775 -0.2686188309888212
Ni 3.269223394526288 8.245952603061674 3.695243319291642 -0.14229333358599364 1.0570550715963087 1.1509936680279984
Ni 3.3973048513531827 2.878384713107859 7.384610293538206 0.7012146511846569 1.4941827182242267 -0.2945592050036669
Ni 6.016078585309985 6.154806058685473 9.365431546489093 0.14765305523601024 0.37594721846385576 -0.24504412899267478
Ni 7.788192183596803 8.754830364871985 2.9657360105740556 0.3327945943357817 1.2151534905353587 0.6049713178791905
Ni 4.661071159444655 0.4111731217899827 1.955975974639673 -0.025989739195542337 -0.7917910160123331 -1.5166508174197557
Ni 6.140208943211628 5.703228377353633 0.6783561259415386 -0.5811932416229862 1.524150982451543 -0.70537186788614
Ni 8.399825955650627 7.676820582641284 0.6405719132563581 0.07910924472834117 -0.7964395705279379 0.3806219982317058
Ni 0.17355567871659172 4.986716708596439 5.938594059882123 -0.359182083190375 0.6228124598256694 -0.12558476258206114
Ni 7.232998762162714 6.509005614422058 2.8821528907865708 1.0666108336055435 -1.123285917700085 -1.995666876751344
P 8.628879940567275 1.6802414022123997 3.5240208010746605 -0.24083651866923036 -0.13825104519581996 0.9872442214507576
P 2.0543976659464347 3.4331939999242147 1.5577902613539882 -0.8654927165718579 1.5920869841718839 1.1460826038796263
P 4.6127799503582505 1.4322276300919417 8.334775501956281 1.043311496757971 -0.6458019787423072 0.9097799685250074
P 8.607779974778955 1.9293984321237294 12.83818318058369 -0.9617630464605179 -0.3102835577174592 -0.7232181520389416
P 6.290926904297774 7.863830119040849 1.5072308288104954 0.4373983837908016 0.21602228783902797 0.7962467377908417
P 1.6963384719078678 3.334553717727838 5.974455770266174 -0.6577056721584286 -0.2763989891548724 0.11390038426559738
P 7.130014100361027 4.233693959029979 6.180014435671069 -0.7801297776243209 -0.2088748781609693 0.2758528868434153
P 2.6224230128252635 8.908648841086974 10.41614033267379 -1.0320773186050483 0.14480684403646674 -0.012745729701442565
