# total energy = -381160.7362353426 ev
CRYSTAL
PRIMVEC
9.34381264957344 0.00000000000000 0.00000000000000

0.00000000000000 9.34381264957344 0.00000000000000

0.00000000000000 0.00000000000000 13.67561429971664

PRIMCOORD
 96 1
Ni 2.4825482457201167 3.0304133580866552 12.971730149956317 1.0436341702047125 0.25779217268696253 0.4618639730323336
Ni 4.3789964976089495 6.970231972360815 3.1231955491835834 -0.6624570708004849 -0.7245155306941264 0.9435920319784459
Ni 4.4480285856494035 4.252724213123473 -0.01252818403419612 -0.162364650414572 0.1731074907533728 2.53384864780981
Ni 4.891317746561048 1.0845083057108003 8.669546333202018 0.003977753700825408 1.1032755360164288 -0.4777855293585965
Ni 8.877677891767734 4.085768968252489 10.580316781158583 -0.5985520446164079 1.2976087689177975 0.058865149767324425
Ni 7.421080277726267 7.547352562211742 3.3454110365938274 -0.861834036773348 -2.129945053342345 -1.221418240498148
Ni 9.551992821060567 0.827573079164021 8.260166802868014 -0.19692721888078987 0.4429889905047016 -0.42806836463912734
Ni 0.8513941951968221 6.942144471460761 11.876313877329107 2.734892459962135 -1.2938169059755331 -2.789692952741783
Ni 8.962949526236761 2.8091985930138685 0.6700859196762784 0.031550006892139215 0.882908340945144 0.5913390718077365
Ni 6.719500103048748 3.98792990573603 0.9458414537123757 0.048366564228845735 0.5556683578790043 -0.4269422214544841
Ni 0.36552527992671174 8.229553669401996 -0.14682586922594537 0.5107380730252172 0.519813295853608 2.0193459655358383
Ni 4.207182470147137 5.00315384046416 7.627669172819394 -0.32060602268938976 1.8131126387627743 -1.1501030378929291
Ni 7.530954170967698 8.649062827056607 9.565217119139026 -0.33677363358818774 0.46916616312070164 -0.34569227623405624
Ni 5.0588336201925115 2.5252588134560283 1.986519802928839 1.5217804253368372 -0.06712764688643279 -0.36678586367956184
Ni 0.6478485798918338 8.066270542912157 9.074070818470263 -0.5292420453666756 -1.0840652816365652 1.234702873422196
Ni 7.50736104396416 5.102104816688904 7.8934137459558515 -1.281258095473916 0.2884834311232322 -0.25431295588911035
Ni 8.754470377839548 1.262293029471726 5.465882803645453 -0.13164973782921843 -0.8660552739435473 0.2503233751137431
Ni 3.840250946412888 8.145263135263807 7.099585846266397 1.1989527124057804 -1.3353579626421133 -1.21860288253654
Ni 3.2734178943167707 6.987564744872326 10.617473386640672 -0.8678092805201764 0.41394735185671294 1.2316980251576013
Ni 2.926678349772481 4.210471492208621 3.70920957993826 -1.2611440983328603 1.4544370628951724 -0.2420585640017896
Ni 8.035230397206908 7.104212902302893 12.145039126708783 -1.5375587712170165 -1.0784157966602717 0.2766571279122655
Ni 3.3259768406117836 6.647982560836833 13.368063849033947 -0.5689406495078783 0.8230072937141374 -0.36500383207847464
Ni 6.078009987682027 1.9315622999202384 4.997466261689089 0.9707801623574636 0.13784686777886582 -0.2559368646457786
Ni 5.1029364160169495 4.396441395872556 5.077960404737559 -0.3624982920478015 -0.8214780015538046 0.22244541775655235
P 6.259952708083181 7.492448318935387 11.016746649185754 -0.5828760286420478 -0.02371791244223012 -1.6069788136820518
Ni 9.134296363064841 9.156515949605204 11.379191274073627 1.1035305894500287 -0.7794337799985609 1.1576510254435162
P 5.209539974822247 5.367095344142516 2.0545418248191614 -0.5408526330224105 -1.0099342068491057 -1.6105464764286521
Ni 9.277630449494263 5.759339256412443 0.15308996124304342 -0.41823260949562807 -0.09150016219352629 -0.455388392610319
P 7.312234203879048 4.877460872364513 12.528120496269931 0.39536573219978366 -0.003450677552761799 0.33240918597190494
P 9.102377898968172 7.0029166290968075 2.013351495405418 0.5788766776746676 0.827035441036924 0.07556086525545051
P 7.244426155298975 4.562023100280364 5.773721252881294 -1.017028908912358 0.06092177518603702 -0.5474151167312766
Ni 4.50625922623794 3.4805328460634826 9.111870278264368 -2.2758641566063833 -2.4645733584527556 0.1281581797361922
Ni 1.2380458355809603 1.1340585443245697 0.541525335466776 1.34813994489813 -0.6917941292017054 0.2771983451277162
Ni 7.7150926873474 0.30924469304337826 3.6184989121113067 -0.9547236231152333 3.4856980347010427 -0.011239834579877418
Ni 6.583799911574532 3.647095650802131 9.45430793145324 3.0722417635481345 -1.2516186753409284 1.2464651561644469
Ni 9.34446674155617 6.439036221805886 5.255552645957387 0.1123708349949484 0.10030593341061435 -0.09109804165910118
Ni 2.917194379907692 8.24314891684364 4.820134712842885 0.11591972868847132 -0.2915867526389043 -0.586515425166848
Ni 8.542720895006202 3.3085039109101526 4.232274344703693 -0.8274609586101169 0.30184699691433176 0.10128192417063847
Ni 4.592063458029425 8.37989561533742 9.387980877182102 1.5094159902342135 -0.9433750308716333 0.8535049480823623
Ni 0.8197289484236365 3.242340373360822 8.719667478770209 -1.671991728218327 0.3907606293276044 1.7287984527947258
Ni 2.450564374934725 3.7615666998795003 10.28887578878552 -1.108992126785232 -1.8432068870449936 -0.28954041163283684
Ni 6.530670992706365 8.248175888062612 13.545135639887794 -0.24852257445957845 2.2283949073808262 -0.2696472722533356
Ni 8.605875724874288 4.845140624322833 2.1429548491094135 1.644821595561438 -0.6995606605210016 1.0668761714517883
Ni 4.992352393012243 3.641601488949426 11.508125610790113 3.3372132275923554 -2.0101393593359056 -0.18386755748335432
Ni 2.854104956728327 2.5838351751135282 1.7108334131065341 -0.8164268122831424 0.4380280469550004 -0.43648461372728053
Ni 3.9622250770680156 2.310117526621776 3.9410800289852403 -0.3990843187019514 -1.616398821444371 0.6598042065586701
Ni 7.0335923661077455 6.512945780062517 1.0295479995583976 -0.11131462581629217 -1.6474217521884467 1.0000118055290714
Ni 5.4590291170485825 6.149471467017895 12.557126493955906 1.0614354600521914 0.042045764217140486 -0.6315999762103122
Ni 7.0372271092381915 1.1128574333657457 7.879273754235275 1.4705681641290802 0.9453293263845267 0.5750310786763322
Ni 2.4722887394033304 9.326507933595456 12.229253975964307 -0.4094399509046626 -0.3783725400758967 0.04391058534002115
Ni 5.617752462953184 9.24130170581515 6.439996765748842 3.4158285634034136 -1.2774546625674257 0.2218386374104889
Ni 9.267754039497138 6.362230081620107 7.6311432023718355 -1.0054082939542943 1.9091376854098472 0.21109245463757836
Ni 3.9752783833745284 1.6208711846748216 11.009758411686366 -0.759433425617234 -0.13415450652894315 -2.7913299741245736
Ni 5.062505738573657 8.99212090940708 11.99857392865208 -0.7542876197502365 -1.646866908126241 -1.8818986471882364
Ni 2.298185477836224 7.3934786550852944 1.6167580383354323 -0.3064009348336013 0.8185526003768935 -0.43562766504362394
Ni 7.454577846164955 2.6575485133039916 12.202928718134695 0.03919132548748089 1.2739433069800574 -0.7420437693858769
P 1.8274161638483786 1.3123198025319036 10.48886795213033 -0.5128859726061554 -0.03304536049074309 -0.574746714666694
Ni 3.4449142321476445 4.985279126817518 11.659814934513227 -2.044208533105473 2.7193653108608133 1.8514213045349854
P 7.567507166151004 2.302754602234137 2.4433126419179145 -0.17369935870110084 0.2654268064140848 -0.17322190484405006
Ni 1.2344391238885382 4.6750925774565335 6.989688593493278 0.8058017284691283 1.193889696060576 1.7978294873514586
P 6.417722985094965 1.6487064026326603 10.58913734032347 -1.3926110307273112 -0.14904633603911108 -0.9127313378438474
P 2.975396989058205 6.851920616274158 8.557542985052029 -0.6602909163871016 -0.9124611149015963 -0.30222160664493114
P 8.582301285496099 0.7737405712014509 13.477769553647233 0.8759797321461107 0.6279554374791895 -3.124326914279148
Ni 6.731394776583603 1.6531260260277787 0.34472221538782877 -0.893687690948835 -1.3328467661844852 2.106620262573475
Ni 6.764135496195642 5.215454608245313 3.4532152753278207 0.026078442254606697 -0.3844442001912734 0.9143750440948576
Ni 8.485667574814673 3.258664014103468 7.234468454131581 -1.1121892935662911 -1.5958312817056646 -1.1266121538598406
Ni 2.7042862643026857 2.2039998460755608 8.491790575260383 0.785100491366035 -0.8084831319560334 -0.6462660628629192
Ni 2.979545641885758 3.519300324850684 6.145177985093885 2.1841796463161933 -0.5288545801202699 -0.8266590315341118
Ni 1.1027007089883805 2.338018151268338 6.5417574264448595 0.7435221537036163 -0.9812075283383747 -0.2532181801630349
Ni 3.97494200611824 1.1554371877242122 5.984530748159568 -1.5179937046008953 1.4359341189949786 0.7545539860377456
Ni 8.150000448289864 9.048464099835332 1.4655331021022526 -0.4630708488562412 -1.0949482470976564 1.6462025350693648
Ni 7.901071934824009 6.315146609552451 9.810242722050672 0.0012981499861332482 -0.20808683504203515 0.450024042974612
Ni 5.9697992930966866 6.824646027076799 7.884333428798608 0.07464786652287789 1.2856456830186505 -0.031584202564184316
Ni 4.615105300085159 1.461503115695668 13.039493348235549 -0.5458117767998987 1.779219585559755 3.812264645849241
Ni 7.916218255169649 8.257314136858438 5.392541349199441 0.24820941409453381 -0.1450140749512664 -0.7973086033964527
Ni 6.027730931679634 3.12059983802256 7.156558809668923 -0.8814212148766563 0.2985248745196343 -0.7436136849761581
Ni 3.134026896836059 5.8796034693481065 5.604403892166152 -0.24331917588176805 0.6009526836381005 -0.3829331628633857
Ni 5.983730917794618 6.603375199127963 5.333777176907181 -0.2752034261848744 0.6349822624189838 0.4327547143712031
Ni 1.6391383384537992 7.779789246306807 6.712182963343216 -1.400538513104504 -0.19303199759144174 0.04379745680092457
Ni 2.528248833511922 9.237452054993186 8.502074375490123 -0.2513446172894058 1.0641130068843543 1.328909378803292
Ni 0.5495853082799453 2.5817421610744025 11.97267194553663 0.20038046753671296 -0.9267497636101265 0.2447523087838688
Ni 1.3592070545333925 6.212803829326802 3.2833513015712112 -0.10895255334201881 -0.30993183080499526 1.6423433092242745
Ni 1.9726657318761072 4.989586624460541 1.416178149173384 0.4997440359075588 -0.92098226499873 -0.8214399492270176
Ni 3.0236764691482194 0.029878709789788876 2.7013168006346753 -0.1867857595714138 1.3413494043388576 -0.5838065108761171
Ni 0.7536756678638667 8.891628204091013 3.237031218999075 -0.4137519480164552 -1.5258497103102042 0.396416284951485
Ni 5.04832183093351 9.14192091420737 4.137420630336791 0.6082186211718944 0.20539386159090436 0.6683940051102102
Ni 0.9967885923210081 1.7795197800780256 2.9382198271882323 -0.3191006417884569 0.7675118317499943 0.5816187591961789
Ni 8.568752757117828 1.5975396844261733 10.320453203719563 -0.8906332203932275 1.2170219112026652 -2.3795963420897275
P 1.2146208972055652 4.862239801517478 12.39995328657403 1.273732219410516 -1.363138475189491 -0.7184004189353241
Ni 5.136620860709131 5.406871954698581 9.834052625508262 0.579803303253995 3.302230540869583 0.7750870729940909
P 3.6370697398022114 8.970760953632785 0.4260526296706822 -0.537338706331881 -0.22063998911669744 -0.1659027454748175
Ni 1.0645779532757313 5.645410148470205 9.49072637573403 0.8465398296184389 0.1604016131509302 0.17054898599757723
P 0.8258771771635686 4.46519316953277 5.063451332416333 1.412749196238083 -0.4778014701981964 -3.011698711857755
P 1.9847659692898034 0.7141653559690291 5.4308603249782585 -1.4690373293068508 -0.23789491954240316 -0.7818228490560276
P 7.701992661977513 8.514016702469618 7.3165491765722095 -0.1428008693500315 -0.42818020762664327 2.902601662518072
Ni 5.142703682760341 8.74256636049202 1.9137931713568206 1.8890573697202049 0.6287259970966269 -1.5530542957494542
