# total energy = -340870.6505154321 ev
CRYSTAL
PRIMVEC
9.23130736784297 0.00000000000000 0.00000000000000
0.00000000000000 9.23130736784297 0.00000000000000
0.00000000000000 0.00000000000000 13.51095144768592
PRIMCOORD
 96 1
Ni 4.099199013262188 4.471996134674404 5.686368172208875 0.329252128400162 -0.2315072708485045 1.0562428601076583
Ni 5.758674234334604 7.5442306530161725 12.6440886273939 0.8011336335694976 -0.7411806500546333 0.8262738802805513
Ni 4.2163535365348315 8.11993191291493 6.2071874628569415 0.7046162206670381 1.2290778139259348 -0.9034457987768635
Ni 6.965224585038335 5.060685844202395 0.09332297987333243 -2.5660306318589936 -1.320801662094493 -1.7768292309507077
Ni 4.110618140619233 6.01880324791114 11.497441154081116 0.812459342994962 0.6207542917450599 -0.5991138306571488
Ni 1.1909771349791267 3.3321235179237343 6.147077804178364 -0.8065645747770819 0.7168706125543589 -2.113434200171515
Ni 0.1707487251293913 5.426264083162543 9.918673408075131 -2.759426697658073 -1.1233627936846073 -0.0475990899352019
Ni 8.66096961321328 4.035189127171848 11.845334977295192 0.2809765812232258 -0.8289501415611336 -0.00543736896548741
Ni 0.8228722871607556 3.0951189295932764 13.42914301718715 0.48095878488025556 0.17880994045478882 1.5481373180638112
Ni 8.791786471561451 1.0483626656670892 5.968206451594273 0.8859556124118999 -0.5648777922924143 -0.2977671704180033
Ni 3.551754785570314 5.172781610974101 3.2999957984890345 -0.8700296852102628 -0.6642270182167141 1.033258483397343
Ni 1.0399529445496534 8.676062800948745 12.281428404729276 1.440517881710919 0.4584210087890557 -0.08194799972871693
Ni 0.9379100716274407 6.194853512928285 11.93870965249043 0.18240022890920846 -0.5026894916891278 0.06442233214012776
Ni 3.0597445593166417 2.6572133965001874 4.711214390539397 -0.8183481976755712 -1.1246907684674115 -1.6171213014326924
Ni 8.387732143010226 1.006627924534348 11.559051823356507 2.3839299364680753 0.4982828779809999 -0.8070237738016877
Ni 6.045001698549211 1.3500417942266973 2.4657625412083792 2.037902388381787 0.1257410856542673 0.20058101358329328
Ni 0.6350751833709027 7.829394972487863 9.836404918913248 -0.9180977443620834 1.0624633870960734 0.9384750224668547
Ni 8.38617205204552 1.0035262052199039 2.5571229451107276 -0.49737270746190465 1.19518116117849 -2.7309419599548193
Ni 3.4564599984185134 6.056845466050496 7.4372924177354784 -0.5498507227559627 -0.29295869328576646 -0.7050024003618632
Ni 5.858981621449924 5.718074944022328 3.8593493359653257 -0.839321971713761 0.14560568578867827 0.06418579064928945
Ni 3.1144954440010677 8.104386391112778 10.361237982055124 0.40251699853258416 0.1638440631735759 1.5249215420689803
Ni 4.083071919088576 4.144635508695798 9.577670755897463 -0.5138110555235861 0.6682968174107136 0.8186929826094999
Ni 1.1639478666675438 1.6216730169276299 7.588750479616675 1.0830936617519153 -2.3377431534993676 1.1725863065971096
Ni 7.695762565357237 6.133022215404042 2.0151316507493355 -1.382996904676315 -1.0484958691723878 -1.773804842302087
P 4.8007599193904955 0.38398731234367134 0.8323989964836905 0.4350237129110379 0.14305540856299878 -0.09427618227676667
P 4.639128956662522 0.6306801578780254 4.597492990519854 -1.1466999257486508 0.20442841235384146 -1.8498112797353883
P 6.523875774253914 8.33450442406057 6.804898929188522 0.03807212428137314 -1.189462770637474 -1.5163091178096209
P 1.7020130859562186 7.364312470163457 2.6295693231102057 -0.03171172928098409 -0.25930938066243725 0.14226685122343238
P 5.63749486099917 0.9073729064721414 10.012209631151332 -2.2276806549226214 2.0002431832681165 0.6707879592636835
P 6.796596291237895 3.7894147967320984 1.9575882955511617 -1.6200515877056099 -0.6438456263468846 1.5027576043774313
P 5.631014483145777 6.598760140559775 0.9780690285727548 -0.29898690175771736 -0.43776785131507834 1.1285872753083404
P 3.906818565306795 6.499708211262204 5.0352212825092595 0.05860701100993133 -1.3178011847052722 -0.8399189818678116
Ni 0.6159543761804035 2.3483153854885104 9.651521215765177 -0.6855782301989806 1.119729053586762 1.363764024588632
Ni 2.9580063195413833 1.654988805635452 0.14673440184190764 0.024010761092300582 1.1301674753112665 0.2919503066259101
Ni 2.31111321633015 8.629398541619834 0.9477977250729792 1.0367760096322984 -0.0005939248302570416 -0.4722957098886189
Ni 8.304031878057657 7.677170712085539 12.61852621384144 -2.2188247471938882 -0.6933226500310898 -1.325256612542053
Ni 1.647289895194243 1.8657026302530049 2.1390130277851793 -1.2500413035514795 0.6007271978908558 0.06872430194959131
Ni 8.419995562664932 2.963129695194706 7.564660459607827 -0.5815673371329533 0.9881693043681885 0.3207960272130088
Ni 9.120153310055755 6.537307326642354 3.6128955812947936 3.1877462590760586 1.3422667739468044 -1.818744383127255
Ni 3.925853521337698 9.211967894286289 12.363777206266267 0.0059688159889252045 -2.0364671985971574 0.8239177213435487
Ni 7.708040204310244 2.564706464208393 0.3762422453650449 0.09066172545263096 -0.432490662076539 -0.5701876345411018
Ni 8.062660881287519 4.868425403244289 4.478421124682895 -0.7534265573015219 -1.0407830739091624 0.8447991927782482
Ni 6.766345296614583 1.235850520656246 7.084021357912286 -0.7565787297772584 0.15152462237627454 -0.5444295517403914
Ni 6.485445841200252 2.6788331186264607 11.44250564324702 0.3821672312316386 0.12218267887904763 -0.9412806102364499
Ni 5.394157595735055 3.3521092986254346 3.9801908434468647 0.5143640998135787 -0.8315587828285744 -1.2164069033264857
Ni 2.8625730627773307 4.404746059657367 12.946545032043616 0.5370206608708299 -0.3621722761669504 0.5743643916266109
Ni 7.516629043640616 1.234835076833065 9.381302383109215 1.464674938573097 1.0965898964661371 -0.7438543402320544
Ni 7.805476654798207 2.5043891011114385 4.40554272149319 -0.518429528132204 0.3906701264963272 -0.24299598821439441
Ni 0.3113147673108482 9.117208522968529 3.939347846617026 1.0795943903494052 -2.657866323015068 1.1599830160108024
Ni 9.220488391093527 7.844728174217898 1.1444384214319907 0.7567180835685999 0.4305209399446779 1.4778531278262677
Ni 6.8523072319006015 6.825351814048886 8.617177213642474 -0.8450527035499511 0.8980341408429889 -0.44713900811733315
Ni 2.6619952137766223 9.122876545763376 3.3343141071895612 0.8105873227832298 0.8792635451037051 0.7379978814512774
Ni 6.491196945762451 5.5286854396915786 6.449412355569298 0.3143356162996458 0.3944673887552303 -0.9554882691953996
Ni 8.907150121182303 3.8469350736615633 2.047828018725017 -0.5075833294463193 -0.4865293369894975 0.361043561879146
Ni 6.869975954423952 8.422155688616064 1.1994837848251392 -0.5562514840759839 0.10922894693185704 0.959889997807521
Ni 8.394037126021432 7.480876189757159 5.573889306176605 -0.8024356402103728 0.026534041734786563 1.2820116858104889
P 2.65852424216284 7.180166348483314 12.63556351493292 1.1138353138101462 0.783812882902863 1.0706500366719238
P 4.532248878618974 6.480682486538785 9.170031910650408 0.6807975209808855 0.4153905120611427 1.0349512977187336
P 7.930367013741995 3.6088134971256056 9.76510783869546 0.3917918988055962 -0.9377283741088173 0.5572313314907501
P 2.8891776909446745 3.020188406749998 7.3690213601107715 1.968226521152204 -0.13320499813148026 0.30171355666026106
P 3.1005007818561356 3.806400402501672 1.6168828914744606 -0.6718210285138881 -0.2352798505170593 -0.29717530247027535
P 8.966128944694155 5.471783660363505 13.539324210786782 1.5904144815654675 0.46911422683684373 0.9279952059814534
P 7.672324275656721 7.38169502215482 10.49945465648204 1.277466746752284 0.34714932039555696 0.6000067747850635
P 1.6738760607466197 0.4874979631557548 10.037664038406236 -0.3472087128785827 -0.016551219490461816 -0.41270345214728277
Ni 2.2681507113021078 0.36835593938192146 5.842473274277246 -0.19570388799665006 0.26540186671342036 -1.1890418810499714
Ni 1.3197446430659683 5.39824706495023 1.6492820113491746 -0.01694999759077726 0.24499964890798448 -0.2632722219649272
Ni 2.7648873669873133 8.355477954663002 8.123027170314137 -1.0606003657454057 0.1258902096376219 -0.06266729712223401
Ni 3.9820167960670942 1.9028494115664645 2.2697181873128 -1.773628721735539 0.09963127594109293 1.8713720366252997
Ni 0.7802541099018466 6.53276552336049 7.937630206469984 -0.5880704283587936 -1.4863028012555177 -1.4836427379248514
Ni 8.358588905284929 8.634069583206466 7.80018342308719 0.9478947731188578 0.5404985921171015 1.1334903690369122
Ni 4.047503691354789 1.932934242655074 11.372424326224808 0.7277864881359144 1.9647640165249 -0.38061017115716383
Ni 1.3197446430659683 5.985496690510802 5.2435054269971655 1.4250303275982814 -0.031099035397649664 1.443690880122262
Ni 1.254682387922513 4.070074238151858 3.772298106396259 0.22446167685563279 -0.23748405725722974 0.053981082202145744
Ni 5.1691444758256155 2.6852765712499185 8.156940224616138 0.9133473741612916 0.2180416322619019 0.09614280317186023
Ni 3.4982593587036392 1.3191723020019934 9.103544341631506 -0.6094980021049503 0.13658599878857122 -0.3392532054769319
Ni 6.526728248266304 4.54252332384807 8.55687739002974 -0.6950694575188675 -0.32907497939234936 0.07492271745081935
Ni 5.491021705159044 8.176058262414394 10.595166698732093 0.4558265085890021 -1.2568529271566742 -1.541922961722983
Ni 2.3707751565957786 5.990380052169554 9.75369148073066 0.8265549018560798 -0.3269764449921079 -0.14035600735396475
Ni 1.6153126460715233 1.6557734667715465 11.82459592190284 0.5060861760755027 1.1715995172038078 -0.820243100705439
Ni 6.917332561814122 5.389855806447761 10.922293772631367 -1.2340179315400297 -0.2175713774937027 0.1385616344577033
Ni 6.670736645008344 0.6168064258611271 12.749960646660256 -2.665964269531854 -0.40735144380675004 1.0770294578357065
Ni 6.799199519948232 0.22931675545822955 4.541327869528962 0.4067585474177575 -0.8815893650234042 0.2925612007370316
Ni 3.4849847385424177 6.152712594266271 1.238520214780464 0.7418946454025223 1.4609746069033742 -1.0996919324302286
Ni 4.986456900727861 8.21192189198765 3.0396941594625573 0.3104823039918266 -0.34801449660932965 0.03805695477272155
Ni 1.5694515104936733 4.2571743782267095 8.425672816767262 0.06580455719963506 -0.21596032425284098 -0.5700811908702246
Ni 5.027010034502719 8.854836301673512 8.21051042507343 1.063612413098852 0.4945056703267548 1.4003693345164916
Ni 4.215301167481717 1.59697003810188 6.417742508985778 0.9371012820477796 -1.0266826299520384 0.7218122728303504
Ni 5.274455231596976 2.69010454506377 0.44551951550544994 0.2580058313596653 0.9943368666314811 -1.222949846651326
P 2.1295241668229266 4.059892105997598 10.956936100224562 -0.8750621054278479 -0.2681647741705382 -1.2149066646318754
P 1.0828508304253113 8.233098511354717 6.866049879351234 -1.148281668413474 1.165967001508379 -1.8658441648285349
P 5.139770455413234 4.223950902593722 12.021504326178874 -0.09541723785974535 -0.6434915854415756 0.8393893346165865
P 9.007577515294908 4.982764377734475 6.471354250326744 -0.38948124839454856 0.5309945092814081 0.8677573442363183
P 7.161057541992543 7.3799041485030275 3.610626525915358 -0.7362446462055965 1.9095387775030082 0.9596354585945536
P 8.876086771500447 0.7331725954746828 0.24240305694678832 0.21432535975257927 -0.7791370746937485 0.35079025958225396
P 6.1892593405933045 3.4123158860325877 6.050636488637117 0.22305502631609325 -0.6308672118093457 0.5062098461375605
P 0.7362724685276301 1.9223182390490905 4.152050094866516 0.5931684117069913 1.1504917886909152 0.6246320295329114
