# total energy = -340872.38207143545 ev
CRYSTAL
PRIMVEC
9.20856070857495 0.00000000000000 0.00000000000000

0.00000000000000 9.20856070857495 0.00000000000000

0.00000000000000 0.00000000000000 13.47765941257701

PRIMCOORD
 96 1
Ni 7.818758762247534 0.7168192358766966 12.041156462980515 2.1179454577783074 -1.677014635354215 1.9792562966038045
Ni -0.1638295052134922 0.704581979428031 8.661821841571696 1.8246229533952187 0.6856527921906579 2.0342125982350256
Ni 2.143053103889874 -0.0494223458198422 2.900001406025879 -0.7582939126961521 0.11364173128757202 -0.35664054771544385
Ni 6.344311632447706 6.085247191428586 6.013664444040745 1.408602263949245 -0.3239708253965647 2.011074726665982
Ni 2.774861669018474 3.6611303947656126 11.067301432029195 1.1072401770911318 -1.0283952417677706 2.306256395744996
Ni 7.992321716227855 3.0754290935684367 9.53667103106931 -0.11127683059982127 -0.007169264054929588 -0.7719991780973865
Ni 5.640261907833983 0.7918745315426562 13.496663424924511 -0.10594307709173367 -0.8654605777823416 -0.7018376294806364
Ni 7.864368763895695 8.372533983147077 9.875324142236805 0.9007188867640036 -0.09314541110643314 -0.4391714165308243
Ni 1.384810998961306 2.6840376338366023 9.515726159527066 -0.1629428915155452 -1.2485595767996303 -1.3765964004666098
Ni 5.893036901825909 5.615582964886865 1.0629524609829744 -0.993713374114869 1.1787083603344475 0.34932961587632744
Ni 5.511682773367343 0.37791841442365226 6.686429004188597 -0.214574756759224 -0.0033694306928651646 0.6384581367827262
Ni 7.5136699343442 6.455412918513739 2.6991304649897088 0.772317994889386 -0.8567802763995244 1.0336953138244456
Ni 6.1954092042929005 1.7790479039806995 4.90431833288543 0.3677633971014828 1.152192573432106 -0.05322697764494059
Ni 5.943904991691534 8.064995678070634 5.040941145211887 0.20204397128206494 1.711773378991639 0.05003855261462995
Ni 4.159350368351739 4.243396902783955 2.0425665258593426 -0.32613312315520604 -1.5569356330817314 -0.1691726744753409
Ni 0.04613765218206733 1.0619220230293243 3.562954244640092 1.0799075507144498 -0.05159946934384661 0.5903396840089445
Ni 2.787689194214494 2.1664336397640276 3.309466508042156 -1.0122026911683084 1.385840287662381 1.142443464465142
Ni 0.8247279139129657 6.078966952962193 4.158127471477345 -0.43086983864366435 -0.42350799896195457 -1.2344804729987449
Ni 7.021803867710877 7.250295886870135 11.722935306518645 0.5552780644191211 -0.5114842071626223 0.7022677750395196
Ni 2.6199092164173026 1.390511098097226 12.475420219234325 -1.3549852499547375 1.1973969378828861 1.1550891782536106
Ni 4.24843398554219 8.912256940264045 8.757311854511515 -0.08896222626302099 -0.2243513765300136 -0.11203453470145221
Ni 1.21224256954751 8.626948100961611 4.978863474283006 -1.3379324082375088 -0.27202528556720895 0.25843109182254204
Ni 7.173846415098879 6.392398736951381 8.584958905420468 1.2050567684209892 0.3719738356384045 0.7681386667007158
Ni 7.778149009114405 4.884671868416149 12.499019918855547 0.26400601480715824 0.793424437850698 -0.27296605221392345
P 8.041477013784464 0.6724100305570075 5.3747827833607715 0.37083509404827103 -1.5229315082221448 -0.4918124397653078
P 0.008331905812892346 2.2255526001074943 11.5852885022311 0.270551786345476 1.0536799844764886 0.07711278312360267
P 4.550576073989152 1.9419013017492683 11.823478977626142 1.701242140443012 2.1955655195556316 0.4518567253079766
P 3.6657070494837902 6.163068738759215 2.631459514230202 -1.1397412350426308 0.5870193613864599 -0.5222334752593264
P 5.6032434934133075 7.626124878848004 7.626374430845715 -0.12036233784085722 -0.8926170835924757 -0.4020513717500754
P 2.3229239220189926 0.04181883716632185 0.7559878492444436 -0.7828065531255357 0.7077599085023424 -0.1855428883032482
P 0.878015092701056 3.4134477348967294 3.5372927482554912 -0.9066195685191546 -0.7538039952455986 -0.10639147748306194
P 2.057689745263093 0.32589925445788215 9.025449490488024 0.13586711834467569 1.3058126448848284 0.23610671729372884
Ni 8.002119624920292 8.33771641475788 7.419626586306242 -0.5896123189246169 -0.31011797867387236 -2.0632177272181242
Ni 3.594856382679642 6.133048830547424 0.1721531233216635 0.6933313917818381 -0.1366939851213452 0.09125873560668153
Ni 2.4744784156845343 7.644274952187096 10.101371288503355 -0.6920736081153371 -0.4254682080121189 0.0738834775530276
Ni 7.2041702058171095 4.280884953805489 7.524523144104451 0.17858419759722793 -0.1274218157907999 -0.9763612559896669
Ni 5.253622065475549 6.11964116602093 3.9993737249774535 -0.10691726807954491 -0.022761462066231766 -0.8214728593474819
Ni 8.27326569771054 7.232477321719885 4.9628921464294695 -1.0198753772222178 1.8140983997148112 -0.2509396685415033
Ni 5.39693489722405 5.3949550566518 12.223415060925378 -0.3930748792830779 0.13158520313987015 -0.5196191775649309
Ni 8.025039732754388 2.8700597705808972 2.784673390552113 1.2377941107530104 1.1563094238139568 -0.1671024222098735
Ni 1.399664407533582 2.169168582321973 1.4301281683759897 -0.8424947130147877 -2.0347059929316766 0.5484343020244103
Ni 4.469034268094853 2.033020010876777 9.619328914532712 -0.2491316687984871 0.014247768168265784 -0.0091757529619971
Ni 1.3727385757509813 8.433568324137186 7.277720822648159 -0.1275475427353868 -1.0356910040982357 0.9846926586734975
Ni 9.044556333294356 6.325130200298884 10.761991598666635 -0.16692295920921574 3.2556562926544705 -1.3241500097414356
Ni 1.9427576979037764 7.015551254926886 1.5871295257554194 -0.40317237272839596 0.23966692384116145 0.3752640763539021
Ni 0.4673961580163936 3.582903670759732 13.491137367587735 -1.6287002645195436 0.42136678424923557 -2.4966306439986163
Ni 4.008145799996641 0.08823642959674455 11.102478134289639 -2.994665153414236 -2.013725534025267 0.336324204755595
Ni 2.164665596090204 5.250205689418317 9.561617943135744 -0.8104883353115202 0.14597335354074215 -1.4496447837128517
Ni 3.789350395361007 2.754501541087102 5.287164248193785 1.2017338746953432 0.19145693979483802 0.7076755763186522
Ni 4.02143375323272 8.281949370546037 1.7396021129328374 1.8505389019300325 -1.2727012070428405 -0.8198278675448913
Ni 5.429744999358594 3.296296424384333 0.15709528469960163 -0.3776976254960592 -0.0473455791634991 -0.10695763439917708
Ni 3.724816801266456 1.5920957025954867 1.267673501290111 1.3353762174745583 1.006919331282182 -0.5773178178279799
Ni 6.3344584723904624 4.206277194194466 3.442019136494498 -0.8957751696054831 -0.2475409272725995 -1.635265833552203
Ni -0.06888371821702023 5.98465287323668 6.707346250048439 0.7037021934932011 -0.9856010294203799 -0.08024592943594568
Ni 1.952224098407372 3.9615781080251598 6.529050095816319 0.6625650571332589 0.4764542121416827 0.477488566943468
Ni 8.08467437250272 4.481410573811616 4.938969226324128 0.7719824659268383 -0.03021380457921893 0.33038495645302457
P 7.0536562795221 5.173037949904572 10.438797819372134 -0.1112557475538987 -0.10384531402244052 -0.18391589422278648
P 3.397903684264366 3.671287437329295 8.275835807030145 0.5290736381096114 0.5451404617644869 0.4206741290575852
P 8.934062812241201 7.906875480553863 12.548887038162084 1.0459317079896373 0.5354247771386198 -0.5097217159455608
P 2.786482872749542 3.604552997203266 0.033012690472169606 0.053262973089198584 -0.4371088775748408 0.2988999984708659
P 7.65285733085378 4.593810266950613 1.024613538943412 1.5158959415316022 -1.2620887216343166 2.4156645485671944
P 5.826403755868693 3.9753449064228987 5.447561722796684 -0.3928133980915751 -0.2635398738040171 1.6523184181591155
P 6.0123338070049765 8.019265965132059 2.931538885057703 -0.8520062520496487 0.027515431811449387 -0.7285591046358808
P 2.951445030941577 0.6353768824390501 5.293431594675058 0.5716243669876284 0.8001818111791897 -0.22240505143692021
Ni 0.9430302945255077 0.3462280732825297 11.039092847726993 -0.27787557370039884 -0.6312559626073322 -0.5403996046453919
Ni 4.921533737303205 7.074117701622283 10.42871628700702 -0.21481721178733323 -0.48679107529131654 -0.6838741030236802
Ni 0.8247463310345681 1.5766161118887316 6.660254590967371 1.5706941203184044 0.13102136021660016 -0.966186372339194
Ni 4.482801066492592 0.5662500582168792 3.5258234857776425 1.057018047710786 0.2169183172907361 0.5103773472516888
Ni 6.821351916191158 2.787486605876868 11.723407705687745 -0.8839835762871937 0.07388322044271146 -0.7278661923339141
Ni 9.02066932657614 6.567149595275052 0.7904619383157578 -0.9575490083791703 -0.6171732592620209 0.24334334425148416
Ni 9.217401019532188 0.11128821985029606 1.2044779110799693 0.3442725130683942 -0.627366654855255 -0.015649276501482724
Ni 1.3404257358997 5.891959500212174 12.630211522021476 -0.15302203285740745 -0.9565493634700621 0.027386619543068966
Ni 2.342584199329476 8.049074076445423 12.538468472471648 -0.38617249573628976 -0.487291926187135 -0.3763840488909582
Ni 3.156565722787484 6.797547786520152 7.958329234886442 0.09574839594691897 0.14949936441612963 -0.9222241078256311
Ni 5.139343825933115 5.385157147959362 8.20668135712557 -1.1853227803271715 0.1911563778352837 -0.5398115933524058
Ni 3.349991542415914 1.613017552735729 7.345472808742716 -1.4169431797147727 -0.9445459112512828 0.593187952091017
Ni 0.1445642751613789 4.26149172475824 10.909801891510423 1.8392962391366774 -2.126512887732344 0.5470119677555869
Ni 5.519896809601981 2.5936924438163915 7.489872250665755 -0.22553176999135996 0.7604590386682709 -0.17758815223254576
Ni 6.0927797941639374 0.16901024152022653 10.876120659524087 0.30001739990476073 0.6140216010069167 -1.4976958735838077
Ni 1.6170969451706443 4.452744324037596 1.74128635870337 0.9145712192660636 2.311435111732458 1.0841992361112682
Ni 2.539454020697541 4.557169403522785 4.242537744061206 1.1875208164197548 -0.07819598888545243 -1.0139399855743891
Ni 7.088464639350496 8.110753016691614 0.9831888281793799 -0.9617172808242471 0.16929428765486973 -1.1434780763772436
Ni 7.616363804398771 1.9826399747336136 0.7129884745834127 -0.015592969342250563 0.4394902333228237 -0.6778595213984842
Ni 5.1124824540761225 4.266197299327634 10.141911977430476 -0.23844770672207966 -0.5759780159706338 0.662763289186994
Ni 7.848474787952887 1.7820406862410774 7.178269286851678 -2.3981111130644632 1.1811876751128754 -0.40658165552026104
Ni 3.333766058284265 7.644228909383091 4.46062040609083 1.1077189164997632 0.24375703475013502 -0.39811449858951437
Ni 7.0857204882317495 0.6594305641077681 2.8227876237081273 -0.9213566176190131 0.13726425580251844 -0.41138576177712377
Ni 4.072780688260005 5.353829624113806 6.06967735682598 -0.3329920550585685 -0.6427099700805448 -0.10158531434367021
P 0.27150244409325164 7.752843884032809 2.835066318680398 -0.9244380847578143 0.3240387025200226 0.6412485550436698
P 3.1431948925041957 5.80927583277853 11.428650883003314 1.2211729572565615 0.6923983384446075 -0.1882721143089532
P 2.210119052204745 6.351135176001368 5.713166083696792 -0.47086283409683427 -0.07087065886863278 1.9718204091510492
P 9.650019205970828 6.8038740677905505 8.598194369859979 0.018522484284219713 0.6219501118253741 1.130260549245705
P 9.184471206107228 3.6650992844709136 7.15334907961157 -0.5386016322047047 -0.6922003635011886 0.30972511411082787
P 6.703988808780335 1.4323916326209156 9.161708564662833 -0.35511176977574327 -0.7274710137780246 -0.3619982124829314
P 5.2540180335899995 7.716470068868214 12.712330704678008 -1.348194452285149 0.5435643755266187 1.0582485776837773
P 5.613354493172984 2.4363089311637136 2.307846745419248 0.4162788282033669 -1.2691726250642916 0.012938562438539008
