# total energy = -340896.0678881342 ev
CRYSTAL
PRIMVEC
9.03291839271906 0.00000000000000 0.00000000000000

0.00000000000000 9.03291839271906 0.00000000000000

0.00000000000000 0.00000000000000 13.22058912913485

PRIMCOORD
 96 1
Ni 6.429857153515837 2.156365383709143 11.45184635214131 0.0006450897831666309 -0.048141078481600964 -0.2537133746318986
Ni 4.524968218588179 0.44118851129022796 6.0517111864546225 0.07789876936000778 0.08473121890080891 -0.7902815213463422
Ni 2.566369550741889 1.6044992329079635 4.750263656624396 0.4501996493205279 0.5045890227046858 1.001252362804392
Ni 3.4073252226207504 4.169640306744885 5.022634149000583 0.022544718069735365 0.8295155271463005 -0.9414469606109852
Ni 4.919336403837851 4.4964512951397895 2.8286511765360327 -0.08218916920524555 0.02395059727832649 -0.3824289695334575
Ni 7.204917685529004 5.858796051074546 2.586475923850463 -0.5989927316982522 0.9076991747365788 -1.2850486728645998
Ni 5.010496616521139 4.664020964728343 11.26079561112289 0.0016323933971004146 -0.06293032097563354 0.06426986572266352
Ni 5.663450157347952 7.786556335438797 12.344778339894223 -0.697631818929405 0.45500426979802283 0.06092023252414024
Ni 2.040174954087152 6.287317700865986 0.4309406653440141 -0.9127835312380216 1.0848204146350349 0.18564367554717062
Ni 2.779980005511449 1.4306426520998725 0.4384352777561548 0.11657356022238632 0.1531629293106459 -0.09637883044206627
Ni 0.4877215905250636 0.16274970432024197 4.560587725789329 -0.9164771780395249 -0.5115330581226867 0.21038180172379897
Ni 8.661240924693738 2.37843968303719 1.2354602541966593 0.06530807717919075 -0.18118281156233956 1.3355227703547514
Ni 6.801634009799901 0.5541659318306257 4.722487432486354 -0.02868759774267963 0.524040189450762 0.38806714165584133
Ni 0.7061953685713467 7.507312695437689 2.512401476356477 0.5327364316731792 -0.5505256373358003 -0.05343729388353378
Ni 7.408402238751005 3.8982101411761043 3.828986370873054 0.7217361681767763 -1.1576237717500064 -0.009261113586951792
Ni 7.868259082537523 3.880063008072584 12.709917807724098 -0.7833089466832509 0.5005950710539443 -0.7812199253647062
Ni 7.789049420922406 8.936419751406353 6.994670186286791 0.18559585302837067 -0.19848505028621302 -0.24458467285775295
Ni 6.93712778608303 0.6549669783423797 0.13984222320997447 -0.3813586192874142 -0.49960931010190734 0.9844671729262529
Ni 1.7693499940524358 6.660268836544505 9.17846041360748 0.5494110641153828 0.056678940749283035 -0.06871915974326875
Ni 0.09198040167572236 4.790003077916396 1.4090503639113932 0.49265447605062906 0.4264058893350398 0.14360613886014623
Ni 6.401791875988391 1.975743147005315 7.042290828899259 -0.09954848641929953 -0.20918623875380105 0.1802253327450767
Ni 3.3878954151017497 4.211977595374153 0.47983494945354366 0.24515545775955844 0.44120747312424663 0.039059942115939175
Ni 5.970081605995089 5.54653709425245 4.803185719056902 -0.33403643716268283 0.3897303882908772 1.0055113951910617
Ni 5.248766938574229 3.0005638733003814 9.22273616652944 0.5282603981796967 -0.5420960185112084 0.15174445169656445
P 0.38892133544309043 5.558270855278568 12.351097769620067 -0.7573647160136635 -0.006743232261104515 0.1982863040118456
P 3.829225743211154 6.045479376037441 12.538921952179265 1.5699685550062896 0.6692900345619184 -0.0565778963950445
P 2.4046803110440225 8.459472625971323 1.3221518821381302 0.3877593806074354 -0.6833133454242039 1.0359689403499706
P 6.210772750184438 7.686679356481294 5.817151587288007 0.5315691508379554 0.6571479998827456 0.53211808136289
P 4.782957401549672 1.017124679802185 12.520281621730074 0.5718498527348732 -1.4589920292557066 0.5430275291865422
P 3.77208350129335 6.244709424684152 8.09709542459394 0.731642628657211 0.4854967819599251 1.074983373939955
P 4.597619981431192 0.8767449979462872 3.6797661717606034 1.292942988011012 0.8082543037746789 0.6566042115641337
P 0.10342962577164666 5.650397590232678 3.64621249300185 0.07819830287829757 -1.307471263534174 -1.1834535883289166
Ni 1.5908595260954619 1.115339601770615 2.6228198711088075 -1.6116988448655405 0.3925460033628013 -1.1144598347680228
Ni 1.757092323758022 6.334921180933459 4.766260051852383 0.9382060850761842 1.2221348069491984 0.5262539092726292
Ni 5.8671153689383315 5.529546174706546 9.090913368291744 0.64958664259572 0.7766256211258044 1.0056420072316554
Ni 8.810266012768341 2.3222820292270434 10.37209464235738 -0.48105134459406185 0.6361662554247559 -0.6144031527160515
Ni 2.306510553667687 5.301329490853664 6.872511707465448 -1.3156005775095279 -0.5635868413951325 0.7668271469781438
Ni 0.5934907421671989 9.253953932585071 9.123964816786406 -0.21789199405791507 -0.6723722730316678 -0.014632405201194154
Ni 1.606712297920588 1.0520459424095563 11.367379532006408 -0.49116734998214123 0.3608741261808172 1.3326361928355757
Ni 4.162323642825596 6.818128118832767 1.7412576177697339 0.020026322523255834 0.40889693391699905 -0.43885928460704415
Ni 5.410564573293122 7.870273423344932 8.010711819170552 1.34279770674961 -0.03208762456316409 0.5497620196968984
Ni 5.292106881147992 2.79322226391352 4.740294927857326 -0.240367806562928 -0.8536651278093105 -0.1022859399551206
Ni 0.5683394841216828 7.404003207481013 6.8375172782188836 -0.8332482547158553 -0.6715556906676434 0.7216099270115572
Ni 5.039546482156242 4.65537646180148 7.098570427108061 -0.2633192731527788 -0.33112054906746846 -0.7775586744630351
Ni 8.317547411773957 7.285039671904427 9.295965132859418 -0.6442546888598453 -0.5507485519798837 -0.47192007171675493
Ni 4.725842258387125 0.4658763806208558 10.369846348962922 -0.03827524143111473 -0.8076698920261187 -0.15282534346556906
Ni 8.014836249720611 7.166735539372419 4.620476878198313 0.3849921022749434 0.6470481924445824 0.6189002692554567
Ni 7.225675332055579 6.174306858527438 7.073438138191224 0.26097519840063443 -0.2333525515873594 -0.2606926341632091
Ni 2.329228343491158 5.2899570465643 2.6649403696960223 0.4750056526206142 -0.34795767522946525 -0.1643557127026718
Ni 2.250777447023227 5.174028571576456 11.267485390503909 0.2570398679019702 0.3636540029187995 0.18779466045190238
Ni 0.997505180996388 3.50530528871029 3.676236107242507 -0.2598320859351267 -0.08277203829190906 0.15551240337942895
Ni 3.52056188791977 2.5584657471253727 2.7056463132588418 0.5722648287851048 0.4813508781123516 -0.009085507241035965
Ni 1.3819190901484597 3.1918449537384825 8.324859559234035 -1.870587078830159 1.5163060324858273 -0.33635145844910463
Ni 3.5148801822342977 2.797142550507312 7.152431009764288 0.5500124451448076 -0.3797370245235912 -0.10824318597982004
Ni 4.131412995996205 6.944010869918213 6.022229547319097 -0.5423724121010466 0.11524969920464023 -0.4778549491439512
Ni 0.937788557329204 7.616620041224498 11.54199758783721 0.6769964020672404 -1.553477499329802 -0.07752955894604711
P 0.21424817880993322 5.540801191056464 7.94836390636795 -0.02360118435870774 0.11781437460802292 0.4453217524029363
P 8.501701519579566 1.8061952682830276 8.056005581998319 0.22077908579772296 -0.6036744534446378 -0.25721264603440863
P 1.9537299248185163 3.1198345281032096 10.403797476132107 0.1217579326368032 0.32693736422405634 0.6397981957503884
P 4.01935061009164 6.265412873700214 3.934050954878517 -1.119491226544343 -0.9815176033796258 -0.9481009755923929
P 6.969935345780385 4.014707690024338 10.489902867668192 0.023090306160560233 0.45660169619212976 -0.7807671540980037
P 6.348082143069759 7.731943310678277 10.280965141596717 0.37853143425126423 -0.02436865865235158 -1.2433307243005232
P 2.0225426973335074 8.437477469621363 5.842707520078688 2.4277878141932896 0.528702885033754 -0.6793440763638107
P 6.534133163743332 3.878563543615051 1.4761450753431142 1.9250276171672267 0.39010345535957974 0.3297956596084578
Ni 5.019412107000568 2.6051840011877956 0.6967117075233695 0.4501459132644571 0.051299935825556815 -0.25875993591687046
Ni 1.5922957601240628 1.2088845049164865 7.030682625439162 -1.0656322717423583 -0.4197562452290062 -0.7640930358764324
Ni 6.984848694089948 0.6235703605020533 9.231223496675815 -0.6080669260853786 0.18717528170034864 0.18899073764253257
Ni 2.6532391271762115 1.427408867305915 9.229967921015591 1.8360844170675992 0.13478596946535495 0.06782184473997997
Ni 6.423588308133136 1.8363110182915576 2.5412752000824113 0.37652443112356443 1.2883373709182007 0.5108195769954299
Ni 4.210496196753457 6.901267099960096 10.338540060306784 -0.4878791661491726 0.27019491722668953 0.028144323644699917
Ni 8.241264415726555 7.104498731466368 0.2752881250254824 0.3658299275241958 -0.3440390569013494 0.10479816485401305
Ni 7.677881293941309 3.8899992183333465 8.26715185662321 -0.06908348506122296 -0.18777023497187015 -0.46784795852991035
Ni 3.206442149903385 8.365999986172802 12.439530040940856 0.6437589801703494 -0.6856499639771805 0.10697023280466739
Ni 0.05407104965538693 4.849457746949432 10.08054094113503 0.22980700032794615 -0.05540573046381426 0.3413895350936443
Ni 8.60485744792312 2.2624299117835758 5.698999207785436 -0.26245872492469635 -0.07005356228397612 0.39440259695556595
Ni 3.8340673874836715 2.670184882130021 11.652350042285082 -1.241920474216558 0.5913665826115622 -0.8996511076211215
Ni 1.303441094925272 3.292291006556375 12.572040244270228 -0.7378721545066905 -0.17577963826889728 -0.02084701865233829
Ni 3.1561468601470883 8.52060741783027 7.87296703961744 -1.2644873037734803 -0.8204505887305548 0.31949119235865625
Ni 5.815275450132406 7.680573103630135 3.56407255265165 -1.271636513223752 0.5177831527974567 -0.6098726118355497
Ni 2.957666543729143 8.54173541401202 3.69465242131491 0.35890491826958837 -2.3607478419246566 -0.04207816011697269
Ni 3.3792599450933056 4.445008824744296 9.260242650388292 0.06547159934024854 0.013368965107738266 -0.5071025331551589
Ni 7.335145270373928 6.077826256895433 11.385386654874436 0.14970968065472282 -0.322481899555864 -0.18134427684086835
Ni 0.5319819874857101 9.060649478421142 0.40709105084265795 -0.12748840736267722 0.49585781347927504 -0.19874036083012872
Ni 5.0324375753605874 0.22147903000424282 1.5688607565781332 -1.5605189795576155 -0.696448340144265 -0.2790901628337903
Ni 5.907889962681133 5.550981290114536 0.18572131915128345 -0.2513345899870768 -0.09557638914542894 0.8058215259634703
Ni 8.103792430309694 8.788026967621072 11.327968908944856 -1.0510564308107124 0.8441065375865979 -0.012672196151029788
Ni -0.0321355105669904 4.691182950413901 5.824991257183748 -0.40534264090683736 0.7165332838195982 0.08272370155247688
Ni 7.803592419576795 -0.17738212886697788 2.525516370608842 0.07586631231101126 0.0840917855445971 -0.3973976750281478
P 8.515612213944632 1.861684486130178 3.4664519967151817 -0.7910060582171926 -1.1848651239644625 0.20249622832813513
P 1.7508054125384849 3.1646287705424117 1.5363910280296442 0.1893787171095706 0.3989254245265839 0.37786500431185893
P 4.708092573694035 1.1079868061776506 8.189440756173784 0.13661505225429374 0.20108469269258916 -0.07266168933078453
P 8.520020278133044 1.701512776726683 12.431227885622068 0.7074773442649172 -0.4747806810940017 -0.7654757751565721
P 6.4142211717327635 7.588627027044403 1.202896583296614 -0.3375570487214316 -0.4019888939432561 1.2794320980087706
P 1.6557068474245666 3.2335860697521053 5.939547631863765 0.4308096748296903 -0.13317723021733838 0.0497215355948434
P 6.732206998832427 3.805080752277501 6.015724942765665 1.1528399772081177 1.0742107574399888 -0.2270536059525251
P 2.5635332143583622 8.476038998351541 10.298124976717052 -0.46990561238988754 -0.07598561149769495 -1.0513503079020474
