# total energy = -340862.8944272054 ev
CRYSTAL
PRIMVEC
9.36523648996350 0.00000000000000 0.00000000000000

0.00000000000000 9.36523648996350 0.00000000000000

0.00000000000000 0.00000000000000 13.70697025567663

PRIMCOORD
 96 1
Ni 3.167135650469318 7.672338818818033 7.955346898011161 -0.4904494979795102 -1.4442588368105902 -0.5932347461685525
Ni 2.195614120595477 5.8930750134774925 12.42390202322481 0.6092056676755121 -2.399637319901003 -0.15785005037367006
Ni 7.073132262580739 3.3706703334536745 10.208937451150833 -0.02284913668403162 0.27636942146851756 -1.304341973876573
Ni 5.830468408050243 1.0200990111529955 12.455085450912335 -1.444265007458177 0.21938529077398994 0.982291762541489
Ni 7.624229599359576 1.184580658291184 11.190109857149247 2.079397679412096 0.5286411785578831 -0.6619963291139824
Ni 3.009190938348066 0.08549898931750721 9.798674539564962 0.9031704336282896 -0.238282384788809 0.19628392886983614
Ni 3.527107242512281 8.284656706034855 4.050163188420472 0.36796060071395337 0.6432678994665437 -0.02677983919700549
Ni 0.7781340805439986 3.5214787354274977 8.429225050986064 1.207465892083114 -2.2732526871254657 -0.3320536024046991
Ni 1.3576314967481362 3.6169292249584672 13.894618749671382 -0.39513741823906146 -0.11404950824895196 -0.7614964787938499
Ni 4.525282235220222 5.569571652030447 10.876549567202892 0.24018294424563152 0.09919907349968077 0.7999750944850222
Ni 0.9381531925309405 2.3392300210033867 11.653940047975624 -0.029741750038806844 -1.0083614630453472 -0.10619735919438485
Ni 4.01268538533913 1.2470561504086388 5.549527236533672 0.7757779284135284 0.5260996430829521 0.38278455310066334
Ni 7.432635592803005 6.318668817072997 6.521557298744791 0.6715562048882757 -0.6741566186256003 0.1605024003948526
Ni 3.195390568730202 8.469582664264694 1.0379959779400523 2.3089380563422175 0.9461124844074544 -0.2590198744464765
Ni 7.94979331281769 7.073150993053567 8.67823919504384 1.7841514756437336 -0.6304643199439722 1.1173489833903594
Ni 4.743604626502203 2.2590261363543265 10.292728221346433 0.06298225725949154 -0.8632509717255327 0.004337965253721561
Ni 7.240779359626843 0.41638496662966823 1.1806922121321126 0.7521744300619756 0.7301909838123489 -0.7412552120463105
Ni 9.122461390390331 4.579506954056987 3.6816102302514064 -0.521408922475502 0.07678728146338389 0.30117053967259744
Ni 1.864543648125961 -0.08216683820142412 2.6872787305677512 -0.8018167756794513 0.6818077074129548 -1.033769875816123
Ni 2.2246276230058912 4.190559320549266 3.6649700781911023 0.964900563648235 -1.0266417494117739 0.05751429216638482
Ni 5.609102314933727 4.4304873122382284 3.8287821109256934 0.368533699608604 0.9166545841576536 0.4618344053459788
Ni 8.308210275615936 4.831684674975395 8.22283865351366 -1.4153781492204978 -0.6208383668184341 -0.023950854388642622
Ni 9.237747450646044 3.809740712248852 6.005942033167483 -1.2327760887131287 -1.8462284474801365 0.9425990719375573
Ni 0.2538175738144908 1.1388689393546985 0.3118380229698299 -1.1364024004773847 2.681018592761815 0.21760763004827685
P 5.220061029061865 9.144610174509321 1.3855960926801882 -0.5136616744299154 0.2539913108836336 -0.7191964324740581
P 4.146598900822188 3.45252249971159 5.228853113007281 -0.3816805214032072 0.4230459717238714 -0.44674820043681773
P 2.4057325647788397 6.5686457074341265 0.7685131731759487 -0.7661432335372418 -1.539708727680484 -0.16417547837106564
P 8.93091421001583 8.204153133820547 10.692875741081599 -1.8562164119307838 -0.4863447317825172 1.8988031362530589
P 5.204177588103809 9.190724598611606 10.633922514379428 -0.3373385049527223 0.15079725729194673 0.43941078623513996
P 6.389423178180382 5.4728381251107665 9.617125685585991 0.3630189404379619 -1.3842911980077062 -0.027619047268849208
P 7.289094614286406 2.193329002910473 13.573971785330592 1.0282936831929 -0.38659904175074716 0.20693112417103715
P 3.8303442323595402 3.6555046337475234 12.121923721151585 2.1348576601526137 1.8029266993687079 -0.12837466662237246
Ni 7.302121658138209 5.794861779204408 2.739982535010891 -0.32620408560245756 -0.3188005940495348 -0.14846063873897014
Ni 8.967457362503058 9.164146057668818 7.2496304445616655 -0.8005700477565438 -0.5247726967414124 2.814639338274475
Ni 7.617336785358909 1.655015213836677 5.616828634975235 0.653295716016191 -0.9160205501180804 1.4633145678904604
Ni 4.739708688154001 0.30278839502303084 7.756432086149806 0.954831095227375 0.6142324314661421 1.7650913736884895
Ni 1.2332986181165475 5.4303293170278515 5.3694721377627275 1.1829712493758593 1.6672110190002318 -0.1411841596822149
Ni 3.5488158605198152 6.307177671993082 2.6034748490411688 0.5400861871700311 1.0388303210581658 0.9511978693501618
Ni 2.367222712644681 1.9673926744239505 1.7082584558972604 -0.09869873682449454 -0.5145037107152365 1.3088630016753782
Ni -0.06504156689487674 5.124114182000957 1.3603867493011201 1.5072333807605978 -0.9735636386398717 0.8600599755920608
Ni 5.331104637222061 2.1542853323007196 1.136667172273779 1.9272855599634675 -0.6242561342507313 -0.23192944598758766
Ni 8.202064686100238 8.845643732466822 12.960858789542225 -0.3106306566442327 -0.6413745390985728 -1.542654183462053
Ni 8.295923085440835 6.976426831370301 0.9011595721722001 -1.8162869227256977 1.8983040851294533 0.7340293837218326
Ni 0.8512943708861279 8.19269944968629 9.143097688828467 1.196478796943991 0.8945520958316593 -0.6742108689023033
Ni 2.802827953966697 3.372421632663083 6.96774619373821 -0.070501191344356 -0.13476668619164534 -0.13895784145485746
Ni 1.2972069914053364 7.252851149364424 3.0224961297213637 -1.407924264045614 -2.349072462469257 0.4172188235191331
Ni 4.5780272467035825 5.391856925839349 13.403717406466845 -0.3527368417856635 -0.8382976442143046 -1.5422631186712215
Ni 0.783812223381776 8.828533445538536 5.402780537592579 2.091390332997598 -1.5066849644562956 -1.5193898136174737
Ni 3.263709968369962 4.456288538558658 1.4801475195154188 -0.05202061604166525 -1.7553021555122093 -0.7175596682015836
Ni 0.5690842098354675 6.671120124275558 7.26067767743556 0.4800822958125733 0.07918020717559267 0.11392403841468123
Ni 4.5299180272451265 2.5207938593606185 3.1753564549934827 -2.009296037499004 -0.4782961504464279 1.2193060792511516
Ni 6.0965535050433655 3.5680614213504804 12.337520828637109 -1.6599785058075347 -0.4118238777558069 -0.4529296466571812
Ni 5.9495005628715365 3.816858291923453 6.644974257255095 1.1741359104724165 -1.7041541718834843 -0.47823290130866025
Ni 6.576990133078956 8.065734939622379 2.760282621461767 0.19285561991457753 0.7822401390991044 0.8949367328645876
Ni 2.4616617566429437 0.3986153670578412 7.170677755497509 -1.3287348008986406 0.7490289424544584 0.03255556533851813
Ni 5.587880689219719 7.086252958796682 8.540895193462351 -1.0573047257132693 1.1567382838212594 -0.03413885066523798
P 5.506908855184713 9.37151112234648 4.695843793838346 0.8493197063564211 -0.2007080260794608 -1.1920480148661472
P 8.750324356245647 8.641603326716112 2.35674863223932 0.674927949573986 -0.44683818904746275 -0.8657022614795027
P 8.730161002246415 6.716738190847905 4.7286577091855415 0.3809600982974149 -0.824186144513587 -0.31665243735828047
P 7.33321424303252 3.2931542716554176 4.511717626798258 0.6817226038983163 1.5010053975730149 -0.6843955227447891
P 0.6774671543304595 3.0332034045134315 2.4534653017334556 -0.3272885769158879 0.18210223805281542 -0.29009859812915195
P 0.5498798560450234 1.4497854230613956 6.388051171045738 0.36131275638013255 1.950541959388247 -0.8435717481290503
P 0.0762068017475869 1.240715885356395 9.706495327113386 0.6446287843698123 -0.05451021523273838 1.6050250323897908
P 7.026633863785482 6.599213839089257 12.773456662804538 -0.17026282221572614 -0.9149262886126371 3.0432677449132877
Ni 2.18684825931202 1.338339109735401 4.244130345884337 -0.2745413671208433 1.9431402676075373 1.0182404127219562
Ni 6.652417747156902 7.3268271517982075 10.944070112176542 -2.1496839265321688 2.2075897977100176 -1.162143771107547
Ni 2.666722973162774 6.944603758035702 10.206950147983793 0.15209052218207353 -0.676233555759287 -1.235536425067085
Ni 4.333819341973445 4.314742355398231 8.88748948181163 0.5969913849975073 -0.5214462034713406 -0.9080100211087782
Ni 7.714454286971562 8.650949832657234 5.345513053444921 -0.590868302818905 -0.3139136982708787 -2.7300760124100982
Ni 9.297394641366486 0.8423383953034683 3.660459780334144 -1.1925131274280236 1.4212628901360491 -0.1829139353208334
Ni 0.9464976181757693 8.439698194867782 0.4542682844477339 -0.7375499952805814 -3.0010823697944895 1.0485766018116522
Ni 8.252908554591567 1.9603312861678328 8.186844303880287 -1.2751550678999717 0.9269737066954745 -0.7516447828107506
Ni 0.8295735780712556 5.379026551952238 9.616919650384885 0.34087737134391616 1.5230271532597446 1.1921004653706373
Ni 5.412404254531554 6.838448803283589 1.0815209141738809 1.063684661097684 0.9066252249461095 0.8881022264412575
Ni 4.905651312172766 8.014263600291315 6.1501938331279 -0.6795852458403393 -0.8077315985019895 0.7693689395633911
Ni 6.204881194643515 6.778885899690872 4.697583854764058 -0.484968677370597 -0.6566348076917531 -1.4892582843394158
Ni 8.181311322206927 5.697201093879746 10.963314736483566 0.6081461160627462 -1.9060076244212982 -0.23497543190276307
Ni 7.427353599465538 3.2009347886872606 2.2647342479486285 0.4165886461343019 0.7576331391837016 -0.7271072026807027
Ni 3.9747842735718772 5.826544373992798 4.949860847188454 -0.8634561457578032 -0.713691700605745 -1.5611668975542596
Ni 9.433415335042683 6.703486381322167 12.676137808608985 0.27992679980247276 -0.01235132247650131 -0.9461857608475511
Ni 8.042743284226134 4.19604734908784 13.343735876806424 1.034020301264032 0.7544575696691974 -0.23878503545684038
Ni 3.5673777590922624 2.3833121888038455 13.611309109865724 -1.2483847417846627 -1.602534918978085 -0.834823312512459
Ni 4.832724216217344 8.296541191044156 12.770783824331996 1.4208718253452175 -0.8141709263694301 -0.08961117270092954
Ni 4.7187118281139275 5.608999297333174 6.998175719894415 -0.8325669123781145 0.9056690316804273 0.6044285580018429
Ni 6.53217747683821 1.1927565096805617 3.280242420211506 0.4672710029805179 0.10611405545195919 1.0365209561986988
Ni 2.7300787975031398 8.045871273188395 12.09833362714849 -0.7290591842007509 1.6962441730077884 0.6002782832788952
Ni 2.7084638318597456 3.7841361558931146 10.489985386362521 -2.5319953966511553 0.6531607331002235 -1.1328203395530814
Ni 7.148522415713029 9.071729904735967 9.385272400733136 -0.826871147544918 2.1621100681106635 -0.7990970627554431
P 2.835072462939924 2.1480574500854432 9.034908604727244 -0.04732552455884108 -0.06087446688786934 -0.9339192847753722
P 0.3988944511029769 4.382396823252599 11.873168994142477 0.4388430866571282 0.8812394378831533 -0.15459786198495953
P 2.16920415390814 0.5092984136160991 13.19960676144303 0.697947807507927 1.687593439311326 -0.5237445125872141
P 6.901542401004363 8.391055156933731 7.201505304201306 -1.2423377642596347 -0.13112934654937414 1.8724074198683494
P 2.3681311405768337 5.332874666904297 8.043181577290307 0.36683677152215527 0.3549281930100275 0.23219812626794203
P 2.6974596790733547 7.291145601061062 5.7515953234956045 -1.488808598396507 0.6619868160322857 1.0961944607999314
P 5.524674708661975 4.479242733009247 1.5787821894271312 -0.033763212493374106 0.2948847066638857 0.1037085313342601
P 5.9974131123653 2.073856681977724 8.313195390959082 0.36295723396209106 0.9721243350901839 0.08390666611698452
