# total energy = -340876.81178894104 ev
CRYSTAL
PRIMVEC
9.22121299141671 0.00000000000000 0.00000000000000
0.00000000000000 9.22121299141671 0.00000000000000
0.00000000000000 0.00000000000000 13.49617730742818
PRIMCOORD
 96 1
Ni 6.688320918717049 9.168338464274512 1.8877233649903506 -0.1315201542298896 -0.16926471996851494 0.5705092795465787
Ni 2.814692246515134 2.773851494585297 5.279502167759506 -0.7709918198787947 -0.6029658574133874 1.3758754631401853
Ni 6.072242463719448 7.352156035318766 5.575243985736148 -0.0226241651574191 0.6301455031519728 0.06278916741207895
Ni 4.260707526064816 8.194246418471778 11.29765023024933 -0.5277744596822137 -0.09703523307914257 0.350286580472958
Ni 2.1296114553940355 4.288232846568443 1.035808701614704 0.1594356496932351 2.06895668658443 2.1017464794209415
Ni 7.718938999590884 7.229513903761565 0.48891516275600255 0.04398951820707263 0.3846606870774537 1.1777187427276685
Ni 7.094764319667928 0.30009146410111986 12.983956486128582 -1.1093114577978638 0.5952594899080652 -0.3853440862977235
Ni 5.26029622553339 6.516004113272734 9.585376116725097 -0.18020913479516062 -0.4381763996074067 -0.19891185341098647
Ni 0.4612515240588898 7.37069989445873 8.04138637224443 0.04211132734775329 -0.4501657107587989 -0.27634422465753694
Ni 0.47379698420803046 0.8658193303061056 -0.056868142069654744 1.9883194352473368 1.6565967338194953 0.7641817389354968
Ni 2.929653107727436 3.798982953784205 3.136754172469501 0.9680756189421069 0.2806881034485295 0.8504491919751741
Ni 0.9729855002548508 7.45022363450003 10.365496260711415 -0.3474851064684209 0.9061020054527879 -1.9488123782916502
Ni 1.395215617688883 5.546771646667791 3.6465590709269833 -0.5908107101080922 0.5163320221732268 -0.40083395440320646
Ni 2.3729684850125365 0.13016756340410457 4.6995985309648285 1.1926704789414944 -0.4099932523049713 -0.3324007013314727
Ni 2.471026862980902 0.5611818082457602 10.389491700917294 -0.02543463802302071 -0.07828083528977486 0.14428053921935152
Ni 7.592746701067555 2.1436830262779667 5.755349949716281 2.0691335784819267 0.7975088923327168 0.21506249502891991
Ni 7.7499222749316505 0.5211156381994418 7.840226534973215 -0.34690763669839614 -0.2260393057553978 -1.331200488830314
Ni 4.605774533959701 8.489251461537789 3.1129071937913 0.35593118035324506 -0.5412889492288807 -0.9286757769882458
Ni 7.959741753236353 5.029876557612238 2.5001124127070464 -0.7928515960663636 0.42987944970593706 -0.35370794744968115
Ni 1.8847698104987889 5.031139863779407 5.9235937454230925 0.6673807333543474 0.5339597625573191 -0.7425829297187985
Ni 6.517129101246415 0.7093814534739329 4.246302147273939 -0.7080576422484194 -1.0097557722897126 -0.29795923182415135
Ni 5.875360347112096 3.765814250986367 11.132928937869952 0.23413390983807422 -0.25417514475966546 -1.0255929964322854
Ni 0.45893699962123136 3.0226029337497353 9.031209807252925 -0.12459411653401768 -0.323205665095766 -1.0032768494335882
Ni 5.609042497374992 1.4639136537867132 6.39636440863546 -0.836188825401418 0.10667198483795821 0.9881865307593689
P 4.578710274101026 4.423526482223123 9.334090688256003 -0.5600639158435387 0.09103736362449483 -0.05896799389377586
P 2.2796037044097806 7.281521544512137 6.839849421801773 -0.5358654642204642 -0.5762389829415043 -0.7653022256931852
P 2.0072367390109074 8.456995658816956 12.137881616881895 0.7283601012511972 -0.5497671619032208 0.38487614552236943
P 4.368697150325445 0.4297859792835038 9.021073850034302 -1.7865747403732457 0.6862770560382181 1.2868597579314096
P 6.659495407194657 6.777748241411915 7.734011072074361 -0.5755062185405379 -1.037219782037936 -1.1226385139240729
P 2.3739828184314304 7.604743499049203 3.237017342442027 -1.5444464994757852 0.24316156725798124 -0.5252406375167664
P 4.277287266857285 4.640842806614741 0.5828608797713977 1.4815583445919969 -0.19624176277799105 0.9960448504615232
P 4.648680837578924 9.131518161168655 5.389725169784281 -0.7946768222005605 -0.6866758341385335 -0.9144498631968508
Ni 4.037508067843611 5.962924984801358 7.069405984195575 0.47504859004340766 0.7127493912971338 -0.2583752988839421
Ni 5.620181722557029 3.113745402043823 4.558657824530779 0.19465873456158733 -1.3484698174337229 0.044284937960304374
Ni 8.139481635064392 4.165516945308051 10.481630982325767 0.10320973732097063 0.014654773798697342 1.563954744712042
Ni 0.7559707095250304 6.909666913145546 1.669004494116788 3.1624568883816506e-05 0.13552593295517304 -0.43346356751276965
Ni 6.92228153239143 4.586511420213612 8.529732586164563 -1.3224471681177161 0.568662199035511 0.0440738503907628
Ni 0.7835412139718628 7.781366610917369 5.138709922853129 -0.14012229407660384 -1.5504525964605491 0.10468452209428422
Ni 7.712299726303578 7.500829650889949 3.8894089338360374 0.31799815275289744 -0.5566993702466799 -1.0862391493594323
Ni 6.248505948284551 4.991202790713675 6.1648649366838315 0.4984258313167674 -0.35037425509075787 -0.2668972203120242
Ni 0.6352521229785696 0.8308008522007204 6.0123580629105176 -0.5720897366598212 1.0782039377597818 -0.10985475344131403
Ni 9.068555719494027 8.455418831411219 12.22100439631769 -1.4993323807459662 -1.9181864258756773 -1.6134695636127179
Ni 3.086349178520782 6.150973179451431 10.458295780963462 0.09276077407350476 -0.7143666151855826 0.5089992359572394
Ni 5.424848769716715 2.2721898492389543 8.634368455293812 0.8013935720991037 0.057908956501642204 0.9965585568731483
Ni 2.2049303223533743 4.9906864027913285 8.263088305490832 -1.007677292494129 -0.030375012747431554 1.4754733147401813
Ni 1.2212389939227408 6.416092271511661 12.313763343232978 -1.4268825503156717 -1.609214644991106 1.3272541025880562
Ni 5.414373471863409 2.851152922317929 13.31701563058634 -0.08628493654117397 -1.0145868751297689 -1.030829048020244
Ni 5.287397370243661 7.779891216853523 0.2727487236128936 -0.3579780355799448 0.5494858832173762 -0.06491341284393337
Ni 7.916660246572049 5.728586301398115 12.21296073230586 -0.13549636526881825 0.8974633559411834 -1.5120416007825186
Ni 0.5121830492641442 3.3284152383334176 13.128379122553309 -0.3128502900033709 -0.3355456747183576 -1.8558891104983521
Ni 4.6885994682188565 1.4833427493649856 11.10889200220603 0.2892974423840953 0.5115340865639514 -0.3001127878320445
Ni 6.1859584611903795 8.922159743508907 9.799007644442261 1.0150177920196004 -0.39667545215014266 0.7149302009985364
Ni 2.3808895068928098 8.785648907751552 1.3587272782473916 0.19369765619989868 -0.16434105741465246 0.028302960709751256
Ni 5.119681950035965 2.664045291383557 2.1374301218111293 1.35740980023583 0.8518872099732813 -0.38597734900634817
Ni 4.017239841891525 1.4333637754522017 3.6181900094430945 -0.17650083270563796 0.0878211706800423 0.6031442919727805
Ni 2.687660817617992 2.0116905848411424 1.4906118314932968 -0.07639595956223617 -0.18320781241216835 0.469480866147643
P 9.000964228944081 5.135662311989997 0.5503745467280882 0.39837160890564294 0.7656938047046491 0.138711015551374
P 4.883895536207574 0.8639216046914836 0.7752448887265988 -0.39415191439734054 -0.052069981222361936 0.3846568304227117
P 7.348937832017001 2.506795947816269 3.042429463603956 -0.8434439643019346 0.8908365946532851 0.7498504099144891
P 8.416440764486987 9.27902990391456 9.825878258830057 1.9058813832560793 -1.6439397071771171 0.4259849997475373
P 2.366301548086532 2.5937612066670925 11.694194659153093 -0.5598353447725003 0.7551885342979511 -1.838077536238228
P 1.6780117748765682 1.954140995138249 3.541937033617083 0.9002056945730109 -0.3000744783949413 -0.555783800410946
P 6.012830189010949 6.727815373563627 2.101853760325352 0.7804167127371204 0.6213307330738203 0.09288675812840777
P -0.00664480601504649 5.430003427727278 9.16260840257905 1.5730309959816973 -0.20135594407610483 -0.5504796145892131
Ni 7.634684777332378 6.828594009337209 9.593460354073684 1.0189176412946386 1.077974338247479 1.6500576471493968
Ni 7.92470114422001 2.0644543650494356 0.9715866422580667 -1.0268854899914637 0.6498419531396357 0.032270687108247646
Ni 7.4257966415304795 1.9945022439973363 9.972204153597145 -1.0673795934507682 -0.6427053420948544 -0.9777293399817871
Ni 0.49096872686861825 3.3160127069842122 2.067182921946261 -1.1125991274102 -0.8976541317957507 1.1740803746441328
Ni 5.002397343173106 8.112749338870083 7.627526349758854 0.19713959200191208 1.0080573015413674 -0.7322401530318937
Ni 8.864665481083406 0.9722016971584325 3.482459288297 0.35929983971516183 -0.2490617347925001 0.40098693504130295
Ni 3.8668234170824247 6.8536111599322975 4.55873897120429 -0.4975544844554077 -1.2385669843632927 1.828254379500219
Ni 4.201691763510975 3.5614445095049967 7.195270929660989 -0.3818594701832327 0.08334488007624355 -0.2527831495081453
Ni 8.416772728151352 6.331598297717779 6.346496089277465 -1.4081335518429425 2.0780864167998403 -0.7783032659385436
Ni 9.092208130580058 4.386881382162347 6.977402254616718 0.16293877775048712 -2.31896947243629 1.0229699569871413
Ni 4.9948912758732895 5.658560410642823 12.147585099215553 0.2590350439551281 1.051737516038137 0.2195902076959444
Ni 6.701285944053095 4.724138022731748 0.3895021886127682 -0.7095931050563392 0.2364237343135154 0.7655901892472492
Ni 0.9842169375658786 0.45495527989142687 8.334361826351364 0.13087043646103266 0.5162656877116657 1.4962483425040038
Ni 3.0961605490453574 6.811949720054446 13.492897356937423 0.08507934626884701 0.539136164551936 -0.8710560695922483
Ni 2.892131992441252 7.948261343177051 8.778831665055295 -0.03972945737913803 -0.09894273451450056 0.22455063702501324
Ni 9.404622823599452 3.310129573154626 4.506792190458852 0.12761721963105763 0.30366065308430285 0.4561201285700209
Ni 0.29638453651570673 1.6735579290463332 11.018656901261206 0.7334668263501432 -0.16661982614650014 0.7265029934378003
Ni 3.7482017343492053 6.202123247402392 2.086171243547959 0.565439321222839 -0.3385479518797912 0.7137156118651451
Ni 3.362644380614645 0.8667995452372733 7.074035033070893 -0.6246947644500467 0.3142070611415814 0.13270748966977144
Ni 1.3634485392516986 4.493616921468707 10.722011404420458 -0.030512052545928096 -0.29127462071512417 -0.05264667966143836
Ni 2.810754788607245 4.568880461150652 12.598640728171976 0.6234585780501005 -0.17635787936987046 -4.272132157276836
Ni 3.022667482240028 2.7686783941489366 9.280146592796633 -0.3039172491797992 -0.2141404974352828 0.25206555461583036
Ni 5.556407814147285 5.185696613180176 3.603452666987852 0.45529223335208685 1.3752440002037734 -0.3911113277988038
Ni 3.013280287508808 1.038797296715282 12.883572518267078 1.053251124469186 -1.3580980845521062 0.626618720945637
P 7.567222383763019 2.6835573778779205 7.856988855781086 0.2810796824599933 0.37048439557707163 -1.0052008059291786
P 8.416486870551482 5.268788962613404 4.520827798612477 0.5747634268372424 0.4398494164344554 0.9313389256427058
P 8.868593717778396 9.084056578377309 1.5806449878756303 0.23276274052216042 -1.5673588852975846 -0.1807747774906435
P 8.019126364306155 8.87976982781203 5.664305226278923 0.09988581515406024 0.17826949457028654 -0.39678780935829083
P 6.358367478763685 7.7076983410669575 11.789127045948684 0.683117941583946 -1.0233149990313861 -0.19317726492005438
P 7.632499349875306 2.2684460368019455 12.062855984492744 -0.324875339488705 0.999895077445549 1.6180353286065294
P 4.158462717440287 4.6102099373641385 5.23241404409057 -0.5976817261963125 0.332335395311176 -0.08294713041719262
P 1.5878190915110815 2.4021536238379904 7.299596043915541 0.8774288058878115 0.6170431614420598 -0.5522660170656747
