# total energy = -340897.4186005479 ev
CRYSTAL
PRIMVEC
9.00614276259866 0.00000000000000 0.00000000000000
0.00000000000000 9.00614276259866 0.00000000000000
0.00000000000000 0.00000000000000 13.18140028793052
PRIMCOORD
 96 1
Ni 6.428053212126576 1.8380186087065928 11.23575907682275 0.03157546081343595 0.7746137329020982 0.5600839704481967
Ni 4.61979089850863 0.3147493727743863 5.937732692186589 -0.35128905359554335 -0.7062347301070675 0.07251153690616544
Ni 2.719287672572911 1.4345344149213366 4.646021288776695 0.39211482936265374 0.5563813247856289 1.4073383096351568
Ni 3.310739068172683 4.310934244825195 4.99146629731096 0.5886679527334765 -0.15338352996188423 -0.5882648037577869
Ni 5.216654985799769 4.6008239622323925 2.4659367762323456 -0.9897754725130438 0.21041214074110212 0.9238858117987702
Ni 7.3845776034023185 6.211482501473822 2.5040444673366413 0.006380449605047076 -0.4844662838128818 -0.10347533227753146
Ni 4.7847293937427375 4.608118937723254 11.316429797766315 1.312793704188352 -0.6510030633272723 -0.25515627772601224
Ni 5.637250850489514 7.943660922564863 12.389870130804104 -0.07764962946367916 0.07084237673385864 0.543047069570568
Ni 1.8029757079227169 6.527219848089377 0.4255258271387539 0.1818798376293642 0.1307367390966458 -0.9232731179154358
Ni 2.864178494421022 1.7420581595027378 0.3521635908999212 -0.1438125984439975 -0.975527961455094 0.8922321894492311
Ni 0.6185265620419629 0.0725228637502546 4.623231244974691 -1.0032994751414075 -0.4841276695265404 0.48693120041360655
Ni 8.730842814884237 2.4032531232521723 1.544134667064585 0.008456358297469308 0.26877232584755006 -0.32372039994865537
Ni 6.939593104602387 0.7127641361700134 4.801905008259553 -0.9146966891003345 0.00206331028693193 -0.10480382128096791
Ni 0.7931826851213022 7.548831631800245 2.625682329654069 0.5431702254119936 -0.13645461541702952 -0.3866622908885147
Ni 7.4576534443070654 3.8732987583716123 3.792407386934805 1.4126268117276057 0.04371569572039568 0.6438975626307427
Ni 7.668505254420689 3.8955979674029355 12.633330481361876 0.03315797480920741 -0.6323167997716789 -0.31066742341943915
Ni 8.073853719720276 9.015238785316836 6.780722948239568 -0.3345858819082496 -0.656083048953341 0.4204293600366308
Ni 6.842038568161641 1.0156857418923657 0.4208192170257614 1.2414774731418685 -1.1043530853513237 -0.5075064534617969
Ni 1.8166020016482385 6.293564484959878 9.200379859589336 0.14832874114679614 0.37697283151489275 0.2942542721687384
Ni 9.28632367701426 4.879960345397506 1.332692053997628 -0.7162172952410761 -0.37292411536681586 0.07099510026163902
Ni 6.1526273597049626 1.921595611861147 6.962204826781281 0.6238167327204677 0.4367903178931574 -0.15931737894781595
Ni 3.5423050062233177 4.2392453498779705 0.34690940731798514 -0.5732814429750772 0.3542051988010739 0.3377874195646827
Ni 6.028729856213886 5.6546417118140235 4.796869673942343 -0.11567727366036205 -0.6429187436572411 -0.7349169285331085
Ni 5.187997440106042 2.850047856710947 9.250878201656999 0.0892177939172528 -0.39975949039210507 0.21367744175593525
P 0.15557210694954401 5.590247792357659 12.199728846170462 0.557103290553318 -0.7461822170342827 1.4375338593819307
P 3.925255194923188 6.094258549635494 12.538754276272767 -0.08779648808969395 1.2923313225689421 0.5533911318090534
P 2.388951368833052 8.489568255130951 1.2795116826692523 0.22334581808363468 0.6180741738097356 0.8073559603301258
P 6.354049738535955 7.701539785408932 5.97237391901134 0.12503274673333306 0.8489222138076865 -1.1427838785236963
P 4.802660623622124 1.1356565672179921 12.523292530689174 -0.06893307552628773 0.07993559728437846 -0.12272183921196927
P 3.951364002266405 6.138703863274258 8.156504891417471 -0.7401997741986026 -0.6218691220757935 0.2315314392182206
P 4.787107015384202 0.9737531420337875 3.742713293399654 -0.2749270325950362 -0.5208813321068061 0.2476697395409799
P 0.3439274735093135 5.666547832306516 3.5249168467415837 -0.5391027402108393 -1.0973064629171876 0.26119399927965986
Ni 1.5474534306057977 1.101424219266434 2.669668330021185 0.018319110024162 0.4748614137332661 -1.5495077160487765
Ni 1.9963105707156925 6.396982020221058 4.819265248699285 -0.1355596144065859 0.055884212762129556 -0.6171022968147695
Ni 5.762039962096141 5.412709703652301 9.223433783368973 0.06143856692145548 0.9151936833414109 -0.44465172291910515
Ni 8.688342828043039 2.211017009854116 10.196537582522648 -0.0020985344002415474 0.4730449293498177 -0.12277069017203372
Ni 2.177252981316786 5.19232038854507 6.941997744671597 1.2120154591270094 0.4207065249574174 0.6359577389583757
Ni 0.6959946986836147 -0.2725042597682368 8.943658864694845 -0.293957566863926 0.4276197071374829 0.6480632639726581
Ni 1.6462778331505092 1.0799715876377542 11.48723399366363 -0.9458432899064677 0.18290930733514307 -0.584354155849471
Ni 4.0450008666842825 6.838580209410417 1.480680088279451 0.6733672899550855 0.756800358869761 0.11996433107149015
Ni 5.618256895785532 7.8201957139176885 8.066133654299577 -0.5568196978746282 -0.07742928592275698 0.4190826162007492
Ni 5.206622142964191 2.8729234588674735 4.779431080062153 0.0999799175297633 -0.0916603419204744 0.43133366565396036
Ni 0.850034860780078 7.312735604031211 6.8384577258713115 -0.5892870743747142 0.24034595218605703 0.19017010266261442
Ni 4.8155394075133975 4.3016308995387025 7.182333864367911 0.8443399937536425 1.1193832402115689 -0.6127617604578867
Ni 8.001525388649778 7.046126765196699 9.279916707181915 0.2979479189702417 0.089430167038375 -0.5192157714789251
Ni 4.461408875073718 0.2510822490243335 10.253138486803405 0.8928135158739978 0.7110717464843948 0.992417023900949
Ni 8.105501304750998 7.083024931352325 4.688387084093434 0.15388283819580595 0.6955096303800795 0.7175974634180544
Ni 7.016874814092605 5.961021676287599 7.004793974434037 0.6298750230994056 -0.5663710890084891 0.9232913727478809
Ni 2.3853218933727844 5.34435308146016 2.5443532596878096 0.18921390939693222 -0.37568239483824334 0.14937492302312338
Ni 2.3076259013238256 5.087921183742528 11.349132902707568 -0.40162276885308895 0.5929370124224757 -0.00929428081773238
Ni 1.2123078467275192 3.4519733961327814 3.724984701728346 -1.065503202363662 0.04837042088358766 -0.41888078460258826
Ni 3.75280557677627 2.7207286553859205 2.832327370567962 -0.06635734437931153 0.16225177898579152 -0.6135562313347239
Ni 0.9723211653633593 3.4847197305584237 8.09664826659357 -0.7091079378898045 -1.1250802905963462 0.30773019516798616
Ni 3.505172680360578 2.4938459114775666 6.912945729932807 -0.8536697557950007 -0.5009501404005179 -0.5654714600123552
Ni 4.285608971886552 6.7551923352500705 5.9855553092933445 -0.9568129015440942 0.49386803674275587 0.4482430398147893
Ni 0.8663656991227667 7.449926173972302 11.426850509498722 -0.013147593125551551 -0.3374817153988059 0.019862029031249666
P 0.10073640661472355 5.589284135101459 7.991500651342522 -0.4255054890079575 -0.1609240613133035 0.44995873695431543
P 8.65239030685845 1.5974645403598104 8.128586750029669 -0.3507210969072153 -0.30056067400274045 -0.7663977727502091
P 1.6784297621657849 3.2086994727264435 10.341111388151896 0.5723669015806079 -0.8148625531198159 -0.23148618780258198
P 4.084357709764606 6.077597185860071 3.7356749929723607 0.11740762608790746 0.32016790671070666 0.12961753789053806
P 6.840561560778305 3.8835657609143057 10.387496624902674 -0.5020117488958128 -0.3102583609064786 0.7835634858962182
P 6.292970079549511 7.758710778515087 10.364165311931533 0.021110813836686223 0.35941142559236167 -1.258520544667084
P 2.3909687447712655 8.352891035316995 5.645277124757977 1.276557090453821 0.4701349547918742 0.7332829924741113
P 7.070569436162374 3.988865579974979 1.6414667517835735 0.5472518516805349 0.6307021469863913 -1.1871729461620328
Ni 5.471591863848904 2.9723692852502954 0.40397142609890535 -0.20170407144414293 0.19187860071328888 -0.13566528674651473
Ni 1.4418564088399413 0.9315323456126076 6.867760111373861 -0.028549786613234703 0.9931672718034121 -0.03977856544951859
Ni 6.819838426698712 0.7693506306226404 9.110271601834818 0.23200400797926496 -0.6293913985947677 -0.10116622452838062
Ni 2.6815339228720605 1.4736570982945458 8.954414900779703 -0.5244837047460839 0.6967802695623871 1.2551619126074964
Ni 6.301642994855314 2.096233722655324 2.6277249227915096 0.6390677453422672 -0.4149367123531757 -0.11969359390860676
Ni 4.145896682022695 6.899398690262002 10.467692722132204 -0.12310570491394927 -0.544896721184797 -0.4459023074967547
Ni 8.006929074198563 7.120913773191895 0.03958559910188871 0.3115536826791344 0.6815601101785229 0.7479796752543376
Ni 7.393907967116555 3.7476090325068543 8.271064826280247 0.9123592992164093 -0.4700418808574357 -0.6587886208099623
Ni 3.2460659582962976 8.451012958740364 12.419079753038066 0.11129739942511155 -0.622107720449161 0.6588390144319234
Ni -0.04901142792748746 4.708483390649369 10.227408838062862 0.213265036808865 0.1217237369647581 -0.5185771094536618
Ni 8.48343507203308 2.4746087909238885 5.911976925632561 -0.19160760644008934 -0.49009982794957535 0.0854369867185819
Ni 3.543385743333075 2.6526242051860565 11.410373771646217 0.2549570172310125 -0.22335301717248632 -0.6702521413648714
Ni 1.0968310865499662 3.3287873779056274 12.59527592649881 0.05635369619938037 0.17245365921945782 0.16761561440086617
Ni 2.999774977125221 8.207360777345611 8.146645867133712 0.8699646363002823 -0.1858341942914219 -0.7909996304592893
Ni 5.672825113685688 7.872476371602191 3.621246547791272 -0.4141011038257578 -0.05279168987973488 -0.0116255000540703
Ni 3.1572293678742582 8.287641532315405 3.443732775670883 0.34652505654799676 -0.34224416978445577 0.005125494152023431
Ni 3.187048705960975 4.075576720747829 9.057704548816229 0.2943370616905318 0.7293507472992407 0.15283897031232388
Ni 7.044712800811434 5.933264744852002 11.337691499172273 -0.0971992694608326 -0.17173966387156872 -0.04738131749744098
Ni 0.3923309868125625 0.0295122286246938 0.6147854104136868 -0.07265474735224907 0.3433556576810797 -0.7744471254172469
Ni 4.7579721441336655 0.4502566946670304 1.5080047248711448 -0.9093230834932469 -0.8778206420095913 0.26716204393763665
Ni 5.968469756202342 5.641051442658827 0.4298496761920407 -0.1753860023749044 -0.008165052309295614 -0.6658193024044984
Ni 8.08088751707628 8.876003821009789 11.253488569108317 -0.7183896203020467 0.07414367319294973 -0.17917555132432367
Ni 0.01311114236987068 4.868765710168938 5.902933857866667 -0.8155773197986533 0.48231864134225966 -1.1453637234357308
Ni 7.839063582625532 8.830513794831592 2.651266979499053 -0.37708621716430546 0.3680585597443984 -0.5503194348622651
P 8.511327095607395 1.7206235401592207 3.6552150157651977 0.0834153283028628 0.3151928220936185 -0.08361433168754633
P 2.0670628268344617 3.2996885312254154 1.6296957234298017 -1.6118253431410756 -0.06043686512981849 -0.3321186513146796
P 4.686355298327091 0.9319556343139292 8.225140704029632 -0.20563734506027811 0.3329133793018331 -1.149779336004923
P 8.645401540215353 1.662497895939448 12.345739131541428 -0.7868467846331804 -0.3848548053661307 1.6064831049925559
P 6.296338376874922 7.802363551606695 1.3314528087784399 0.43250506025424224 -0.12273495183809184 0.7213422751724674
P 1.5265952043874842 3.27654274479145 5.851461051171707 1.9488332042272567 -1.1178351789981587 0.9308306185477195
P 6.689042217990351 3.9026677893292634 6.0175856553837725 0.5846261785639351 0.3836327600335716 0.14605665728316783
P 2.4325861296394975 8.368444643554918 10.369108783594415 -0.3653519594465127 0.1744346942052286 -1.6652472104056415
