# total energy = -340888.09699800523 ev
CRYSTAL
PRIMVEC
9.05447651900005 0.00000000000000 0.00000000000000

0.00000000000000 9.05447651900005 0.00000000000000

0.00000000000000 0.00000000000000 13.25214162606757

PRIMCOORD
 96 1
Ni 6.243396610073229 2.0503590556580034 11.582040947030341 0.4814058997200032 0.045544007178386074 -0.3200180113964037
Ni 4.540557419616398 0.07579321246517734 6.033157096823129 0.23072282727399618 2.0364926525184543 0.012515615968507478
Ni 2.6943768105930954 1.4799632497068027 4.809135830849295 1.2782712449314502 0.5257823689528494 -0.36810098294655963
Ni 3.679974694099987 4.456178752468338 5.062052713960503 0.6852025920271168 0.8058022426897608 -1.2092049862614078
Ni 4.986789188374622 4.536066399238091 1.9325729917603465 -0.7768503355421007 0.33372173413574135 2.4260078394747313
Ni 7.612397249424899 6.507823543799162 2.531821792746853 -1.252099985852721 -2.717589192796997 0.4590920667141513
Ni 4.948660787541862 4.456604312867088 11.284874836925617 0.05732968695940449 0.30104661250022346 0.14217094907551645
Ni 5.589002424989873 7.9299558516587 12.494211552799577 -0.11416855032531951 -0.3810225761042341 0.3691245391150675
Ni 1.8150965909613552 6.324606210422082 0.2568872710867881 1.419711229378213 1.0775871301113893 1.0412368736171291
Ni 2.7073247120870034 1.4835126045219156 0.4017317327637416 1.2706492096098183 0.8317210194380514 -0.03671612447411096
Ni 0.6166306796563348 9.429784622958254 4.672559011727646 0.0060539195035637676 -1.3904471903067732 0.2722983367229375
Ni 8.831491974697451 2.3450551045546595 1.4645072582032357 0.3129999282073577 -0.2671116503156755 0.6493254185145334
Ni 6.873434253185529 0.73367427647532 4.895963733909314 -1.1746524450975189 -0.13514052459129627 0.6601821587233792
Ni 0.900744761786606 7.598145503305031 2.5211673901679146 0.9847317394415493 0.09542289428670017 -0.6410690920430121
Ni 7.803392378174894 4.142549793065555 3.76530408128781 0.715760924429948 -0.8299109628125062 -0.46118880134217993
Ni 7.611410311478861 3.727746112478908 12.87567483976324 0.14968911182943254 -0.3287749316534273 -0.9234379256280741
Ni 7.8671087297921165 8.762886205732878 7.382582863279918 0.17258375703941892 0.03689430192318807 -0.648185134262503
Ni 6.924447174176213 1.169059687751339 0.5697203419991411 1.0224385099637037 -2.5858386677238565 -1.4881413971261532
Ni 1.9461963572063141 6.089542944209955 8.896082988751257 -1.0897443342992137 0.5662610457931861 1.8478659830835595
Ni 0.15979702428327472 4.755628401563806 1.2443286460231615 0.4058319218384301 0.1606605232392717 2.604708508045166
Ni 6.2634522756739335 1.5948464484163845 7.113060975588516 -0.2421148711610217 1.1159233066874266 -0.3002601120431861
Ni 3.439750376243435 4.109790696838312 -0.05360612308009222 0.6060465532212401 1.0012924720137077 0.760057175244162
Ni 6.362517303817182 5.7759502027134495 4.814715199311214 -0.82552748903283 0.4661435742442939 -0.5398648151878445
Ni 5.221037551695524 2.68965942830056 9.463805007771581 -0.2764136444428917 -0.2954817168179363 0.4645291785693226
P 9.16222484033939 5.519228628547878 12.584777143787349 -0.5956125023721097 0.023081050189179605 -2.195275756229355
P 3.772538608066574 6.055869345849227 12.421841837925202 1.2837325251563374 1.3339999059523218 0.6640164448678048
P 2.6189168028656633 8.34970327645211 1.4366113213412912 -0.853226240499679 -0.394408767603153 -0.4559866883159502
P 6.4199045763125575 7.8574928756756615 5.849429090967548 0.46678557870366705 -0.8279594955130903 0.7090115215212563
P 4.757258207346256 0.9379170098936613 12.676521627624428 -0.7177041641992478 0.4471937726146685 -0.16088575187620036
P 4.2076152616915845 5.843052928567541 7.993692123124375 -1.407264518974428 1.3929714993905236 -0.14007395733717165
P 4.722624834469195 0.9981202246020482 3.890815424594279 0.9674112458852306 1.305315650643752 0.3793552157041402
P 0.4660357199103038 5.899733951890522 3.6116722501004803 -0.6249557314209172 -2.6048823146188687 0.30613533987704056
Ni 1.7651339892526956 0.945305462774101 2.4891761135537367 -1.2950178682621696 0.613976092480962 0.5245166148665483
Ni 2.165704032672613 6.4419341178053395 4.782976542593316 -0.24302272768727176 0.5633014489442298 0.0878319693133197
Ni 5.892870658651094 5.72935586628852 9.461300539552552 0.5119644892331505 0.13532384424669597 -0.6906199063879461
Ni 8.504987549613313 2.5041150944452037 10.36110725756659 0.6653349065689123 -0.08255760828825782 0.1681599169401104
Ni 2.332632362701763 5.04415835191686 6.928298948508735 0.4914871952154051 0.40718560765284717 -0.825005555091089
Ni 0.2931794240713205 0.15520640466270738 9.571637485576755 -0.8552278443107401 0.5920404687501352 -0.6982180304501782
Ni 1.7123373363778867 1.033550391417196 11.50173226710012 -0.5073802122965778 -0.22017924743019499 -1.4877403050329927
Ni 4.300939751689982 6.893544245645648 1.5967904445357848 0.31200876793868204 0.7054052922272368 -0.8812682342385598
Ni 5.407731804075164 7.833815419447292 8.044606350320453 -0.2558641024263142 0.5936024139206164 0.5812472347893731
Ni 5.433672879445825 3.0314387553568802 4.562460198437211 0.7008644669340897 -0.27560014740266087 0.8955987919286189
Ni 0.5265775720423774 7.337267924394212 6.492488882281623 1.0024363558101639 -0.3261544633114447 1.2241433527387948
Ni 5.364723040371623 4.110741416878073 7.69187472840607 0.5498918604065433 0.5190347658163705 -1.5871975172900665
Ni 7.863432612305035 7.265900540076043 9.304965041661669 1.1514022163203268 -0.2804268793673429 -0.0924527559147827
Ni 4.205478405221261 0.3428061046992642 10.410577295749889 0.23236344820121274 0.08080385882194471 -0.23585654895613573
Ni 8.308487299109267 7.445450810442611 4.5699084108630075 -1.0479950182765694 0.11981674975003237 0.9241827742138987
Ni 7.123374024400796 6.18691478523477 7.2156590604890525 0.10970100147226915 -0.44384902451215175 -0.6909353807458358
Ni 2.624838430541898 5.230209736460089 2.6623556542062388 -1.5194569194099832 -0.5609236927406727 -0.9654775191976274
Ni 2.1368474158466797 5.208732518038027 11.253692125069064 1.0411857086642196 0.0696684110304155 0.614216233516226
Ni 1.2040461852145976 3.1447917475262734 3.548578846471216 -0.8491191603098409 0.3636766286266188 -0.03025648489169628
Ni 3.5535289288115792 2.645256275205368 2.8020589840872194 0.7469018688091266 0.4417947130862843 -0.27483370155028153
Ni 1.2518900394060724 3.3374166820587177 8.156110418374425 -2.374349234758175 0.8820333945393583 -0.2737594946494963
Ni 3.9493453720326843 2.6743301994689612 6.676494860567877 -1.0292426773697305 -0.936492187708871 0.4160227463285029
Ni 4.2668224839773625 6.893426537450249 5.836243056739872 0.022765832941605953 -1.6124210677435455 0.6277021838178029
Ni 0.6662383458834831 7.363734159405885 11.434225711591044 -0.17429662596546758 0.15075046321441135 -0.10791331344422705
P 9.012490961315086 5.425351815478761 8.044235116781119 2.1844529545822375 2.162738959943914 -0.3411604498019737
P 8.49819669218644 1.73728241932594 8.170117693626924 0.8738305470135919 -0.14532569265441422 -1.0015439259028815
P 1.648168260932205 3.1549961426197237 10.426453414966264 0.6849064009429364 0.10225868626161098 -0.5540688746023683
P 4.344835854097299 6.043682020387128 3.5969360894841627 0.7493395317163418 0.1403626922221841 1.3585192312499248
P 6.911671307737119 4.006605881856093 10.466422590885536 -0.15858101500242366 0.4486497883349047 0.6593866594052773
P 6.16281176860765 7.937869464180151 10.341574035263928 -0.5014677034668847 -0.0849785590249246 -0.3329378047818653
P 2.4328473093692957 8.57172809640464 5.724965350600131 -1.1352780570649543 -1.4188763921817436 1.0138391983304669
P 7.08824265531243 4.224764440313585 1.7007928787521998 -0.6955420262799119 -0.11427345133429997 -0.28594652363399137
Ni 5.265223397353055 2.6982611810412678 0.6510820575543557 -1.0523047013955167 0.3939130589136571 -1.5814133065081217
Ni 1.3306820945109576 1.219800974444947 6.831214134391163 -0.027763800376829604 -0.26295186251103103 0.7516728078352087
Ni 6.88819304999327 0.9857427551319978 9.310782542857357 -1.0094680658459647 -1.7018694896143658 1.5287010637160705
Ni 2.5892452831485055 1.7342220062455618 8.8981374494848 0.47107135056321453 -1.4039765922517755 1.1810015272439982
Ni 6.321446198099443 2.0823847392831447 2.552640750722337 1.013899362144441 0.3155520052052501 1.9975329834258053
Ni 4.112054315980603 6.97203750302375 10.468383790510416 -0.9227560690697011 -0.22106267847641284 -0.49908609060858555
Ni 8.245821266774067 7.170973407724904 0.49922037653629836 0.26712424872116575 0.8491168463169957 -1.603822270330941
Ni 7.6243401040196295 3.9148115983978844 8.338393329769566 -0.19963484761994005 -1.6548859217759757 -0.04631816634024926
Ni 3.136425411176364 8.361030426640138 12.571299555414146 0.06961544630529301 -1.0423915560468628 -0.4946247124031223
Ni 0.12583187177701805 4.93260720058473 10.307727496400727 -1.5328564806453406 -0.4570968906609934 -0.9330852189098512
Ni 8.428386677838168 2.469554157380696 6.0563610039269316 0.17525153367956914 0.2700018273792769 -0.5939623683631964
Ni 3.5459231684934793 2.568148352742348 11.534968534242559 0.3751008113031605 -0.6794682606465008 -1.0458946841041148
Ni 1.1591540903846709 3.2365950854610506 12.665270535039582 -1.039730464274932 0.3088432257265068 -1.159612777155577
Ni 2.597186059099664 8.051439763787204 7.9148412139217905 1.324946794611118 1.22043453642864 -0.5421847215702728
Ni 5.63139548428671 7.9927395921893 3.7351164564062094 0.25606233448004934 -0.6718120296528236 -0.7034198863660918
Ni 3.2255757874763753 8.47472748891916 3.634889738919137 -0.21042216804343114 -1.5278626269751752 0.22549474610583745
Ni 3.314861980924924 4.161917318447002 9.250882653114038 0.7376345845745876 0.0053535510024294896 0.0891468314700013
Ni 7.2989584340300695 6.043763510676251 11.511247616526656 -0.02712051036587587 0.27531218384859685 -0.09188479922645466
Ni 0.7805755596559446 0.11669681036638616 0.30018215624991373 -1.0942489070377865 -1.2264722579822875 0.38081174564500864
Ni 4.467379139984397 0.4336614389372496 1.7936510632072848 1.146816139611541 -0.24164487350313868 -0.9339385680490818
Ni 5.878202406609045 5.55646063620029 0.10932103375314327 0.13381383536007277 0.44416912685573184 0.026097725528316344
Ni 7.737195099977719 8.825353039583556 11.641290725355994 0.15229209666991836 -0.020392447613422945 -0.2306120127277448
Ni 0.1200261414008686 4.90829593099652 5.707578039244361 0.16422252955891717 0.0022196333591381124 0.1149571076648859
Ni 7.9971853401847595 8.797990411391536 2.620067626837604 -0.7471268403357391 2.062853144789854 -0.7511745280425515
P 8.313059809776696 1.5915596734217772 3.7304117503808705 0.8897042808210549 3.044583378400918 -2.1194768068211696
P 2.063198303433081 3.3959448186018086 1.3208462166138721 -0.9590435906468256 -0.44511992080477536 2.8147848627134042
P 4.445865703656057 1.0099091530951028 8.238419232178773 0.9922025938972976 -0.5056493456484001 -0.873219138681838
P 8.741318442545124 1.5604484919301218 12.324584988752816 -1.1330849060683776 0.17888398822583385 1.437992544185904
P 6.360407610776566 8.072717783724746 1.3600937507505804 -0.13506416282740608 -0.3269311935764692 0.14697788354585653
P 1.9680719725974198 3.2955397279263234 5.613169728400635 -1.5082157992785252 0.28254469704129404 1.3616541773344808
P 6.954671016964089 4.100998800089651 6.019122658140922 -0.6311898852560871 -0.5332143997508623 0.014824980827974468
P 2.049354008758826 8.228961831402279 10.038086089618613 2.1042520194516148 -0.465633724487411 0.514680602612733
