# total energy = -340891.2272009077 ev
CRYSTAL
PRIMVEC
9.10216243750187 0.00000000000000 0.00000000000000
0.00000000000000 9.10216243750187 0.00000000000000
0.00000000000000 0.00000000000000 13.32193478796585
PRIMCOORD
 96 1
Ni 6.442710734087352 2.1557561226710225 11.508619294254162 0.6979120691739852 -0.6056236067512086 0.624953160317756
Ni 4.856367681514514 0.20949263719202607 5.887948504451301 -1.3609689783419978 0.8298867944427901 0.1494595123171297
Ni 2.913674974311669 1.614095545471099 4.707692052046008 -0.38953061357524527 -0.7665044735314025 1.5176718024851024
Ni 3.355002416313979 4.251365156764904 4.886072588229329 1.0346350520298957 0.6942546749270558 -1.2756931997916288
Ni 5.143686537147994 4.552792363986545 2.8926580815264664 -0.9038679739159465 -0.4962113401639518 0.029930211900529094
Ni 7.332365180912165 6.1469814804748655 2.583575955797958 0.27829209241252717 -0.1207433753293598 0.39709788439954197
Ni 4.954853077762193 4.649147854252528 11.42783487306035 -0.06176998211894522 0.5212382012255927 0.2760678310676987
Ni 5.711597750464213 7.704798356352674 12.697216057988635 0.4557054096301055 0.68849643228704 -0.5250596318542119
Ni 1.8431696644512614 6.735418069811279 0.31685173148054335 0.8648789942472589 0.01505766566407084 -0.964546522742926
Ni 2.718724861850227 1.6608260467960148 -0.04368400759810437 -0.5517787930166109 -0.3020603984767185 2.1089208856821937
Ni 0.6458148001373495 9.085459847094752 4.896610161541338 -1.182522591874215 0.3868954899452433 -1.5370872308972365
Ni 8.76828589906826 2.6544544937444168 1.6789630154247694 -0.40633380117551315 0.23319545718420484 -0.9132334742912466
Ni 6.866989826073775 0.8514253651020526 4.712381486070667 0.2073340160364107 -0.9341370572131332 0.3050508485636101
Ni 0.8636022378469829 7.5411778865792645 2.2590137826204266 -0.1095089400661211 -0.26373013543795226 1.4752588847365304
Ni 7.537182037323005 3.6648127150276832 3.8263524304958967 0.7414305612819102 1.3620395856983574 0.842522995149562
Ni 7.57280790062369 3.983825299841794 12.939355420755668 1.017718735890531 -0.718448241454124 -0.5088958776101558
Ni 8.144077811834123 8.900549419666692 6.637560722763331 -0.7432884404262553 -0.0933079048262264 0.6310983539835453
Ni 6.989541339482163 0.8254814718557715 0.6266556586806267 -0.1383142943335876 -0.8577845492943226 -0.4772620527549587
Ni 1.6731867832197067 6.546320647718344 9.374032980695233 1.0161372503360242 0.3489742894194377 -1.4820411977656864
Ni 0.2574100604828103 5.171366212747734 1.3815380289730084 -0.6989142851862543 -0.7243332394799913 -0.6061416840382078
Ni 6.503021661586162 1.7897854824741226 6.985263323194141 0.8711807680955705 0.8530215806880406 0.40401749433751066
Ni 3.7460677180131765 4.323163013105172 0.4981049100904599 -1.540157128071812 -0.03567405636284179 -0.14736200635815264
Ni 5.985481814520837 5.643686517432425 5.067171030079892 -0.580476932282252 0.5289684799903149 -1.6402900262396716
Ni 5.249289824325959 2.8735344385027717 9.587703510389817 0.06494195208902365 -0.5395316002181418 -1.8048640256007369
P 0.06644669511531301 5.741097858526941 12.355867677069886 1.4379094975537945 -1.5952802942982012 1.141169739959041
P 3.9100886829284436 6.33974707398072 12.777121210302822 -0.4163611035045281 -1.3493234236832699 -0.5098878092097798
P 2.337298750042554 8.8349501358629 1.1591612810241807 1.5451795209870678 -0.5418697614330152 1.3199981923565913
P 6.4060927350943375 7.809072727832657 5.630795124945772 0.7049702615723471 -0.7344392175657416 1.008365062589773
P 4.9037899471753645 1.0636877902865158 12.652840286054595 0.14109957038820864 -0.10149352596081229 0.2377275407266035
P 3.7924250306831793 6.254405200115818 8.325396526012705 1.0672345832324717 0.761754617551243 0.3805579777629898
P 4.867572443324208 0.8763070360061799 3.7240404852110154 -0.2777614167200378 0.08042179289217762 0.3721288731590301
P 0.34781910810844135 5.690935842009293 3.540277840450869 0.10548773472186995 -0.5454795902714605 -0.19138289202379297
Ni 1.4223949049560913 1.2836415426271055 2.6381561619032805 0.7923486882880161 -2.0702031573970214 -0.8826260338180348
Ni 2.016565856550919 6.57960725530409 4.686470360608719 -0.6175334708149172 -0.6270637789028556 0.7470023989427329
Ni 6.012588053894737 5.671976037907267 9.365466935740638 -0.8943872881190209 0.6639557668331985 -0.7462902033670566
Ni 8.545474067760779 2.2690325326804843 10.042887174084164 -0.15601428271651196 0.28235160719388147 0.48988719771813694
Ni 2.5196514698601153 5.083675981005578 7.030770493903928 -1.2271078346837576 1.3516867817091238 0.6931303315146257
Ni 0.6578205522307589 -0.03166278182875958 9.30049570113658 -0.8969157109678295 -0.03793405604161209 -1.102955690783165
Ni 0.9256261922934652 0.9778361953319764 11.583888715301347 1.3308217653346563 0.8766273930324386 -0.9563375045695723
Ni 4.223967648196926 6.856831812930299 1.7195950679986736 -0.327640560938668 0.11609790613754843 -0.8077891912128023
Ni 5.539930969204394 7.815580773887842 7.746438928511074 1.5673899956458361 -0.2686725670448921 1.3449898293049223
Ni 5.2753311107090095 2.8076620898295315 4.9334584452409205 -0.17388704923187473 -0.056262679147470844 -0.09971586523509925
Ni 0.944076275305854 7.496477167450581 7.056881866936804 0.18865238046650737 -0.7001317025331233 -0.05590889535247791
Ni 4.9284932156981185 4.426645496463755 7.315354149761768 1.1442303811622359 1.2412332183415462 -0.021354554416376126
Ni 8.060465348809059 7.354010122897098 8.792290121525228 0.19825262256043275 -0.1761313651813612 0.5940212466255899
Ni 4.529390704674828 0.4416860671975192 10.550692258553658 0.032732714346330724 0.3449551409577156 -0.6526711950583146
Ni 8.310410725977384 7.046384343138981 4.825271054181743 -0.4491146437864652 0.8818295060586684 -0.07400920449761447
Ni 7.206900975562995 5.818156764685247 7.092451296831137 0.17922028851933006 1.7499033530941412 -0.2510736230162063
Ni 2.3829096854027316 5.083421120460758 2.5015663835565563 0.6216798888831229 0.7733454077126358 0.9042731797741653
Ni 2.1809144993095244 5.410489118923594 11.47542097764287 0.7312412794537341 -0.3416481880716697 0.30305155874539424
Ni 1.1200665836652706 3.2330880542676375 3.812471632965609 -0.1495890959164585 1.6966475790937943 0.849551619861569
Ni 3.7494719267189653 2.4506024665389607 2.776011140811782 0.009363957713403228 1.4546144690133014 -1.9179951358004774
Ni 1.159997769740924 3.1852106804910387 8.403449388295803 -0.6256566141426837 1.1176302620762042 -0.686684575889282
Ni 3.8000526427031014 2.5109680070116607 7.065554407190482 0.6478287793643489 -0.6355988129570602 0.05404870221528756
Ni 4.122123554055033 7.012606218788228 6.050955488484683 -1.094090527083051 -0.5610159953441628 -0.31770324722029797
Ni 0.6624553732815277 7.542361167680206 11.33081128408045 -1.2174888235367547 0.1317006456718119 0.8153749739798603
P 0.22265800476435915 5.394751480281058 8.01919159379195 0.558924660032773 1.6889872343350592 -0.38872200163102083
P 8.640946648282211 1.3868964719278152 8.026612586727323 -0.31151125947697317 0.9543269018974468 -0.29685442879574686
P 1.8514344278332293 3.1805321690611583 10.529496963387082 -0.5141306436465339 0.244712713795185 0.22150953620584435
P 4.094553104403071 6.1246538763163105 3.8926562216628655 -1.2391686225030336 0.6129970163971443 -0.23524668328627873
P 6.923978464327631 4.003149190436417 10.476795443583566 0.7607950818514511 0.2907681133923508 -0.3080968344787855
P 6.4432568638262495 7.717659711703687 10.35216863716737 -0.804473239465692 0.09181615077204833 -0.571503525139048
P 2.408605089617815 8.656666082600118 5.78279850495662 2.2213485420570067 -0.7630368266977763 1.0008718395365215
P 6.802036795794344 4.200010756983998 1.7074054522265025 2.0026785321824865 -1.2355968459913753 -0.27664735772025256
Ni 5.506917426488096 2.7674396345598 0.4590539031106613 -0.5276636451359622 0.6268958858664235 0.06496817734126875
Ni 1.7655191177424854 1.2928711352144573 6.974485452797016 -1.5800272247938725 -1.26092761144668 -0.19525934426006375
Ni 6.692073572867522 0.5970654392109795 9.476997551018096 0.8638562094096993 0.05535045174584661 -1.3280172060063258
Ni 2.656566195401483 1.5510448671154913 9.142524033295823 0.9487573782294693 0.06708805189774898 1.7270565304029546
Ni 6.406975644838887 2.0533932052771773 2.6182533737854268 -0.2632154005850628 -0.024254501671990485 -0.05534299554667888
Ni 3.9473620376081335 7.215748277333119 10.610068393982724 0.9091528764639696 -1.8890293446957467 -1.2511008551642455
Ni 8.09194062609413 7.208202584774031 0.2288228993002698 0.14139704702396938 0.09110704052016567 0.32536256353776866
Ni 7.786836145297252 3.911763480794393 8.219420050179828 -0.6715613470945982 -1.8662187745591343 0.5288442957076247
Ni 3.4921537980755355 8.52785228151905 12.489739549749368 -1.8028639644515725 0.3364270488820464 1.5540454560181303
Ni 9.180076824358581 4.904727469893804 10.182008263770676 -0.46012025086834957 -0.9030642470677286 0.5080348151614412
Ni 8.798104582812012 2.5184044736229683 5.827840555172113 -0.10553967100572792 -0.179826040424129 0.9942558768819006
Ni 3.733898126998098 2.6649856955428053 11.498721602952893 -0.08053852097570001 0.4194577401519808 -0.4562700238843239
Ni 0.97489619690425 3.528116441381874 12.57337476818022 -0.10493726153503861 -0.42899781843193213 0.45452912993381717
Ni 3.2716084051844745 8.540304039565891 8.195893691244397 -0.7654433792567398 -0.8468869285452125 -0.20754561782658448
Ni 5.595508772299433 7.761286375679208 3.4952494434788477 0.4686660835558316 0.7468936412790105 1.1252628389207977
Ni 3.1258372757106674 8.325984525698251 3.6271097382867277 0.38705438412061083 1.1694377336657988 -0.9385069041460545
Ni 3.4272553807699944 4.335696690612848 9.381866301583472 -0.5125159908612463 0.31535583003404394 -0.05872553886566661
Ni 7.257390669923981 6.036909031600263 11.451801776651827 -0.3317008470509707 -0.1897988353661247 0.17606940159517417
Ni 0.4662791995562628 -0.015742189723693352 0.3640018424881779 -1.2419500419029126 0.3779987016762458 0.24439209723097266
Ni 4.895852861636735 0.38260757247615224 1.5612110722050507 -1.6357031781999376 -0.7753626952529807 -0.16401889818854334
Ni 5.839264679093598 5.451485257990095 0.24763069729163587 0.17090328401320243 0.9681625222289585 0.7255095191762796
Ni 7.691445484236652 9.006061685221509 11.675237106077882 0.41974287549256745 -0.6837887423987257 -0.19501766056290284
Ni 0.10353891676493589 5.052655811836252 5.7406746079792965 0.6046180483048297 -0.8774288058878115 0.301013702379759
Ni 8.081163665913238 8.922003216243013 2.6913637619315094 -0.1963086114601845 -0.22392765872903372 -0.0007263366430632652
P 8.598912862711806 1.6584867910810746 3.781058250384279 0.4072691685055889 0.4563067906595303 -0.808638426586975
P 1.962608238347939 3.1933753200875428 1.5817664853608857 -0.3919842173220604 -0.015322746399999417 -1.080193971606617
P 4.923441515613326 0.936475969772877 8.172353679065491 -0.8348888756430719 -0.0009664776783273677 0.9228491430041397
P 8.422449241912014 1.6838272109658747 12.724552582069103 0.22663220214439037 2.2201722623607187 -0.027435470503133396
P 6.435738477754106 7.827304358949487 1.4663720021807372 -0.10884533834019318 0.11805374431233862 0.08626822437062562
P 2.0003002924941167 3.297121766153259 6.109665345632295 -2.4295505625206673 -1.7640783590429423 -0.6241093242602219
P 6.760021214548569 3.953870083663318 6.048278542547858 1.230791454182932 -1.4009977121291097 0.5261055566202231
P 2.2773246025493967 8.652033081981813 10.557073784552665 2.0872261743175797 0.2910501634091439 -0.8794345234639306
