# total energy = -340853.34972723405 ev
CRYSTAL
PRIMVEC
9.47482820932238 0.00000000000000 0.00000000000000
0.00000000000000 9.47482820932238 0.00000000000000
0.00000000000000 0.00000000000000 13.86736881465586
PRIMCOORD
 96 1
Ni 3.1706943263218488 8.37463935774236 3.8817261578586306 -0.42431609668554665 -1.2905148381854936 0.3516878316958588
Ni 6.482629912975512 6.09270284329714 8.180485920693366 1.3069830110438458 -0.3669285599050132 -0.15691339749201363
Ni 8.695930773711492 6.114049630680757 3.7724652843248285 0.9704042670752837 0.0140572494240145 -1.0144624337367627
Ni 5.77188516872578 2.343304975112637 3.623792916427558 0.3878797082353836 3.464760513217426 -1.4437610712385651
Ni 6.501551144402536 1.875693791027573 8.233042791362218 0.8279666946019418 -0.14939626317936205 -1.3181814508628267
Ni 1.607793030587373 3.5747862637936114 4.02981582383664 -1.3414170243519996 -0.13374415846440194 0.7533802774446187
Ni 7.143603385975292 6.072379337332711 2.201569128761548 -0.33184122928357684 -0.8693645408224382 0.9804184567781761
Ni 4.932206965658358 5.539562387258275 2.097369708321545 -0.832531688264805 0.26402067009517755 -0.683463754959139
Ni 7.900670564099194 4.3049165060401835 7.4554019718158635 -0.25960685729819805 -0.4016366528101599 -0.1901338501080403
Ni 2.5348480970599083 2.745890414939484 9.618115778614929 0.5080726103779121 -0.044338931126691385 -0.48018179750491496
Ni 4.1184897911888525 9.58947337370562 11.290464601993929 0.23155226515382704 -0.797844935515897 -1.5132150522653296
Ni 4.436607139792909 6.866350970343069 8.090417258666113 -1.9773999601213554 0.04801020933069151 -0.087718583663907
Ni 4.7535401349025355 7.284067710414761 11.963198231452006 0.7789051611886004 0.12097194640039811 -0.4780310697104993
Ni 3.6759679515298056 3.891529762344129 3.2947340365005533 0.9460991146710158 0.05433178067334515 1.0114174762628516
Ni 0.5638204821102412 3.3095195055250253 7.792754168652269 0.23371430580215236 1.4663736664317584 -1.0940427045642511
Ni 0.4083916143979434 5.165107711631144 13.819567163381654 0.7770791637234553 -1.2451526080006103 2.381378373690815
Ni 6.099941611855099 7.0252438351558775 0.41905648074459206 -1.5743142335694953 1.3257158115666587 -0.029478726185407294
Ni 2.042204417516559 1.008548061717315 2.685762209251436 -0.07717577515105419 -0.06188079666519665 -0.029277923028510865
Ni 4.565000533417141 0.5455653310884857 3.6697354097007144 0.26422944367187395 -0.8674228437150351 -0.7565465909877422
Ni 3.4384813888265833 5.7287178525607745 13.179671392651557 -1.510551132279921 0.1634195740416476 0.4789654085993106
Ni 4.413535933721401 3.4761912040892535 12.814835562364793 -0.383393647439572 0.8345461475916723 1.2329285551305929
Ni 7.136942581922614 -0.24796572242194423 4.703964045108467 0.00287449333431763 0.6942155941590045 -0.02881615290074392
Ni 2.0888300458853024 7.246083125141383 6.942600595797306 2.7066458064116157 -2.5262826625370947 0.36803079183025644
Ni 1.8588380720948368 6.648145682529176 4.67144454059979 -0.7426166111702114 -0.9914407760306085 -0.8829962726732599
P 1.739540513307832 0.14548787822144504 4.77378594727773 -2.3173460779002544 0.36692521747090356 -0.38144706523616245
P 4.80731925837764 5.312346538058756 9.718459891559862 -0.12318515200163302 0.09393422555631564 0.5946920474403693
P 0.3819151551592487 3.233313464279383 11.619801094380028 -0.3799751086763263 2.6720474996114563 0.9621014036365431
P 2.49729935387248 5.528514737862227 11.247295390863332 -0.2757554420336025 0.17965120540916157 -0.5792497447433702
P 1.5902551240418448 4.891323083030613 6.116688370266348 -1.045723191523257 -0.49481754514021875 -0.5523470068152552
P 4.111611066093199 2.3291685318031137 4.730520092901988 -1.962554153357775 1.2462219298053892 1.7638011941221559
P 8.034777278980558 5.192366791658959 9.617671409183817 -0.8222904701527708 1.53377436447392 -0.21678744813982664
P 9.115533004546318 8.091673620853005 4.940333525595742 0.18415397837552155 -0.11083794329018977 0.5805489231707679
Ni 5.462797331163263 3.447473000556301 6.251839211188403 0.6256278177872774 -0.6452270800754437 -0.15232500679038283
Ni 7.79788763043853 7.2340879929497905 10.59346309569357 -0.5546208904510964 0.3732161926859379 -0.28982863229721695
Ni 7.719786623601799 8.053613236955982 7.3052600581027045 -0.9025513119870521 1.3524961649842964 -1.4353579347765344
Ni 5.006972833054771 3.263765561328183 1.4830730277614672 0.21328997650952944 -0.03288518076379497 -1.2945715247533705
Ni 4.234338512600075 3.858007821037766 8.200066600146087 1.6981740430406496 -0.6982249724287137 0.09068846492550833
Ni 0.7452113259032529 1.8746326102965631 5.670436290841242 0.9641893965138233 -0.09622456425238912 -0.8121590381457239
Ni 7.644442791700102 2.7817147394390207 11.604962566319006 0.9602517520223142 0.8552777237120689 0.086215002535187
Ni 3.696755724064052 5.124583872465707 5.628750837768468 0.5220637824506816 0.7625801987763318 0.2668175161140243
Ni 8.442914967989296 1.9495027008004875 9.529364117673483 -0.10142744860956728 0.7948254319632828 -1.4559380729207314
Ni 0.836362013283018 1.5390342041147105 10.729016616803731 1.6321573698302083 -3.053417688863096 0.43185328560285624
Ni 4.542962083592776 8.144268390833679 2.0226947992735025 0.5527532411147383 0.28654379089835813 -1.4031718369622932
Ni 8.80307212823166 5.317027103068745 11.675893970841853 -0.6294430777683094 -1.0929376444255305 0.4208533349479268
Ni 1.1034763630029158 6.801173628837565 2.0140689159028655 0.35867326187475645 -1.9648226376769775 0.7566538059895679
Ni 2.474341845736438 5.09279582467519 8.026016853052955 -1.4764007116504572 0.7965246740425765 0.8859167887541647
Ni 6.220035056190361 4.876646574527629 11.587642580816453 -0.7101955145270286 0.8188189666644027 0.3476596843730722
Ni 0.523415078294247 4.829850399255688 9.668190244359455 3.0002207931251426 -2.0022566141537195 0.4143618136863122
Ni 5.482467073998766 7.1303007275258485 3.975857626113178 0.31490948652524475 0.544768680247365 0.760039434632349
Ni 8.898284674355926 0.6971711057207615 2.7184759477332 -0.5391539051637488 0.4444437206733572 -0.22936348503262433
Ni 6.570954259176169 3.830578194106753 9.510324450897016 -1.7237652612461927 -1.344509033013762 -0.390329969548089
Ni 6.787302480710793 0.4038237998406235 10.3057154131351 -0.18740873786739337 -0.9229761555003072 -0.48883844473864846
Ni 0.965210198649111 8.784672012342186 1.1201994343442758 0.07476793704050994 1.5388818609038142 -0.17251793679848998
Ni 8.570900944011443 9.15319544566921 12.158631717757784 0.3277729727514742 -1.4129883088320827 -3.2166984233340346
Ni 8.472362733274819 1.3050249032711363 6.870393879431656 -1.5924106860598897 -0.3835471422983007 0.8853742859871333
Ni 7.6753875798025835 4.530360562412035 -0.22743282275969995 -0.6828986264842885 2.362451711989641 0.2877280410144464
P 0.7556042646875802 4.553412818827632 2.3207596219926563 -1.5586083927984642 0.5596319705124426 0.0014357040052620435
P 4.005350870572887 7.339182784631583 5.761697833708087 0.1257505987359641 0.29743318411735226 0.018827931339780477
P 7.573002588916048 2.052266684805241 4.28680537240335 4.016263683975148 -1.5557416127736303 1.6757823056090106
P 7.354484631779627 7.08133481665211 12.71974618900395 2.3153794410921864 0.22534896455659253 -1.9391362886544667
P 4.5558478496121815 1.7976591079865303 8.819798989504203 -2.0633005167399174 -0.05317555558171488 1.4907155856112326
P 1.2895240847360288 8.636315156215835 11.578836675714662 -0.15550289029773218 2.0467955771063586 -0.88534394696983
P 3.073463641843075 6.420124472953444 2.5912564852926483 0.44970008397629 0.33419738822057926 0.751703403962828
P 5.990497874141757 0.3461609443865824 6.693695917924978 2.6192041305581792 0.059344146286271986 -1.2357115171923685
Ni 0.6701289992531266 8.658135684997223 7.185931232383446 -2.4881429182425796 3.3446897384750596 -0.023339703167204965
Ni 4.795456773777423 9.594684529081114 13.394297090463882 1.647730027457485 -0.30751525094370263 1.2943743211409
Ni 5.297670029555772 2.2949454532280473 11.19412834127415 -1.6314456884751645 0.9681761490757131 -3.066354194419106
Ni 1.5314069676105775 3.096847517237112 13.607327227248511 0.7477593317134155 0.801821917885774 -1.2180359542894765
Ni 0.8827687731259907 0.9189986202620203 13.270003454895972 0.6548324643756915 -1.5861893877405264 -1.1723351098182517
Ni 8.009744783522274 3.718329907318599 3.0423340945954616 -0.14676088243904403 0.4878141172391921 -3.0731496200743846
Ni 7.004171817782968 2.554555739207233 0.16767034543073228 0.16326916450671236 -1.4234375291898647 -0.2696729832849485
Ni 2.6795381947675048 8.370157764119437 13.251407210067821 0.5944051123275699 0.0815440794220789 0.2200306376674727
Ni 6.141460307955858 1.1974856059768386 1.7152821112935068 -0.20212238992848416 -2.5181039833810437 0.2395183140784391
Ni -0.3650319592254417 6.733106464805649 8.507589196130366 -0.009606669851828616 -0.25014596899561437 -0.8647607235018396
Ni 3.1708743480530024 1.6837622011341289 12.375003626362297 -2.072235357335702 0.5307435696128666 0.5974133030262744
Ni 8.619828955573361 7.241601531518457 0.9984460001512199 -0.8006739203242598 1.022001422426285 -1.7711733182165112
Ni 9.2396627255906 9.068850527209841 9.48091174247493 -0.24999735923289207 -0.14444714670420283 0.03196601138363527
Ni 0.7120238460237166 6.916738105410124 12.598324373789335 0.6516908334229163 1.3131562297340933 0.04104740485961318
Ni 8.670358213059746 3.942722257787397 5.0813919217480175 0.43154269634097286 -1.2625744030214836 1.8045588356554922
Ni 5.684432506697026 4.791647892939334 4.296346524154483 1.191727655412251 0.04466906077260049 -0.38314245066071434
Ni 4.403473666432719 -0.25567823237767623 7.790826041163336 -1.017226626745461 -0.5746862937424038 1.8126405842223619
Ni 2.2869960725734293 8.959416264324455 9.615286594987433 0.7734634213477389 1.2353124819817372 -0.8113388562372736
Ni 1.3010833748416715 6.979357243367658 10.050541241604654 0.47530081526352985 -0.5185953642861069 0.9127601341992538
Ni 9.21397646700339 6.0209878705023785 5.936966991159085 0.17680550843025034 1.2064577625335737 2.2345277597514417
Ni 8.00763189688821 0.2532479390071047 0.23805978979452674 -0.6281716672550537 0.7345330628311285 2.8756948108248994
Ni 3.42881706431203 0.6771849036315463 5.924708458750332 0.23489418504286644 -0.6760450938975647 0.0046302996831597675
Ni 2.73633031353244 2.994149857028047 6.26333596742954 0.11352243210088836 0.30173412548555134 0.7058822318636552
Ni 2.6488113277079974 4.338523720798145 1.3038850814680965 0.48648614245638794 0.9441882708015481 -0.3072990211678385
P 5.402783770893476 5.058231652293728 -0.09309018466224456 0.7711417151930977 -0.8241136394044387 0.7616090931123142
P 6.47223602670839 1.1327630562131956 12.290842519565265 1.4548754359841718 -2.029626007305608 2.4076108250247827
P 0.9298084514763872 1.4031083222659002 8.295876060431544 -0.14503567221782118 -2.441977732540427 0.6988749473078867
P 4.636147016534576 8.206612758780503 9.866382800565857 0.14827706197325433 -0.7536713263224762 -1.0169818577245067
P 9.330166282221008 2.255928111707526 0.6367662350564146 -2.420010741351032 -0.6346163944391329 1.8655351182285485
P 6.921589217323311 5.722881358540221 5.885283699627725 0.2462453483896275 -0.39228580772287924 0.5019958080562128
P 3.4312426202686237 0.35351151591441643 1.0858958197315882 -1.161676344552825 0.025891265944465086 0.8375497103046866
P 6.84230385699215 8.496040328335475 2.180241291033842 0.37110891653494793 -0.09072188926660504 0.4157324687815937
