# total energy = -340860.8539843074 ev
CRYSTAL
PRIMVEC
9.35356866829463 0.00000000000000 0.00000000000000
0.00000000000000 9.35356866829463 0.00000000000000
0.00000000000000 0.00000000000000 13.68989321925999
PRIMCOORD
 96 1
Ni 4.7330553614525375 6.965219029445482 0.8494564907478857 -0.48547981267906065 -0.12596965672530563 0.4359408254086685
Ni 4.051030554458938 4.932333140170496 9.138921023064196 -0.4636120660716919 1.6286257025278663 -1.2167668577690658
Ni 2.1237651616534743 6.674697189174195 13.620006212528194 0.14457030254562844 0.6821776891578638 0.7834045917208509
Ni 4.259877033840049 4.430850914017733 2.2869924163284963 -0.34324124359040237 0.2816260418817666 -0.24045908072515365
Ni 6.427903282040971 6.307335782971529 13.008930093970712 0.36515167051024855 0.7120549363332704 -0.22462648456827122
Ni 6.238484164612322 -0.06761881801961338 12.889554239539084 -1.2221427773689986 -0.699853252060756 -0.26439656537735756
Ni 2.3243056721304995 2.526024732249321 5.4772580156194595 0.6648754504339904 0.6550044711771816 -0.7364487917966027
Ni 7.578869250077745 4.095918330101626 6.77328006063985 -0.1401991700611263 0.5323343111387542 -0.7704639723997828
Ni 3.079690517541604 1.9424462346200257 3.379432170367798 1.772136967681361 -1.1737705567131977 -0.5255167739962885
Ni 1.7359100866795785 8.950149172581677 12.133242455481138 1.0607677445612054 -2.0986714400400435 0.8410664652086935
Ni 6.54991123067261 2.1007834436384534 7.640069649333864 0.926148639691018 -0.3783540281331355 -1.2590666469785412
Ni 2.59162130874071 4.1223795756305215 7.5176127294101125 0.5896807102687069 0.7254339287433377 -0.1103923711123389
Ni 5.54764829601101 5.556468711187309 4.033562765125176 1.1615634731240447 -0.06395721957825114 -0.33988081175860174
Ni 8.541791075267966 7.653688445194616 11.256199484903501 1.1266064974328855 -0.33159286071819666 -0.4437397526277971
Ni 1.5229573906893528 6.452325449618187 2.5518237451223493 1.061167036882153 1.5612391455530918 -0.6363292633651815
Ni 3.937347281868557 1.865634729394404 7.092308771889722 0.7184405281446402 0.7513326508869704 1.7364086610418161
Ni 0.8928299236365522 2.8747818905350653 7.183689395544401 -3.056988179823174 -0.4613541232754506 0.24328626576130358
Ni 0.3081944727570753 2.5839139682261076 9.441412625054582 -0.9708796640498055 -1.4359238345823333 0.3626633568707561
Ni 7.234321197655558 0.16887681010077402 10.937540239612764 -1.575557361947977 0.8046061654991304 -2.634647718806759
Ni 1.6542814936323302 6.7325864251509815 8.15699929400588 0.8365433805273592 2.0872140901327216 2.446441681849051
Ni 1.760229365002352 6.415388207273329 4.959725065773666 1.8127359721496459 -1.0540954747473523 0.7761160284792376
Ni 1.033990239304233 3.3158213564871497 11.565810087944447 -2.585923771238495 1.3113353744752705 -1.5299899577308231
Ni 4.154976762151624 5.599298701741147 11.856186947902657 1.9676176839236112 0.9183160310204767 -0.1238407833077609
Ni 6.192651678542479 0.7540846993776947 5.812633023329668 -2.0192809166258576 0.5816326431532498 -0.7123228452826764
P 0.486958940209774 7.764575000777879 6.475771104635059 0.48709626523656113 1.2291076387226059 -0.8597195615335065
P 4.874097822156038 3.9570458973100036 10.594567328140405 2.020458996094359 -2.6302369913335735 3.52024594787924
P 7.291153480382162 5.255152852768143 0.9169836437953593 0.9461009144432286 0.020207842406442616 0.6772889936069949
P 7.959306945163195 2.0558956679957645 5.819710868678454 0.8646686780086658 -0.2847445329060902 -0.4653647870967405
P 1.1333625519585202 8.608360422892265 9.766301347023381 1.2775724190922126 1.0570355312122828 1.6375605431236506
P 5.291528880997861 8.010050054740521 2.780910411566018 0.10118190825766445 0.21385356232248331 -1.461937742147592
P 2.3611306716523304 2.0883057831451532 8.74461105040932 0.11425391095027418 0.9665915781974127 -1.1445229727019903
P 7.495790853899716 2.0619100125963583 9.663750691763681 0.1380625833340977 -0.23767534733242937 0.06981830634471846
Ni 6.902437877098384 3.758843778979399 2.509891697152736 -2.563354370578411 1.8842044125032775 -0.9619489372190787
Ni 5.1427042512310726 2.012102259877601 9.306512652841297 -1.8074988921204227 -0.1047364583781422 1.767733696407343
Ni 5.494912876324934 4.1386828456753655 0.05607932045545731 0.7945104718260253 -0.2698113086350256 -0.0672698288912519
Ni 9.00065844294436 0.9403984320358975 1.0369768337536414 1.050237791564159 -1.002292631143448 -0.3486379891259415
Ni 1.4833730884347462 1.8810494104236084 13.022935192214051 -0.012944990196442224 -1.0193930382691605 2.057312160366967
Ni 0.7185168194737798 0.8376663175456333 6.034970154681909 -1.21159636931172 0.4159147599957289 -0.4143816111806541
Ni 4.094786548302759 6.8972840608076735 5.546898139810438 -1.4539069014233152 -1.4267164570514526 1.323796997277391
Ni 7.266712605667775 4.231722792397146 11.65000342949789 0.09648887365736931 0.06603467093257015 -0.2679817116254546
Ni 7.192585574626244 7.001024489991473 2.4808413838393246 -1.72699970902309 -1.7470501999160621 0.013682639693415145
Ni 1.7726976719270662 4.011698798556145 3.407674335355407 -0.07941751999737937 1.5165855113994593 -0.1983914621311422
Ni 8.37526014016848 4.07511599356707 4.202783786549904 1.4179399964104031 0.20885379511504676 1.781660848011396
Ni 9.050821631269374 7.600036375787144 8.71038634295431 -2.548655888025972 -0.12736525152125164 1.3629867801029754
Ni 9.319390646070064 0.7141692807951547 11.420478080687552 0.014927310733793648 1.4031083307142094 -0.24338576745364535
Ni 5.822839637370365 6.145257146518828 7.302202850952429 -0.1465935036232443 0.5539369770101944 0.1517303106291774
Ni 8.992118634825632 5.444300716707808 2.3635186377122546 -1.1314954500940706 -0.7492629128421354 -0.8136747034593018
Ni 8.999171225539238 6.824363640113695 4.464370362401383 -2.006142322361371 -0.04560159988919889 0.28367598243225983
Ni 2.1108198227308903 0.5307963101002905 1.0663273966186533 2.897908627917777 2.4634788398369962 0.6599846980005923
Ni 7.034959236820328 9.027680902588395 1.178459847537528 -0.342574556540681 -0.9580177204854727 2.2329349613430254
Ni 4.599926019772524 4.277630107015674 6.213897374227998 0.14120164318371167 -0.1601661001013564 -0.09507913779403625
Ni 4.364665062705447 7.433168712218574 9.429694474330438 -1.080911309388616 -1.1449798577337507 -0.6941616009926174
Ni 3.324407932448806 3.2914646638900336 12.216053339597615 1.4223923757548018 -0.5417247512147186 -0.5235331679073564
Ni 8.639741645497228 0.6001923061511835 7.853480670184788 -0.24799112743614066 1.1104666544482296 1.298473430910938
Ni 4.506334212504188 0.1329759431552088 10.549869429940005 1.3689658805045457 -0.7666158022982862 1.3263025373080641
Ni 8.890735304925423 6.064227181861064 12.901176983863651 0.4739167904318097 -0.7467882260493978 1.3160006411614238
P 3.5351251255470535 0.9400617035668128 12.601642044903203 0.8656426118861608 0.5462671191697624 1.2073571344193919
P 8.546832648735647 8.549853851388823 13.326166661479565 -0.4126666853720764 -0.4415746266556782 -1.0410620386021618
P 0.955831820202273 4.426183483293478 5.403127243150493 -0.9485097809950375 -0.7094856329441975 0.9710614410433082
P 8.476409630854047 2.7808346476604737 12.870060467249663 0.29410643373696443 -0.30189867608787363 0.40074962221951627
P 6.1807913535758345 8.522064399120762 9.178881338775946 0.7301997255630972 -0.0173397768300282 -0.23616765243865132
P 3.4792843210905313 4.850573597163049 0.0652402055282744 0.7083263225287737 0.7360551559026098 1.9333397365773475
P 7.637385175149773 5.70643447632155 8.464255603833811 -0.26085589921395075 0.3188872402260702 0.558103192572742
P 9.392479430998584 5.411179730345907 10.86495654738787 -0.3135573433727245 -0.05327608571532114 0.4636948555934853
Ni 6.398991401542628 3.9933564505596215 9.035178723166679 1.0300934554058 1.1139965219783587 0.37533606724241814
Ni 3.3119770397984345 7.770542577535544 3.4890475759802664 0.0730506972390871 0.33382406404156056 -0.5256309309766496
Ni 8.746147841727948 3.108031830356221 1.5890272577511773 2.5666700652152055 1.0421493581290695 -0.9376085607015013
Ni 5.0099396987259 8.891810965312777 7.322929423581441 -0.014656316460594112 -0.7356193539167718 0.19384575174198873
Ni 5.804151207336171 2.020034086038259 12.027283359828813 -0.5921721092319931 1.4433322112312628 -0.6749824569610053
Ni 1.71591215704339 4.438502133120821 9.783947789517129 0.4321960136542556 0.5938145299314225 -1.6997655558974858
Ni 2.092112685559526 6.1499339308116685 11.346676553832802 -1.8052838867469747 1.2012386802264794 -0.5320854283527416
Ni 0.5997957148431505 1.8907022932040323 3.656460552597381 -0.7556541610804598 -0.8459155657708786 0.3220018745956519
Ni 5.935316299613192 7.842649237762568 4.827795786943194 1.4259484685371766 0.8064175076762563 0.12348417129929054
Ni 3.8896627892187494 2.4170837189318806 1.0035228603500905 -1.2812007598734194 0.4593309221978348 -1.3004372395055281
Ni 2.5562461123496596 1.2842917346570872 10.696420207183614 -1.5532746392903765 0.8115118914800282 -0.7259178103582917
Ni 4.470771944741424 0.14450421643706207 1.0368823627109258 0.8261890338762287 -0.6894027461513934 0.13139468439561885
Ni 7.768821520915778 8.049709185543813 6.89562660845429 -2.320566384609765 -1.4268696947998654 -0.5666472254880113
Ni 6.77849373976951 1.9892982596657078 0.7506687761302037 0.22021858530856267 -0.05239239755878719 -2.0345800088767736
Ni 8.746811945097532 8.506415878876915 2.797310958724153 2.090537755189316 1.21835914195685 -0.8046282769863174
Ni 7.891147490879329 9.119121389082025 4.883225969738806 2.6704765555799104 0.02527394407544034 -0.8369159333754296
Ni 2.947524593425915 -0.08720238456745609 8.47730196129712 -0.8553875098170558 0.3457863786097593 1.323060890442315
Ni 6.300395435080953 6.613599679172519 10.706933618273922 0.5720144033371956 -0.5149125161178809 -1.7300636926603945
Ni 7.5234961240505065 1.5029501074845788 3.4192559239781986 -0.1658605793829724 -0.22256343139165544 -0.9597912674461276
Ni 1.5101523552955542 4.373158102981245 -0.1880581731994324 -1.7677694347412845 -0.4335553558956275 1.4126499516560576
Ni 0.05585857623683521 5.698858085767148 7.210836257650627 -1.0832522988169666 -2.0560664608853236 -2.0973542638905167
Ni 6.225127268671968 3.090849324864323 4.609058844139583 -1.199873167337521 -0.13912059228496687 1.1444386405183
Ni 2.4873664332846968 8.691710072559278 6.218838864511814 1.987834010970486 -0.6459922403762423 0.8299215043354674
Ni 1.2670718148908464 8.709846642046916 4.343734582281265 -1.0908758768004954 0.1283378998471661 -1.736812581348454
P 4.978829729609921 7.791120428424044 11.968512082334398 -0.4352476559963859 -0.9999734960919683 -0.0007109100240955498
P 3.3758057918271294 6.170988813698039 7.537285154859519 4.490208499431415 0.13161399949527655 -2.2700586056682
P 5.500908513788356 2.067447325199082 2.350746339808506 -1.0008713253158892 -0.05501363723171816 1.9092510710592603
P 3.604921454333414 4.808809913427977 4.367144693737511 -0.5050237962492593 0.250407193076801 0.33918635679473846
P 3.9497501138131716 0.858464912652756 5.303163784961592 -0.18674333636925258 -0.9097362597712655 -1.325488783157517
P 7.180294985504657 5.998649312506846 5.467442380745645 -0.28961960161020445 -0.4110486901526792 0.09393653954916081
P 1.5788262558516324 2.531496569871945 1.838840496823859 -0.34677676754748665 -0.14820892773948025 -1.2114603579544876
P 1.1244298939591937 8.26640330896831 1.1420398575354576 -2.4105172000382997 -4.252229761925955 0.7377184025376456
