# total energy = -340895.96405874524 ev
CRYSTAL
PRIMVEC
9.01107609425467 0.00000000000000 0.00000000000000
0.00000000000000 9.01107609425467 0.00000000000000
0.00000000000000 0.00000000000000 13.18862071747886
PRIMCOORD
 96 1
Ni 6.477143478831993 1.9630719395532936 11.496336295565573 -0.1261033540896925 -0.24475513699734625 -0.09421704690405709
Ni 4.363397335803523 0.3905283237934108 5.947038992888687 0.9179077398384643 -0.6412025322970828 0.15463128632605627
Ni 2.867279359774159 1.7484371179173137 4.67465342092629 -0.8945564667070335 -0.15005163737517382 0.11025353154162948
Ni 3.553445771593084 4.390935184366416 5.066751474176395 -0.8281757252889543 0.24284814978262045 -0.6649654390446355
Ni 4.8918969490933435 4.492895510442704 2.7538632526514024 1.1332270880731967 0.02311833118501825 -0.15338224441030357
Ni 7.110703228376647 5.999538423357363 2.7271823574256597 -0.03959370313222213 -0.14540025464609152 -1.1507602118609537
Ni 5.1075770555569715 4.570850329787466 11.396458429176093 0.3916144926874675 -0.13427483415689134 -0.5635161360581973
Ni 5.472435526863107 7.930846319656664 12.429984703621741 0.6570533832864104 0.027509775384494558 0.09107618728223024
Ni 1.9141237741757948 6.3716147666199365 0.30394269575966437 -0.29301628599657925 -0.503731559800397 -0.7476636866758156
Ni 2.5377803510860844 1.6197589512032704 0.3581605384406907 1.2175255903119613 0.3506426782607961 -0.2035768629868236
Ni 0.5114470528773796 0.01789960156588064 4.7062669792094045 0.11402199744512621 -0.22281822771493884 -0.08810913423410632
Ni 8.62340158443079 2.360505450962459 1.4006447236377697 0.1720245421018392 0.27086520382083673 0.11500158774957613
Ni 6.704087430421151 0.5673842088783666 4.65311694904628 -0.26147862039961417 0.9373794754098308 0.3824662505292961
Ni 0.7888070741407955 7.102295894374953 2.3804929188608077 -0.9914598021940022 0.7475752407270674 0.9434485644220462
Ni 7.574034739308207 3.8710411487524996 3.910004140703119 -0.5389407607116783 -0.7986352926276763 -0.4773312154299973
Ni 7.6222079521410695 3.9841031205845097 12.585676274269634 -0.0087602626911333 -0.5994113072929096 -0.06151749978850696
Ni 7.856712196578482 8.87741480862562 6.6858922655591755 -0.37753101801120786 0.1973465658063956 0.282136662969598
Ni 7.032018511867752 0.6214083134232338 0.4210127942411424 -0.7391114262304304 0.3618861123850993 -0.004842672804281982
Ni 1.6543074169722929 6.755234298367152 8.970385685184125 1.4227831834353173 -0.2117020631971193 0.5576223962815815
Ni 9.176879900670983 4.9094325031847665 1.495510629500195 -0.7860268598350464 -1.0374457820058132 -0.8682661655519369
Ni 6.507591904975322 1.978706156587528 7.064207877913683 -0.6185755389261862 -0.37459481820101936 -1.0972252160572908
Ni 3.5438760087744345 4.276269240988531 0.3896299195061986 -1.7607670352815226 0.1832417509738973 0.1963158105490361
Ni 5.9100944819845616 5.6231998410992885 4.926675197302926 -0.34731104278440184 0.7418910458580965 -0.5400059687513991
Ni 5.594941106448361 2.7799710434371585 9.306919640983798 -1.317622235925247 0.1770137677863145 0.10183162602652139
P 0.12215685094016697 5.553490156386414 12.503577261026287 0.795485948365417 0.6793044813751269 0.2078317816084356
P 3.9188719406935455 6.182931844153175 12.484243096145219 -0.22948124155741123 -0.011307197482703106 -0.08070050047486102
P 2.334490474260537 8.196664053543048 1.4554960449686558 0.6673863897813022 1.5223208712213396 -0.20935901688623945
P 6.134785664548614 7.772278413517517 5.806276973123976 -0.3170152200143379 -0.7569852211870576 0.3428602061018998
P 4.5770048947640545 1.1233567909831572 12.585715923004477 0.8412199600674222 -0.4323680204557457 0.20740754958682345
P 4.000422179402376 5.943174142349216 8.223105254144519 -0.8016532535183936 0.340365207594188 0.855395994457488
P 4.701592032928506 1.075462921509408 3.7499728358052637 0.6566834015415014 -0.6163823879296094 -0.3843148737022607
P 0.10139443049718189 5.418873690522192 3.6044106158018576 0.6395454563096341 0.8257393479333199 0.7923661717895127
Ni 1.6244717440037917 1.0956026765938538 2.5540291235103676 -1.2494653764433514 0.5436003709708767 0.14985186265954192
Ni 1.8184982345981038 6.449119032159676 4.796055143689243 -0.3192646781701469 -0.1568105533655622 -0.3063621111758659
Ni 6.093866367976592 5.555778969715922 9.17193372099946 -0.28186335470355334 0.32906546631065264 0.8366547092942429
Ni 8.564018592929001 2.2908137884017856 10.140163034698611 0.48638946897752366 1.0290483019707375 0.1746763779023895
Ni 2.2359994124829115 5.162499564389051 6.992066103761305 -0.5950059791363624 -0.15953797959905427 0.325135278018311
Ni 0.5135502380392184 9.215267084858786 9.214506550035908 1.2902803535771843 -0.859462451217378 -0.08151399751509186
Ni 1.4759061323361142 1.0806983567237538 11.350865988538393 0.26216536205399366 0.6763759948744223 0.021588267693737014
Ni 3.9385521308968703 6.6906429048793195 1.5399163114154706 1.08038371901992 0.987764355620286 0.5110664028989134
Ni 5.489700748671519 7.611646970951373 8.094252272554128 0.025651124909200986 1.1840192310243995 -0.5006529208750733
Ni 5.271416441214867 2.8457428878941475 5.045122188212549 0.4942488171209424 -0.4832794625936322 -0.7003183646226326
Ni 0.5169203805007766 7.406644989666746 6.870783327202879 1.3147845093661357 -0.6822111134989606 0.08601342804734219
Ni 5.154695972486085 4.521884142257766 7.056347516231284 -0.9560392566028633 -0.29061436142330593 0.7179414770210345
Ni 8.227112479686378 7.282877859427433 9.242941901778407 -0.4003719271651234 -1.0769901199573388 -1.1834733858232587
Ni 4.646921834227238 0.4762434818758563 10.31277560404788 0.26914513580593646 -1.1133452615476052 0.40008859159674964
Ni 8.060587793350557 7.045796447225299 4.8349748824745795 -0.0477196746734662 0.4700557648145066 -0.7409135124361756
Ni 7.276353840330727 6.183751852078314 7.016847464145079 -0.006238267600227966 -0.41597235270654165 0.2615228433739883
Ni 2.3178380056269545 5.12649130429176 2.6920085229752675 0.44478850560728556 -0.2952240922811754 -0.27895389436624213
Ni 2.4452365995347383 5.296025690045123 11.083901144664424 0.23340448787121737 -0.26379672700982953 0.707741139449265
Ni 1.0959270753334691 3.2804552211307634 3.7307837492494125 -1.0384415702601792 0.014663772659761843 0.308929614792726
Ni 3.7246111621206226 2.527742012310213 2.4580296242745088 -0.2369400118283016 0.1543302101458697 -0.3962324510754531
Ni 1.133611395585439 3.3430822000287046 8.216893018280889 -1.1859043638622544 -0.3558666456638968 0.04034677924816277
Ni 3.567331839863836 2.645354577572937 6.975619988770423 0.38490854142220166 0.20940041164713613 0.010672135001865491
Ni 3.8241294865736966 6.75986599148277 6.1347000593256595 1.4120025478800455 0.43981650631399094 -0.3964257980331818
Ni 0.850394174856748 7.21468203549943 11.238696113240325 0.6972798349066249 0.5748454450280874 0.509773909339735
P 0.17575653380070425 5.416161356615965 8.043449627715162 -0.13527936416200573 0.6984800258623132 -0.5346138512015502
P 8.456579532583655 1.5069132451976706 7.976266648740847 1.2945787238422222 1.9208552309570919 -1.187151091785162
P 1.784814832134722 3.342487469006077 10.465789983986335 -0.006946606521162231 -1.4087647576690383 -0.5208491933172901
P 3.9525553431569276 6.171839209473554 3.7693079017939417 -0.23223412171220006 0.22447144704764568 0.49230686290322306
P 7.023944587681773 3.9724608102627625 10.404727327899426 0.02383078387101057 0.42709725897510964 0.7136485060726355
P 6.348888832694669 7.739658318033985 10.229186158817523 -0.6493971522927332 0.39924886930427367 -0.0042682883580507135
P 2.2794868657435536 8.383175306669607 5.807965648785195 -0.03441498714476009 0.2448032166264623 0.19790526652334303
P 6.873585771870111 4.015173310978768 1.51711378334335 0.43595188115226213 0.12307330901411707 1.127681732774935
Ni 5.351714140345738 2.9354301283216593 0.37397677921215344 0.28860684407497394 -0.9878324898540601 -0.25269958865540354
Ni 1.5869225898933281 1.1512010161334651 7.010622612774907 -1.050045473047695 -0.16862605794325153 -0.6920782361010275
Ni 6.936275828300755 0.602737363743157 9.080364967882181 -1.438988075329954 -0.8853503747277333 0.8475232765776306
Ni 2.828441621781335 1.582660350897828 9.10974918593805 -0.5501751959749169 -0.28856802041723856 0.5536186744388273
Ni 6.3940253128816895 2.1100876461316984 2.5068930855366633 -0.15536790738176467 -0.42741479021552836 0.6130695215062925
Ni 4.294913157440306 6.8488683901266505 10.404872406224644 -0.5199048271261498 0.6201377412069835 -0.8705503336004232
Ni 8.171685350592675 7.442238740263417 0.31783777510651695 0.03953328220793192 -1.8182515026512363 -0.4935556477086596
Ni 7.4135564850357705 3.8464499220744446 8.167171702573972 2.2897218884250825 0.2913029028498983 0.23836517431060242
Ni 3.0993956690449598 8.486406194476055 12.557822136935615 -0.3515430785878784 -0.8147285986451129 -0.6559817474887863
Ni 0.14552887902183462 4.997110273641884 10.247070441554033 -0.34367704557624035 -1.3107530196092394 -0.17871558096876963
Ni 8.6556071704137 2.291264342206807 5.6583664666888 -0.27309023649661357 -0.16288169926030657 0.5040483197098674
Ni 3.785904501755701 2.629359917494685 11.302239518577677 -0.8307612266279435 0.3214370032311174 -0.09227740667918302
Ni 1.0612164101946389 3.3875428495081925 12.687084221380966 -0.14206681939748436 0.41894043419593013 -0.9074667470107984
Ni 3.1269965951405565 8.447000758688905 7.85900641655365 0.04629219819832028 -0.2922413555037677 0.9517493709782576
Ni 5.53106158797246 7.7991674646011795 3.489841090938247 -0.8421527562943366 -0.1403837752681066 0.22641211571378425
Ni 2.8246840030474587 8.44069300541861 3.585827974667565 1.6407433117270065 -0.8921792247241087 0.5694250453434645
Ni 3.3703136720041833 3.914231236501828 9.0401133920492 0.7611316392552634 1.575959739592718 0.34755452625377564
Ni 7.370609696341153 6.241954392610947 11.435616060370482 -1.1061664844109786 -0.7653850152149786 0.013531201717215405
Ni 0.6084855291876169 9.136059725936066 0.5466145795745012 0.2055057045784203 0.26526174159113025 -0.4465810787313341
Ni 4.7156222784168635 0.3500244378296185 1.5553342626232947 -0.4220740947289054 -0.5160011211963694 -0.27831240412750136
Ni 5.717942295219138 5.453746555030829 0.3550742448762957 1.1391753352368317 1.34654071873181 0.5001225022929
Ni 8.101606211759684 8.713305090684711 11.216315303529704 -0.8753636958286666 0.4196544295438192 0.3883347934949312
Ni 8.994063188745598 4.868567273069347 5.7203401425694596 0.3686841091435393 -0.6468664154510795 0.8400254255386888
Ni 7.871472339230976 8.612480160197077 2.61689940146302 0.4829156514963102 -0.05736491107271411 0.15595746133664753
P 8.376101611930775 1.4820066308561008 3.5373988472734506 0.5968258059539204 1.37247415076812 -0.41486369302339526
P 1.766567403031365 3.2454742237089205 1.6268822068606548 0.5729639117346584 -0.3363594288689046 -0.5377593388090673
P 4.803444226091589 1.0967470832586077 8.123781568935215 -0.23409765728350007 -0.7127036256608629 -0.3255826499683747
P 8.549555815787821 1.468913537282186 12.289236200471182 -0.169592792731895 1.4631371617723319 1.058179415008739
P 6.3606212537774205 7.686916489618208 1.3616330718762077 -1.3595975519157681 -0.5604899476373637 0.10672263557023556
P 1.723422370662539 3.1694838189540513 5.881900627081558 0.09944281407937067 0.6581193626570795 0.5709988175884876
P 6.8961585175016715 3.994844323296214 6.053550813503299 1.1246730278555988 -0.44384336808519687 -1.262238874058936
P 2.5062686179629043 8.552340238302852 10.122912230611961 -0.11511754450215012 -0.36186194401538324 0.21031778125508294
