# total energy = -340896.51169560076 ev
CRYSTAL
PRIMVEC
8.99162193281134 0.00000000000000 0.00000000000000

0.00000000000000 8.99162193281134 0.00000000000000

0.00000000000000 0.00000000000000 13.16014758574853

PRIMCOORD
 96 1
Ni 6.2864924924338395 2.1002450738721468 11.389567946529063 0.3747534552660707 -0.6008668087925135 0.4744667493980087
Ni 4.724935490108158 0.48494694542363265 5.98074767348515 -0.755106516107106 -1.5508871128948063 -0.6978099963784821
Ni 2.723966914282156 1.4223397195389356 4.729467267575349 -0.07674434404059041 0.43509698935113456 0.6537472017313127
Ni 3.3472481652161887 4.113954778013644 4.788556610439224 0.5207502058455806 0.18028112568367663 -0.5860382284201132
Ni 5.058632564239897 4.559750403104651 2.592812418905788 -0.13546731180309574 -0.5435908578891799 0.4389832117794181
Ni 7.271362828815536 5.940270088913615 2.4651979250945653 -0.9213054526661038 0.6807730955008533 0.7371643298063886
Ni 5.169004723783091 4.358266138253821 11.588522868122908 -0.910456939987374 -0.055646385719710624 -0.23102210368196985
Ni 5.485258051314928 7.730645886844611 12.318871857530308 0.21999052845815661 0.7218917199180341 -0.1439774061566359
Ni 1.8238426148613245 6.358038828359315 0.43576906744484634 0.5779662500452563 0.5605092309110734 -0.437995136834536
Ni 2.7187697567900204 1.5923083494244779 0.40104612092688635 0.06392559500936733 0.19170967923559243 -0.23291315005709565
Ni 0.6420548584216283 0.08207732356351938 4.556990874325522 -1.0296203724241237 -0.35457955142135705 -0.004942945827572133
Ni 8.660145815204556 2.335205147275263 1.4622769076307531 -0.1958429846776756 0.6548460912224463 -0.5860333433241068
Ni 6.904351795326768 0.7001173580578184 4.736719010685051 -0.7372229509584658 -0.37320179450823465 -0.2465857624481818
Ni 0.8178275802815196 7.217862678161197 2.5124695792181044 0.0002331990567286306 0.25804696901024593 -0.13240384238642358
Ni 7.681560622572 3.804031552340742 3.9205135190048828 -0.8248458895847731 -0.3414900652272506 -0.4936086124337822
Ni 7.533477600533964 3.9806000327439794 12.690672728036484 0.42310562131721324 -1.0868796111569088 -0.25966650689153986
Ni 7.803999538783788 8.83227243436019 6.793939173484758 0.8349891486663619 -0.22939716648403718 0.9124703708729769
Ni 6.762194252159524 0.658113895239889 0.2897460259975514 0.5219889633486882 -0.32027486460221616 0.0506594740280805
Ni 1.8199762174190783 6.482321027072639 9.143959816261392 1.0209549834396419 0.31505141141974774 0.17248117002328361
Ni 0.046739350103583405 4.843759774292543 1.4285079722026126 0.2936968570033716 -0.5745459115097976 -0.6241106098118026
Ni 6.277159188840695 1.9014582956089308 6.9671133165985815 1.5263510754266552 1.052121638850433 0.628300479523434
Ni 3.3937348507427325 4.225891479777656 0.363964671969156 0.03952582600876419 0.6541765759592476 0.005075357640378355
Ni 6.033926823235564 5.462662105332683 4.845960923348037 -0.5575403780907365 0.7067183546117055 -0.17376466472139748
Ni 5.092665853353623 2.854426357281116 9.30426425086571 0.31643337936893895 -0.1942833535000396 -0.153367074901652
P 0.09154729981043537 5.640309580370966 12.378500697711706 0.2667264990621148 0.4387245588013928 0.041619475312999296
P 4.054385282537174 6.058482942804807 12.524420335506477 -1.328231378899661 0.4072611980857889 0.21376640192531574
P 2.383058559339531 8.401681642001366 1.521563167015524 0.02285196489750903 -0.5183963609014233 -1.1581441630298506
P 6.365699690268138 7.637888314718533 5.7604862044979415 -0.30393061891623785 -0.484838579550636 0.9148373284432566
P 4.762556436383411 0.9972248249529677 12.618778416341206 -0.9413564577797077 -0.5692617802927228 -1.0962916484994278
P 3.943482617298414 6.219208185316794 8.277298737122104 -0.3193019591659856 -0.39156281351392563 -0.7293702876832664
P 4.707725525679183 1.093102489898719 3.7848056662686234 0.19087767025260033 -0.3534660066422042 0.08834618994557689
P 0.14393878347726546 5.467706405251521 3.615974476560858 0.37113025669118666 -0.042107984913643606 0.788653755934932
Ni 1.4833298912848825 1.0871590277840102 2.5497128773710918 0.15270630138920152 0.6444102406011031 -0.1498192096493936
Ni 1.970163278995453 6.468743677914983 4.680275003001429 -0.249789356987144 0.10838742486716817 0.978804575323837
Ni 5.822282025571389 5.407615395701446 9.074040064748248 0.41961894832019353 1.3430283347031775 1.350782010506667
Ni 8.5018752854873 2.3624407701882033 10.182361773974284 0.2871878522402602 0.1574168194909934 -0.5118356769647702
Ni 2.599343033934401 5.228924892515952 6.767961478483842 -0.9415192086098173 -0.4835939085102574 1.4978236574109236
Ni 0.704255302483218 -0.010602920613713773 8.903326928564525 -0.17395981145133912 0.13871127266169014 1.2276056002557825
Ni 1.4204424873056474 1.1414594327926748 11.28310264672693 -0.06719680956147138 0.8757686445765691 -0.2949476986913372
Ni 4.1018340716132995 6.731119206670214 1.7326909464170726 -0.158227745428063 0.7476896548177445 -0.7043598816818579
Ni 5.508141729199851 7.857095066449986 7.988459965780187 0.9895150197628056 -0.018128591279910716 0.4721123902332192
Ni 5.39110677778525 2.8185497856658532 4.996802575003006 -0.5353098488273104 0.4107054478806475 -1.207546110501746
Ni 0.7242310898266936 7.269123914947817 6.929488773674545 -0.18037985604506998 0.500432577334151 -0.4205964817421144
Ni 5.122949636110567 4.438911995601514 7.126706513905965 -0.30914867278206754 0.4330825300242671 -0.695760570048621
Ni 8.287020478783864 7.211127953314121 9.164502974950462 -0.6844983668712405 -0.9372236665582568 -0.15920090797460967
Ni 4.574811369885494 0.35255879951452923 10.311462582895281 -0.20723888521944306 -0.25134821683383163 0.647259022903808
Ni 8.08793697699601 7.288294052963791 4.399608716857785 -0.1495824110482392 -0.4620809741391461 0.7185667693098592
Ni 7.295909956762822 5.990955861894878 7.118099733367085 0.04774024349875649 0.6062005623006012 -0.7427965883915014
Ni 2.1758736061668773 5.174984152385636 2.681682912859115 1.2387929843311698 -0.5652364611834136 -0.7393171144833331
Ni 2.2778565824225945 5.3094628504001395 11.323253835421363 0.055511659914059236 -0.09259005282359538 0.5252768900713405
Ni 1.0673774594748426 3.3023170302885023 3.838512624228013 0.10185528017560525 -0.2926085090351993 -0.17162010757456894
Ni 3.577235871676137 2.719534044656511 2.7322967528647073 -0.46515138553435376 -0.22152984792081848 -0.4201429391444636
Ni 1.1374401777771304 3.3884118105431744 8.089622006951075 -0.1634781951937249 0.25587387261832706 0.03450677552761799
Ni 3.6701283181315953 2.6826324281379548 6.997210972780979 -0.4234498920305094 -0.21864764127701697 -0.35210974972462583
Ni 4.205453523065502 6.869383377529335 6.165568664522094 0.35651019278516666 0.26456085886936376 -1.7761250057948315
Ni 0.7974121026242628 7.40730716120931 11.191060807708764 -0.7177584144759509 -0.07707215969365436 0.6237825370484226
P 0.35798794085319985 5.4980261544963 8.031098237108402 -1.2495551079436802 -0.7412418423098719 -0.35181921506740055
P 8.504608738562748 1.6524263338404297 7.912696559156076 -1.361922343394203 -0.11872737334059554 1.4386954837901997
P 1.7517657732402852 3.342914203432089 10.333216013899994 0.37029361972250424 -1.3201645427311264 -0.17657925135205718
P 4.023022505145185 6.002159422855433 3.818166382059838 -0.4509848642259846 0.5843279305972259 0.933356984513999
P 6.8605805796317565 3.9304357738363223 10.323280271635618 0.2250653718779027 -0.366518211840472 -0.43082895810339994
P 6.431212647859317 7.683197097768486 10.095530579881194 -0.8356702338937866 0.40484127579038665 0.7683659522201735
P 2.1834175769902373 8.38719613902588 5.781068926323631 2.206613035619045 -0.18623297239173733 0.06585186549780271
P 6.800246796288795 3.871405775677375 1.55574032208059 0.7245484408145908 -0.2100051351106706 0.7757293345637802
Ni 5.133316976228961 2.737265523159092 0.6450832366973228 0.4405101899469059 0.19416662541651722 -0.2167632797701106
Ni 1.3582384465952744 1.0196409384960379 6.993579256671857 1.1102961903086361 0.7223447482950528 -1.5117472094705513
Ni 6.603887755954432 0.8971049127670959 9.12989152454479 1.151112967214682 -0.6548715451437431 -0.16896107268516708
Ni 2.676805857108709 1.65773139079607 9.000856354464089 0.11880733464891152 -0.31983366329973956 1.3003451940123543
Ni 6.3811472967932055 1.7085340548627954 2.477568598585362 0.3417132369816502 0.9534498986091321 0.7739210777104478
Ni 3.9329444363628028 6.821314166538059 10.47646424081083 1.0551509125950602 0.36672827096874905 -0.837878554399015
Ni 7.920414068283239 7.297051892751578 0.3221680164562769 0.28911232295648276 -0.3260606180460578 -0.5467653989624196
Ni 7.657436100856774 3.851795048185423 8.215156738603246 0.060434808247289466 -0.8032951599971907 0.018352534365258716
Ni 2.8387000104753275 8.351984947435563 12.210814141479286 1.5002145262406035 -0.21405462258969588 1.295526946688104
Ni 0.0792647442148341 4.727614993451855 10.206510573068797 -0.2859712062243398 0.9667067636190384 -0.06607323747998943
Ni 8.617183845485828 2.1915100367530784 5.776041710486514 -0.15771198213390902 1.337089600621239 -0.31426182563891686
Ni 3.528941870135892 2.6694057522366887 11.467699746377098 -0.01058291772216887 -0.3279192685213514 -0.4144692857984539
Ni 1.043684535613635 3.5409726603166494 12.467831562709321 -0.33218729976908595 -0.5228168585666222 0.43349647763323407
Ni 3.1093478314325735 8.319561158652444 7.906669474957151 -0.5128204094755426 0.24027653240070232 -0.0381572277960117
Ni 5.6114374822615405 7.775954669894564 3.7265984015188978 -0.587427395458156 -0.09128650352082343 0.004820561317094923
Ni 3.184679640202667 8.255531818684453 3.5675447015290365 -0.16809923890550404 0.125916434889867 0.8342676971193052
Ni 3.3540098649291403 4.364209600368531 9.253321317496429 -0.05165063429675621 0.1203826495558314 -0.32936165739483275
Ni 7.077899090751878 5.852359001023283 11.336743066683823 0.35698044755336583 1.9576641722553252 -0.32632801277483153
Ni 0.7587939854737886 9.063554934382193 0.19673219264564998 -0.9706906879674508 -0.3578427955536611 0.11955578277916183
Ni 4.38090704234586 0.3641274203266087 1.6795243849374015 0.8213623019115468 -0.4740846834682417 -0.3102704450913366
Ni 5.844680155870543 5.597923074457595 0.4606785577570676 0.6504811293855314 0.30287492395821386 0.014452685090220272
Ni 8.043221640995334 9.101139914169611 10.929028758912356 -0.2782026180225144 -0.5352663971838846 1.0889478065398472
Ni 0.2934173052432937 4.901315146450262 5.81621897488463 -0.492618480606371 -0.6892212262682065 -0.03473097572328212
Ni 8.240524801635363 8.836516479924702 2.2470818571067053 -1.3544471180630804 0.5731590584646 0.3327295454258012
P 8.387429921196807 1.652884906560324 3.549305196385788 0.7587207158209256 0.10553195769624406 -0.0881063060206289
P 1.7917605077126384 3.3447125278238317 1.4602367086083212 -0.33389039850312174 -0.970217090765142 0.924183545544847
P 4.60836810303541 1.016421937834819 8.095399124059547 0.2655607608887878 0.2500037869907953 0.6795117122899265
P 8.487740455768204 1.8341470136260092 12.446328098795059 -0.4806988463506495 -1.3031955189769557 -0.6699430947648849
P 6.182225644200609 7.8129911607425 1.6491111228242523 0.9630095172731094 -0.35836961459140865 -1.5171668378242258
P 1.8146441855975617 3.1250831698603205 5.973719821762222 -0.3875297810951326 -0.23176026739957503 -0.32752254730356495
P 6.945101826043653 3.919376078827106 6.110598383677505 0.7504769877548946 0.06371913542551606 -0.6157545245376235
P 2.4716979686085185 8.535584876210512 10.107230478373868 -0.6298302859043992 0.31566127708960473 -0.3714902111337667
