# total energy = -381174.12872349774 ev
CRYSTAL
PRIMVEC
9.17431993244814 0.00000000000000 0.00000000000000

0.00000000000000 9.17431993244814 0.00000000000000

0.00000000000000 0.00000000000000 13.42754457560975

PRIMCOORD
 96 1
Ni 7.64929101891169 0.5042343810249263 7.416677056275137 -0.11612875937548388 0.4722815688212318 -0.16667484775415164
Ni 4.715086646497543 9.280650227905083 8.943361862817651 -0.07231124796990128 -1.0588108779451506 -0.8877576986176453
Ni 3.5427461830955216 1.1286615265451367 13.3106977498586 1.310844293771465 -0.7402046592946091 0.12420587995666352
Ni 0.5294133018826706 3.9477924049462807 13.453728148783172 1.6124220961848101 0.7810183508768613 -0.828501226949173
Ni 0.7660235982505528 1.5434233531283976 8.202551130408327 0.46608803841601015 -0.6009735095737069 -2.8238413164887173
Ni 6.9203729573378165 1.0223403336792602 11.841549690322587 -0.33805687117598554 -0.3173420072261373 0.05593152106029723
Ni 7.0409785662268325 4.37618727084257 4.941107942882184 -0.1249188468632881 1.3376056210257092 0.35990507739932853
Ni 8.809980096090598 3.0067273709131332 5.896531704929343 -0.4243562058948628 -0.1569635340036587 0.2533901869645249
Ni 8.013603260580854 5.1017842286268635 7.04830609549959 -1.132615679741443 -0.31227539133650734 0.02901875582985325
Ni 5.894959226505215 5.514224952285362 10.629069742665946 -0.7377202023098585 0.2675299688000166 1.8826604650549252
Ni 6.254610913685135 5.218665063652428 2.8662437631818958 1.1376941227056148 -1.2037303363000817 -0.023333018298985625
Ni 5.56532591390957 7.14219883725015 8.950291226608453 0.6033625786311738 -0.06744157858242579 0.33656486001149133
Ni 4.034186975074675 5.438876263269274 1.879681442095469 -0.6146150116165415 0.06573925117933839 0.07771930635935002
Ni 1.032578874643823 9.006062834473752 0.4023003479164458 0.16240758783736547 0.9224709337291146 -0.8342324730059956
Ni 8.194117178160369 2.719561984952757 1.0609596331329583 -1.6067908660409618 -0.30731136246301266 1.6268650110830174
Ni 8.649548764686198 3.432314894932043 3.486408519694816 -1.1314049472627934 0.22689368333589308 0.43669184464208016
Ni 5.58383051706864 7.386318314424031 2.502236108932107 0.19234474171643004 0.9618080407658403 1.7527140830700587
Ni 0.8749392887730407 3.8936730920878975 7.721388328969139 0.8577698940063033 -1.5537382091903564 -0.5852751250018435
Ni 2.1819743640741853 8.861255369792158 3.96211902284078 1.2508506868266522 0.6762523248123644 -0.005233223374481309
Ni 9.250099742768887 0.8732603882385291 3.0865228527657123 -1.751466583816203 -0.6774977671836913 -0.7429212868948238
Ni 5.839940830300482 8.266805314416848 6.780265496720869 -0.5346470184323309 -0.3122093139852623 0.09917156269585502
Ni 1.2659277003012195 3.404846981269049 2.2203789844431427 1.2291482621525542 0.3884265818777891 -0.41781686211444813
Ni 5.8688215892220255 1.769689603853319 0.32549936406640595 -0.23716138381048837 0.5972793485515713 1.0040450950581805
Ni 3.4986177045654614 5.805271075546822 11.29723729298611 -0.2783100901346562 -0.3217550486921684 -0.6903669098368755
P 6.243766867609765 3.9210309139125625 1.0240568489252009 -0.0013727119778105391 0.6459328478932166 -0.4314475655240053
Ni 0.510544478225129 8.637998295981554 9.31104841933159 0.048651185348800086 -1.3299779292771223 -0.6110275513755992
P 0.4511526837427902 1.4339553685502944 10.235723530933562 -0.18499550044021043 0.17213535664809065 2.053139774156832
Ni 7.200336502207528 4.584903047673936 12.561736551685014 -0.8063722562606177 0.40680174195086716 1.3330010323741623
P 3.7943886025551925 7.408364205049339 7.2338475403627776 0.3738939354792528 0.1962438196605201 0.21228544650441503
P 8.894209526731862 4.679095789683941 9.360193415961492 -1.0565614197893416 1.0797409432295988 -0.15455363901058541
P 8.434245826194838 5.8150784234779325 3.800693195163479 -0.4791618408808328 0.29063827268270587 0.31050287281711686
Ni 0.4550930541229692 5.477802902438307 5.509616691419323 1.055566402865924 -0.5968808275615721 -0.19566275034606948
Ni 2.137983500342036 3.9066822776503973 9.947004015188782 -0.9843728134402338 0.2963566632237219 -1.8615195693112523
Ni 3.6669022537706364 5.676133349187337 8.680155213173546 -0.5288453241488892 -1.3156746252805727 0.21191623609045437
Ni 6.501262503140574 4.652701271444652 8.663330427980972 -0.33014430119712823 -0.449268138645194 0.28456506990543257
Ni 7.823915023140621 7.323602663856153 7.903398578117936 -0.3261045839101158 0.13301499360786126 -0.8647329555876978
Ni 0.05461472613086226 5.817133471126733 12.094753579022553 -0.07941880554896 1.3234421850411338 0.13429386032028484
Ni 6.483767075166183 2.175882615686668 4.665776512110149 0.941190878736121 -2.2409925415401792 -0.4325407985881841
Ni 2.598910504464437 6.9592812478671275 5.340993609811288 -0.1742752858092289 1.006453190279041 0.6854874702573872
Ni 9.560375240458415 7.73870394027426 4.582605797980811 -1.6054312666892738 -0.8526734533200026 0.9014598786950863
Ni 3.225984441264465 8.056575774808465 0.8881704928761701 -0.12482371604632052 -0.23516672197796273 0.7825304166460135
Ni 7.944548154989221 0.3059461361472548 0.7144162141700344 -0.5750156520573646 -0.8246111478661476 -0.41080366402140867
Ni 1.7794786031447063 7.577401048483093 12.159245377915466 0.9914140365577314 -2.8860689549703715 -0.026910708347914945
Ni 6.513079027121181 3.152791717415646 10.69678448012593 -0.1648341950009871 -0.4579062739361663 -0.19686731217713194
Ni 4.67294899537726 6.6595470436975654 13.174878366344553 -0.609605217106776 -1.1548768051324885 -1.2148992084327075
Ni 7.982639931050927 7.778612231668389 2.711195922671767 -0.13790394626904637 -0.578583571914281 -0.8030203090692493
Ni 8.491585325324333 5.329188095014514 1.741364808715334 0.3930527677958908 -1.0864314678758968 -0.26214505033901947
Ni 7.024877634871271 9.372485169710883 9.675982679887312 0.13600338681222382 -0.6747711122811475 0.08048452780931299
Ni 9.070631697653495 0.6853354550755262 5.584125930168155 0.5021248774349094 -0.5724841438847623 -0.048091713300904275
Ni 1.1396248387786962 7.826015942388727 2.247703778716309 -0.17717728994737228 0.24129366081130704 1.1414862427581955
Ni 3.8157647678306685 1.3986801086858285 4.260116528260707 0.016473829285307114 2.024652979571049 1.5793019165920736
Ni 2.317836866891578 1.2893313902659145 2.2935451027643654 -0.45467388304179757 -0.29449389898337025 -0.48067750619441096
Ni 2.1951578617140393 2.901213518195 11.809834066564079 0.7298490270918979 -0.6942821857308817 2.2891901842913285
Ni 2.1877908828658814 0.4476104788445665 11.612932978849349 -1.6233744814312558 1.6328096587022267 -0.8309741139696979
Ni 4.965481358456156 3.6506637076171633 12.406943757267012 -0.9434909876242074 0.26483468135604066 -0.13570822416930822
Ni 1.3823773422933303 6.0336290711999885 10.05850686391199 -0.8680800176830598 0.9101386374160068 1.1978738775193047
P 4.20732473948617 3.9149391655250447 10.039627031070616 2.060140888065013 -0.6433666298279371 0.0500938313325976
Ni 3.0460393315163152 5.0514906071504 6.417251421311995 -0.8586834069595082 -0.9729915681864855 0.2927244657877733
P 6.828281134575915 1.0476247592154027 2.3895525252428214 -0.32540627229151053 -0.16778273610634972 0.9249088537466459
Ni 1.4965058813606789 5.954812489276549 1.2166992173605855 0.2078775472447065 -0.6688130949254998 -1.9429734030123698
P 1.8338456226393294 2.4569195559800834 6.274785243058857 0.8224269957306353 0.26222012655132904 3.4301817468012925
P 1.6452399549426608 1.9144695455753309 0.40422695508719686 -0.7915842993181658 1.4873402413810966 -0.502677664614586
P 8.761851614101264 7.195831911155914 0.31273788514014533 -0.025521798420188303 0.4104791908024544 0.38405827760676436
Ni 6.845749039590726 8.831897546237856 4.471237811759553 0.9035776963690374 2.1697822399439404 -0.12547369092549357
Ni 3.485663564922126 3.310837725656258 0.9112365678699907 -0.27357026145682567 -0.13056807472926543 -0.008388481174011359
Ni 6.66380392811294 6.3573724704450525 0.7981814242263463 0.7854761295378988 -0.21003341724544472 -1.4988477278000638
Ni 2.518864563679661 0.24733691114903533 6.2907641559602725 -0.3483947627668839 -0.040904194413529556 0.8255030635527977
Ni 7.950227058983005 6.804060930143617 10.073907794662182 0.19184851880630185 -1.169389911146999 0.43822885011189683
Ni 4.615728762405952 8.420933888076933 4.7020848003909315 -0.6820283080641931 0.021942051488729953 0.28611955887674595
Ni 3.0660301744928233 2.936452080780023 7.9984793942904595 1.2268684649794417 -0.20563297418490395 -0.5763279431108849
Ni 8.876879236514963 8.458521076546301 11.544599892230755 -0.7976533883303811 0.646413644184377 1.0085144436834437
Ni 0.86069707462126 6.010610702669443 7.824082913194073 0.7867992192246965 3.6474685031750407 -0.20250651274078027
Ni -0.08867989320569927 1.813616247346443 12.476189688711749 0.6036317731321604 -1.4627944337209322 -0.685339117604981
Ni 4.413857028190684 0.5326591762493931 2.2915451010347287 2.499930140685495 -1.0006908338739668 -0.7750976145170523
Ni 4.747325206488111 3.6829481392070345 5.272378871572967 -0.9570550994618874 -0.6248868258561947 0.07951162237308243
Ni 5.233132966072782 2.90236948249745 2.7423344817110347 0.533527560115907 -0.21792721817122468 -0.6065936839739617
Ni 4.560196604289018 5.86722525756626 4.390269851828775 -1.1338937751229181 -0.8989839063507679 0.17790131259759037
Ni 2.8946447051747253 7.724896588883878 9.479322876784918 0.15678047145857513 0.7294901010905823 -0.37752330470172396
Ni 8.735209389225735 3.6983059506538787 11.254511567962751 1.40748820494946 -0.9126531763077445 -2.1109518000692935
Ni 5.351830316430769 5.53651854954691 6.814438920770063 0.4168863798803788 0.5470297083673998 -0.40259875961311314
Ni 5.687775561090591 8.458044011913543 0.5967124426529634 0.2997564329338902 2.440938749752951 -1.6286804670252013
Ni 2.6639747809166585 1.0213495071343026 9.39609895160039 0.021245025421705345 0.1253389651198422 0.4022408620530621
Ni 1.4246250852519429 2.1423137793162956 4.418857032514776 0.3110415189294063 0.42908652149099646 -2.783214801216607
Ni 4.801462867986216 1.2772763339689295 6.584733217529357 0.5334393712774749 0.4036534261298726 -0.13726451291283456
Ni 6.5451799723138375 6.697730562957879 5.0328988479526515 1.5100394827508252 -0.2641980762133063 -0.04081600557509745
Ni 1.8061116537003747 5.50041760089498 3.441547013007885 0.692849052828781 -0.018950315850257686 0.8244265426591671
Ni 5.577289227007947 2.1389192809678295 8.757417665312579 0.12141134793066187 1.418413593612712 -0.6788195713189084
Ni 8.000566552058773 2.689809665644444 8.520676176170689 -1.037718833161542 0.6339913592606242 0.5019119900931549
P 6.503565257425615 3.136167849828022 6.649615842448338 -0.19763941445646604 -0.4418602762168971 1.734140948053562
Ni 4.5072240814132245 1.3947901970648835 10.922247060431053 0.455966376600976 1.5743124337972823 0.7183741936830789
P 3.2980670724101366 3.5530397699792484 3.438847928104861 -1.136263046686043 0.47307012616079813 -0.17209858987288426
Ni 4.096709964925477 8.407199931245437 11.453775960473603 0.6626123654314265 -1.1844298361992571 0.24338165368858727
P 3.6169664307687412 7.33541918783676 3.0946733185299746 -2.736949085380848 0.3396265296559506 -0.09078822372816622
P 0.4425563460332962 8.132236390699816 6.976065666052313 0.17882279597059525 0.6738349736201233 -0.45915403030033825
P 2.870516243941033 5.231995350410053 13.281130751811475 1.0451179538390905 -0.6820668746116123 -0.6071888943557995
Ni 6.385950476811193 7.748456242286205 11.699621127213286 0.19218584754106255 0.03809320732729569 -0.1777629872475132
