# total energy = -340862.4364702274 ev
CRYSTAL
PRIMVEC
9.35994918131989 0.00000000000000 0.00000000000000

0.00000000000000 9.35994918131989 0.00000000000000

0.00000000000000 0.00000000000000 13.69923174502033

PRIMCOORD
 96 1
Ni 4.882355252223009 6.939915373681028 1.3247116923290658 0.31156062465766987 -0.7419558376577609 0.3378828074919665
Ni 6.336760268157775 8.708814671825312 10.298232270311601 0.0029477697744142778 -1.1506691948090442 0.3046441000434947
Ni 1.9038416810792425 0.8062163883878616 2.134805907535957 -0.5339821311548224 -1.3085616683848753 0.2778676032805989
Ni 1.4887185885115541 1.738778982663622 7.61190915920244 1.043907735581073 1.5361032697174126 0.21684426951969105
Ni 0.9681088721194235 8.17957508257017 10.241436100536383 -2.106495821180469 -0.15508997113002967 -1.1818397068745776
Ni 6.633012010009366 4.673048075473924 7.084214897506607 1.060151194023129 0.8605207172785632 -0.5229991497807573
Ni 6.496422276072356 3.2287330844267133 12.030267409810582 1.0730303639786423 -1.3412928400693094 2.081022873720345
Ni 6.425857621501596 5.468625009975252 12.324499274694887 1.245763759222048 1.6266122716422633 0.9907450355151647
Ni 0.5368408037367594 5.341676023379784 4.889831043389697 1.8582074742188834 -1.4546347807282756 0.08117744011127956
Ni 4.883338046854914 4.3269358859636995 13.316817654580229 -2.419648987136239 -0.11122206610248588 -0.03848427211812727
Ni 1.2357753301058994 7.467563771627372 12.474519599273039 0.26639019876861864 0.7449429453105428 0.2907514012218025
Ni 8.134853246844067 2.6932784891183834 0.755125107452128 -0.577430175036128 -0.45709072001340634 -0.8482845802236875
Ni 3.269785820193706 6.461051029272661 13.334352582803186 0.07035849511890463 -1.0318739443449905 -0.27765137350473473
Ni 3.894815126238497 1.8177395113755115 8.23956673889141 -0.014841692998522827 -0.22251355199032646 0.8359216877829604
Ni 6.41690015042795 7.845509147262434 12.83428889018719 -0.031361030809784696 0.39158878165585465 0.19866785572098042
Ni 0.36665166132214627 7.305936174448981 6.188531437794351 2.016669190034624 0.05752200547586868 2.1070691771854357
Ni 0.8994367992112454 2.679051366827953 3.2728830272765372 -1.0705960435055368 -0.4217509070615318 1.0747262636238264
Ni 3.9571711056456342 8.624453452612384 7.759326481998376 0.6242077975112992 1.2809781023396518 -0.7072176628456271
Ni 5.706564270333827 3.018920470438364 1.41918540030685 0.4111875297233886 -1.7601132037476075 0.03273605678044039
Ni 4.8221614210060615 9.290535494424168 1.2193532998042147 0.7192653380387806 -0.4271913613508127 2.1646477469308527
Ni 6.206591459149211 7.432941320737699 6.682197605354091 0.2806803901390456 -0.22718087555900876 0.653781397403358
Ni 4.874530334963271 4.136844684255571 8.614802409327078 -0.3201180273093777 -0.2967826950175469 -1.3125221956945203
Ni 8.523740402714337 6.636915108690358 3.5907057073061055 2.71853870119446 -0.3093772438531059 -2.5394035161897683
Ni 2.2170910900883474 0.7873233315831024 9.843130964107802 1.0545081368047389 1.215297729422707 -0.580738927694387
P 8.6803417073467 3.095634611420186 12.029103032170497 0.00730219008836807 -1.5940839599972547 -0.04752169973004719
P 9.038144473002154 7.695291327763013 0.14299006697792743 -1.7592223165022218 0.22983605379366867 0.5353355598589232
P 4.943924995924622 3.9195347512181202 4.919613464715962 -0.17692815005104368 0.0711640217393355 -1.3740137273410982
P 3.313768219958662 7.889837865135776 2.561989294229448 -0.5009709663361244 0.17508261220187266 0.36243581424098226
P 6.862068678885297 4.6796468394309985 0.820370503077065 0.2573697404375632 1.1307814547461816 -1.1750746202366023
P 7.237505588221784 2.9574817660210044 8.231416095410815 -0.845206455518996 -0.7903180310112324 -0.7795906172913993
P 2.454159875201522 6.3857689604687575 5.80770694188525 0.2431044887678007 -0.42670902239775543 -0.3559995716973353
P 8.417177384769236 8.923466379382182 10.548243992729518 0.053268629516153417 0.7089816967245854 -0.30824467291055946
Ni 1.168758096158871 2.936683959620125 0.7601364240799545 0.28610310381651366 -1.0119345251085863 0.9229509586893265
Ni 8.132625579011748 8.404148335934842 5.149116603153244 0.850261244334084 2.8033452534178944 -0.08502998108815034
Ni 2.783630075611493 8.486600125577212 0.5322347728952324 -1.360716753121876 -0.18657364356060768 0.37942412126886266
Ni 0.6286703261572759 0.4893222152867212 13.678367207770458 0.10313388977771269 -0.23991246419306425 -0.4638550353204334
Ni 6.245734765345644 2.0554915727565817 9.994246402704364 -1.0094390123802421 -1.825263415192695 -0.6395485416334277
Ni 0.5263445570680166 8.187924156966922 2.051076484872111 1.1518130786055 -1.7343170686201101 0.2494923945720155
Ni 8.317606248633972 3.504477178292559 5.412306197592672 1.0487172411545747 1.1122574278000652 -1.2026065071082837
Ni 9.250278354311574 4.375588900217422 1.9998551006470104 -1.1717679244608723 1.8377744031755123 -0.06963035870362846
Ni 9.144071014423734 1.3126766700652266 6.086376955769509 0.3631426105000197 0.12089687018808856 -0.2187188608345846
Ni 6.122763757022173 0.5292330372909291 7.884291159432283 0.7258836146862467 0.24240746270077604 -0.33478977038893953
Ni 4.677952688684573 5.624299679668963 6.0043182839799005 -1.1258001994815063 0.9212026085396522 0.946693296611589
Ni 7.9696220693486906 1.3205296671715891 4.142140543329207 -0.6787272687154182 0.5951548460094008 -1.3780475310908396
Ni 3.7167982585794843 0.7980245611322138 4.108426943475324 -0.9061472568684265 -0.5897830401745262 -0.1593762572102094
Ni 8.119175332477967 7.4255469611262255 8.464125016337881 1.0354873727278617 0.6378163894336693 -0.07542871055296041
Ni 1.0614088425082473 3.671711384847245 10.30038318656314 -3.018528590295395 -0.9227712385783527 1.5375430874877325
Ni 4.393747201035471 2.296042258851362 11.894247696760077 0.47639841920308273 -1.2245737554079943 0.004035089301322083
Ni 0.8430908429769276 5.876868540119607 8.211456004434273 0.22089915631535503 0.602347249992782 0.6175180441959495
Ni 2.236484904157934 0.16356697858535016 5.8629006884130215 -0.47071191034126675 -0.10043217457583348 0.7205624595836493
Ni 7.3024449135184994 6.706328489549459 1.482928524137304 1.2561505017730108 1.2195140814968997 -1.22657304522621
Ni 6.554940676440627 7.095028446442223 4.300832860540309 -4.864896648677189 0.7703981521588538 -0.9881173680843304
Ni 6.4317075895486475 5.155721919074532 2.993597128756285 -1.030269318862032 -1.4767295557447857 0.31931687156432104
Ni 1.7329570944631958 7.786550829297026 4.216239514595275 -0.020261835572829623 -0.2213516704717414 -1.2642795586380484
Ni 4.053906177271687 7.752798853652754 5.071482379196982 0.47132100468017535 1.5631499894225596 0.6725175403602804
Ni 8.310127649482622 0.3320264024478109 1.8948224343430193 -0.9480966047170187 0.9296229713928635 -0.31331206013113777
P 0.6407062844160026 0.4212070593366223 3.925131064650652 -0.4442984533447445 -0.16423332819219458 0.811181761834119
P 3.1625488859295854 3.40275325391598 10.61931502053443 0.17342142244936587 0.9098720140181813 -2.2994278028589363
P 1.3500228660776068 3.1882606654899885 5.864778294157404 -0.7425567044665534 0.2578255970280592 -0.1512446292420105
P 4.47562803379645 6.687711551236521 11.584220918148732 0.5387101327581109 0.1800605250324383 -0.043984890221382314
P 4.5175512448088435 1.2276321745844028 6.260028343273089 -1.579280833546151 -0.20952099638540045 0.06199469653524161
P 8.94569625796098 5.225603297377396 10.019083963039815 0.8958782708422507 1.072059772535257 -0.2851790493403476
P 7.990522835187199 6.2554035925338125 5.617013895464441 -1.1091404794376383 -2.0004856382962255 1.7705963626671184
P 2.2368686620618212 0.25040952024511587 12.037678617330032 -2.3016284100546818 0.6869933653789524 0.013667727295079686
Ni 1.6740362162932878 5.747111568861554 2.4049958077392093 0.3690288940774677 0.4509200724263202 -0.38923262271885223
Ni 1.7266204090746289 5.952440767338643 10.782089211450044 0.3495023940087658 -0.7006937456841804 -0.6101739451260525
Ni 0.08664130275894709 4.971733404033088 12.513562754016508 0.5898360048996487 0.9337254235970112 0.217601973621322
Ni 3.5012479959305858 3.4183001289978256 6.635962265894854 0.13605763708892699 0.10784312232792395 -1.7630383478142024
Ni 7.604986541014281 6.752922315050618 10.88897140365179 1.179683322653207 0.11243614101524506 -0.9529323355427652
Ni 7.489466051995534 0.9909939471194912 11.895029252491163 -0.7546871691815003 -0.0626662686809695 1.581250555678012
Ni 2.041751167807666 2.938883547605817 12.332020929611062 -0.38181267610569725 -0.06521526035506832 0.5817244315361078
Ni 4.049375962016049 4.524234248305795 1.7387340549090204 -2.0507805298960355 0.03481042281096586 0.8044213031818339
Ni 5.579446804658605 1.727678083297536 3.4119718675632464 1.2356451827308075 0.5141764092828048 -0.5879207901548068
Ni 4.152784677190179 9.028850043768998 12.246921210431877 2.4692321973810056 -0.4885000875626232 0.3570557808759915
Ni 4.055712647404616 6.507467015745191 8.76169931896555 0.6158036326080039 -1.8263877586051258 -0.6035366423151928
Ni 3.7515236689067852 5.997143883166996 3.5709234553581943 0.7366447098574926 -0.12416654207829582 0.6384439957153392
Ni 8.528439097049727 1.2917291044823425 8.785906018746807 -0.49869759692091536 0.4065798557480482 0.854713880788799
Ni 2.884698803566802 3.665037741299168 4.0678637330345095 0.3863607004876959 0.710886369946466 1.226671004256655
Ni 4.900916030842695 4.641458248019843 10.764471915676985 -1.5045884869385828 0.8558330819949067 1.3964314329146659
Ni 7.000474242904111 4.093143082956874 10.07741516443058 2.1326323703665206 2.9934983867996445 -1.2900911203845138
Ni 6.3164866188939115 2.548929357563765 5.7212650060373464 -0.4740183490066804 -0.9217679941248189 1.2172445687364326
Ni 9.208252183861552 3.6897480063299155 7.672254621591167 0.3199671035538102 -0.024389227477641866 0.28420742945569766
Ni 3.280933519304168 1.4745850657098765 0.22364661842601838 0.03679454312053018 1.0443283680582596 -0.07191555519337937
Ni 2.203331965241681 3.8479311423222033 8.552827379839167 2.2568310512343324 0.39041995815873404 -1.4346025446677486
Ni 0.3936335859449253 9.15634190739923 7.732352981329585 -0.08848245841312503 -1.691218437658423 0.23602598465446445
Ni 6.060604336541417 0.18281009747804502 5.350905868965701 -0.04372700857430534 -1.306113978175331 -1.2147678250611662
Ni 3.1520751031381438 7.973197569819049 10.215503426182522 2.170891413847719 0.022816483673883284 0.957312466888332
Ni 0.38401249449602165 1.4086535858323812 11.19428544800443 -0.01721482121638971 -0.8040626342908346 0.040984669942477805
P 2.24625669078373 4.680376915443271 0.20615942594232664 0.05259680026010942 0.10204914135396619 0.3388459427361842
P 4.765983007856612 0.46651669985209354 9.673685001633888 -2.481369346964172 0.2894722773990628 -0.13654049026261644
P 3.1063049531380087 2.431096961172824 2.395474867743271 1.37602124468943 0.8242211115165805 -0.6255961932183935
P 2.006127202388338 7.903728029266696 8.124205369003544 -0.027885927776990685 -1.1698593945842497 0.7416167091507873
P 5.654887992593388 1.2216324473553462 13.59630853598085 1.2410974640946304 1.269069009606892 -2.1902150538769956
P 6.230141090519423 6.6718183580462895 8.805195001388991 -1.484290398811179 -0.6984669132361906 -0.04321818725868686
P 7.672031854807934 3.312645026093628 2.99261059014483 0.07609616893363025 -1.4064057705185584 1.0563336200492517
P 6.415833116256167 9.043919561458203 2.833165733044155 0.30016061035084435 -0.12898710339539077 1.0578803957110814
