# total energy = -340868.59947995865 ev
CRYSTAL
PRIMVEC
9.30014047676769 0.00000000000000 0.00000000000000

0.00000000000000 9.30014047676769 0.00000000000000

0.00000000000000 0.00000000000000 13.61169566035510

PRIMCOORD
 96 1
Ni 5.408301235506943 6.779253503972573 6.05450938773597 1.0091245664636168 1.1536084799430262 -0.23465173001475717
Ni 6.668879439974051 7.937344163338257 8.426538048421426 -0.56962790538289 -1.1186376202947959 -1.631396323294468
Ni 1.8642968061240046 4.288768957447113 5.54292727512806 0.007237398288703665 0.19818217433381352 0.6866696634909464
Ni 0.9782817485679568 1.0222807118959825 8.839829769204162 0.8448249038098612 0.3902376669445989 -0.4432813249341398
Ni 1.916014885825368 3.890453252442674 1.6084127484179607 0.21906030333440338 -0.3952127515616871 1.9368390079798576
Ni 3.012520016728108 2.6607143129080812 9.486412717083606 -0.599440103648316 -0.521932913299772 -1.7370655778995245
Ni 6.129917714591313 7.096146481448613 1.071757457807015 0.41483746777115005 -0.1606255562362782 -0.2749596856051845
Ni 3.4634280146135423 0.3561572394237439 8.33783052106744 -0.6487577189365213 0.4143240184698413 -1.477423753598333
Ni 5.141061706605905 5.19316109205583 2.0455788591308117 -0.470060649910513 -0.420501865145779 -1.4864544963420334
Ni 3.417494622122078 0.1972494637313658 12.321224724687163 1.073119838368655 -0.09379924264034813 0.550007302938485
Ni 1.6892588672534132 1.1185371630574839 0.9745877328770053 -0.21689080648691036 2.404903967616581 -0.8616545737726902
Ni 0.9386073504370422 0.2871613592423962 3.063543375955871 -0.38363558824704896 0.674742058815425 0.14881313698238244
Ni 1.007632991067058 3.830625450479201 13.229138822392969 -1.3500291915010425 0.8945541527141885 -1.3982016374412114
Ni 5.508984553407853 2.126477058751434 8.6932046886856 0.08775252222563597 1.1931456188057 0.04321535904520944
Ni 1.5313052859464622 0.8104988490742819 5.443793360585942 0.7639310563772714 -0.6330901876025936 -0.6823095867500378
Ni 5.57335082379324 3.261773074465249 13.172023871328415 -1.5373512831919007 0.44612959301621236 -1.0376095612771872
Ni 6.28606706869775 5.294858125239504 10.18625756793908 0.20362057174056547 0.08484923253591194 1.1936809224838796
Ni 8.484062205655169 5.994135667542238 4.017246713979904 -0.10467603745385198 0.5482142155938042 -0.4160073197095352
Ni 7.1160394813553225 7.422534902077878 12.31519451377575 0.0014791556486877752 -0.24185853217584152 -0.3432193892135315
Ni 7.937874271330161 3.6459804667728775 11.736303566420377 -1.2006933492459708 -0.7778939463152668 0.15676247373644617
Ni 8.012517196646316 5.35482542930611 13.587017517769368 0.14229024826220013 0.4574187927767864 1.235636183869743
Ni 5.0750400112633445 8.537975118445818 3.206792505578624 0.5769483503037031 -0.21437446782295982 0.31942382945583053
Ni 4.812552854009024 3.2264604420922804 10.807931020283164 0.9174523974686006 0.6963930614262974 0.8002908259532282
Ni 2.379673375937123 8.069434054724422 10.059410165588636 1.061902629496597 0.9977829161985526 0.46706557183793107
P 5.002926724083993 8.173586324923228 11.252652564901675 0.09779987915930899 -0.4178042637089579 0.7862263774403621
P 7.483748424932467 5.665106007093662 2.0510101410127746 -0.04751270086898269 0.5495139082418343 0.5866925741746605
P 2.3828168233277114 0.8248275750940429 10.657439871479786 -1.1744004769877128 1.3964265478186597 -1.5930421489963014
P 9.29912649355797 7.511946450045673 13.16792715956642 -0.6012193070359259 -2.367186141350833 0.5065584877262308
P 6.186778771828166 5.232147279811291 12.46907556368525 -0.7946655093466507 -0.17027233529742286 -0.9304511237211136
P 9.228845333999761 1.9663937453366584 -0.42573530838216495 0.7521332924113949 0.48473033610754584 2.2781341835874827
P 3.76862141570686 6.834291733728493 0.6017934726336662 0.10927574100939247 -0.944095968198058 0.2158376826320476
P 1.8565404891898314 5.057974253980122 11.351895291084238 0.8511886412443599 -1.8104281499520758 1.0916636628091134
Ni 6.6804674146742675 2.4885966180630654 1.2318212409273521 -0.47700905620388817 -0.10277264978355204 0.7038718863018458
Ni 4.6661407467012435 0.7393174359438568 10.158775653621955 0.09807910096262464 -0.4212212598103068 2.3310377164547336
Ni 2.2419475995844005 7.760064890677335 7.484050679489255 0.7361826826194096 0.895281003577884 1.3711376913448836
Ni 8.797523431394145 3.6809210935374916 1.4940600844380967 -0.11437141036474498 -0.53434954179657 0.08604916638128406
Ni 5.740325541102766 6.018120729140839 4.043354067574161 0.6827207061455274 -0.10397798294556286 -0.9388123512016154
Ni 8.545545432575814 1.2378765622173282 11.450348435363066 -0.5950175491005881 0.9574225101036351 -0.38996950088487675
Ni 2.0779582272819117 6.9277302424067155 12.468108349103533 1.0595400428016912 -1.0407236814261367 -0.4269324512624712
Ni 0.9745523923442116 7.318289630476982 3.0976274598072515 -0.27215384072527327 -0.9794818038965196 -0.33480571122853947
Ni 3.35907114133014 4.446583036650932 3.6102167775997804 0.21398340303212823 0.7758617463765864 0.8417858598732213
Ni 3.671081545196538 2.293609878444511 4.619033676515424 -1.1034467714869705 0.21902070834571957 1.541023075616533
Ni 3.6262641695301348 1.0045081439568877 2.649476023479718 -1.0105175901564016 -0.9689863036818344 -0.04379000060175684
Ni 6.4925766820350574 0.6871482994423647 12.970870208737379 0.09818785862634703 0.10462924337631657 -0.3690062683696484
Ni 4.05911129513 3.1500690904168627 1.943450299441448 1.4715863209809494 -0.08813150283160952 -1.3943755788269019
Ni 1.1446984574649528 -0.27669963152147126 12.4151180102216 -0.6026982055742975 3.0091744027740046 0.10206302531103714
Ni 8.908102098477261 8.987581096702014 1.0351176954262453 -0.8048043975528656 0.6099430600621689 0.1506620172656631
Ni 3.369375696681536 4.7242108221652455 13.366630235212428 0.24583911409014436 0.7114666679299683 -0.06827075935194049
Ni 0.3955368231100381 3.0585371104814523 10.140549238840668 0.7521500045819433 0.520813197873032 0.22145425748787667
Ni 1.414821029830732 6.130233919358415 9.605568903481336 -0.9791221065642556 -0.8354401201608515 -1.3705671635533945
Ni 0.9962682197318548 7.470709628359673 5.694860875677827 -1.7183937125216342 -0.28309517022812536 -1.4017991249844828
Ni 4.167430028142368 6.062575399339098 11.162501655787278 -0.33267555225941414 -0.22295398196185473 -0.11898114122261444
Ni 8.626884458842335 4.303379477715202 5.505345408544134 0.06960336212043496 -0.7290725539371895 -0.8637885893965574
Ni 1.3568532559090276 2.6456666860501765 3.6208747382791118 -0.5502021925581104 0.37485604228220604 0.06695975385000082
Ni 7.8035709465742915 1.3299200498642247 2.7538505670295166 0.42388286580287005 -0.3225988847497025 0.11747241788757187
Ni 5.911029614636037 5.530281874486098 7.807192421171614 -0.5095412245036385 -1.1046827007766007 1.8327898054767273
P 1.3743189192212304 5.193523797523976 3.571382182129724 -1.1854425937344875 -0.3031562026440585 -0.7551720792377188
P 7.981724432414845 6.923917184921091 10.09397041661871 -0.46353904674191143 0.18720279250417438 -0.537250774603765
P 6.542685837480292 9.209491742225163 1.5201953384529812 0.9894520277353539 0.9334960811950246 0.053588731859733514
P 6.663689961737519 1.9352661760576684 10.679028286946568 -0.9253893929274901 0.8126403486575166 0.33616299658738236
P 8.184430288406737 0.3817791256991001 8.599011938636439 -0.3898039218412899 0.8586690087818051 0.3345984803137399
P 7.393090658176688 7.499205257959561 5.387549832658957 -0.04929421824943769 2.382756227874948 -2.1628798563971525
P 3.8046594590161176 1.7004469359246486 0.41825427559817346 0.14461272574778963 -0.39709608462732904 -1.0932523474524722
P 4.519217131681978 7.84410095760442 7.537925461705049 -1.1641919118858273 1.2745200054191341 1.3541018189085197
Ni 4.6552502825166915 8.921475700097576 0.5622157959609236 -0.6449825681648054 -0.23822633473989294 0.7528244049411487
Ni 1.4995639074136888 3.9869515072496053 8.057905600921544 -0.3459527289842945 -0.34881822345754765 0.016044969278004625
Ni 3.4067808606014935 6.787223724131549 2.9628442478166064 0.5919502230291741 -0.9315106753338797 -2.6715121959332766
Ni 9.050980152505682 5.7349872606228915 11.615771889285758 1.1301042261734988 0.8621392267185926 -1.1631930383076676
Ni 9.383376463709858 2.4309357487682526 6.473068707932994 0.3936513206118382 -0.7225414376868912 1.0329486654664082
Ni 2.050392611702908 8.205960112990205 0.8947209188055437 0.576160307184769 -0.017045899738693224 0.8533686796148142
Ni 3.6323929619277604 8.847372182913531 5.609352596555683 1.2780421596397795 0.8471743778786441 1.527324752193834
Ni 3.2411639637624576 6.639732800559544 5.217117323219783 -0.936634112603374 -0.8017352717092386 -0.7031748602348212
Ni 2.4236165384238952 2.8426250553930057 11.722460307719517 0.5085575204341306 -0.3031880843232585 0.4538511300301862
Ni 7.076169780280022 1.5119144936110291 7.263050517692553 0.4077101126977495 0.8046401040608594 -1.3654882063685903
Ni 6.922680266273315 8.997253242519209 10.382170601522434 -0.6535618251933841 0.8785523779692934 1.3818900447653812
Ni 4.798677044817433 1.332672891366042 6.490314887936267 0.645113694426031 0.11044302184461625 0.19523260478718632
Ni 4.054721628951428 3.452890955756926 7.281032338786345 -0.856669461853273 0.16264310088693923 0.14689123736932122
Ni 7.8845472673726675 6.102007993824583 6.753496765664189 1.420532696838244 -0.12226881083495071 1.376628796366442
Ni 1.3068743024267178 6.013777563663311 1.0178798855491589 -0.7362356473445321 -0.19986778956635257 -0.08898356641925965
Ni 7.185018621284295 4.031806083476844 3.3164895193699424 -0.8774367763076115 -1.910096449778691 0.778502526433543
Ni 0.013684226303288256 8.01489803253978 8.247176474367745 0.6560521957154056 -2.655215258545466 -0.6094357814084472
Ni 8.684926633885711 9.298819588931078 6.275073372956879 -0.8229923813158019 -0.6849501096966784 -0.6064471310937685
Ni 8.35481815717291 4.926591173249829 9.177753153734452 0.7816603553362345 0.3191219819446956 -0.008216731482837462
Ni 7.633648084818563 8.11292151034096 3.1225908961558217 0.14855782643846674 -0.27987769173209215 0.2943470889928608
Ni 6.233623578060096 3.7171451396509267 6.209710127541104 -0.5089637547336138 -0.4823865184657177 -1.3213043127625244
Ni 3.241777773016241 5.730262789396801 7.325691612069199 0.9908183119552614 -0.8640966075552796 1.6680286298055207
Ni 6.516664045175956 0.6735933450879793 4.796189257311568 0.10468580764586485 0.0624801208120924 0.3110680012919675
Ni -0.052050094706818935 8.73354776689753 10.453686819700376 0.8989057448146647 -2.037184022158524 -0.6528953952539788
P 2.6721069846639107 8.516166289656088 3.857077839275207 -0.8158408578726853 1.2611728946882668 -0.6593432077618515
P 5.40961255527639 2.2712244409618307 3.496694616140566 1.960666449416759 -0.391257623568681 -0.5927449510163275
P 8.831794448063723 1.4964297601633094 4.541515147846694 0.8892191136545201 -0.21186095737248675 0.8973155175094094
P 7.8695275409353895 3.7713091562272147 7.5100761918496755 0.19505391311747697 -0.911988803250868 0.13509244496218026
P 4.329736075067057 4.765270941187278 9.22024921440473 -0.3383039541897851 -0.3248131187922019 -0.0012390146134236724
P 0.8766944570387477 5.884096408591234 7.262982626669027 0.09413991380921852 0.3711598243775414 -0.015955237777675747
P 4.393014229048009 4.774738483919877 5.533930319490026 0.12192993943829325 -0.11874562817304066 -0.14665366743721842
P 2.2804966807500455 2.1302994163772673 6.937404248251952 0.570837609420275 -0.00930713633353881 1.1543350736964055
