# total energy = -381170.3859115267 ev
CRYSTAL
PRIMVEC
9.28366948131143 0.00000000000000 0.00000000000000
0.00000000000000 9.28366948131143 0.00000000000000
0.00000000000000 0.00000000000000 13.58758869358920
PRIMCOORD
 96 1
Ni 8.219463958285305 9.338443218683292 1.747309157179324 -2.055919136674182 1.018524262510962 0.6414886960789339
Ni 8.819783167245376 0.6289259083676181 12.754914387717443 0.006624190184736979 -0.14814002217475777 -0.08372154668937194
Ni 0.7128549230992081 8.396800614377648 1.0870332250467476 0.9250181256310004 -0.45154973559051914 -2.0270088813977347
Ni 8.941622046658837 6.9717851866629355 3.3786216482044757 1.4214186989876232 0.20624412540634157 -1.2402325449911737
Ni 8.224959890669696 1.6480927237697285 7.01832886404326 1.1167766558266574 0.9470889893881107 -1.3234848653536109
Ni 0.9126069993640444 8.455232030640092 4.729826332650013 0.5840008862751105 0.583084545108428 1.3271335178497918
Ni 4.528146966582812 3.079950215956227 1.7839685115703534 -0.008948724552855555 -0.38534254363582665 2.1063490111899594
Ni 2.0944329892711258 6.580710606101217 9.86770057893334 -1.5477578232372053 -1.6922797890434018 -1.5345418387675638
Ni 3.0994737730582163 2.596577392547158 13.750367925941422 0.5150336150767775 -0.8803554926163032 -1.5933751068556883
Ni 8.234419949959724 0.5585900426178316 4.348639788545416 0.22911537357756023 -1.1227791532669955 0.8743938757162295
Ni 2.9452441705211987 3.8256145556765193 7.989230809727096 -0.9948091782822093 -0.12127945033848789 -0.3508905326055441
Ni 7.826959692610077 5.666297004639194 12.626131323466947 0.6430210735630603 -0.6622642380633884 0.320056577943823
Ni 3.881790040233883 5.399586461613493 6.218645636206304 -1.2329082434156187 0.362721206691885 -0.13764632173228553
Ni 2.126081018829224 7.792684384564169 2.762438504686211 0.5066327926075921 -0.3307631657280497 -0.5835033778134016
Ni 6.91021589008643 4.498903407442884 10.921608742593685 -0.3377246846475474 -0.8436735638142372 -1.4444874078816285
Ni 2.656215685853472 2.4649720927479186 3.753489726800934 0.9567781916514169 -1.7411554316981819 0.8502869553656969
Ni 5.1477947755839395 2.882709372309597 10.338714981413181 0.3159538686293591 -1.8646213481650273 0.529222762092966
Ni 0.6485692248070375 4.18803044828111 10.422224374280287 -0.19012356569539515 0.8375350550166674 0.5135133217775091
Ni 1.749498246463513 3.06445577144685 1.8172718194124675 0.9442684892201803 2.0706610708700466 1.3867041783245733
Ni 1.168099156083495 6.197267201924583 12.226601176662482 -0.5861786106527196 1.373371722881725 -1.2521964022212693
Ni 0.2983901370603312 6.255884291578391 5.730578989463537 -0.8176480862847532 0.4949941799273991 0.6930123178795227
Ni 0.33769069544352237 1.9054638952097889 0.8206030488420075 -1.0158559716501794 -0.5226168267406741 -0.6652600874669188
Ni 8.54895995860095 3.1026952063983924 12.148703762049372 0.9612459976147834 0.776054836223999 1.0085648373054048
Ni 2.245970327633356 6.40873991101931 4.503361425569549 0.9767106689092856 0.2476509704879025 0.4424775980859218
P 3.115896584524416 7.6795721545448465 0.47249514777597346 -0.35348631835717836 -1.447487885270849 -0.7169757706736556
Ni 5.389263021053621 3.7652335688047462 8.157173320583347 -1.1569390869781557 -0.6693599685679053 -0.2348486765169117
P 0.8043984036106608 3.207600672519399 6.965174285563399 -0.0922162144239444 0.29849890637770526 0.41580137434631614
Ni 2.332689085070199 7.455872852628759 6.674427393658592 -0.4990606366872889 -1.5833958841557891 0.16190853671375985
P 4.8522120202010415 9.812281713445788 10.67140734916117 0.2972724901697719 -0.20252733867638667 -1.569569519795658
P 6.166371149601511 2.5631468984319588 6.461876850526993 0.10948837124083079 0.04503107209770955 0.2740204616203668
P 3.351924599627114 5.895028055461263 8.169048990695028 -0.3082225614233724 1.6118669950122886 0.9276676474387057
Ni 0.9224838954176852 4.84608479828601 3.2114264727484674 -1.150282758003903 0.6089241318793512 -0.6010483286757003
Ni 4.585362222131817 5.151071910941526 10.291932713724954 -0.8184898654597581 1.3597240501913035 -1.932990323657729
Ni 6.527765838553597 1.595853515109294 8.62248012301264 -1.1974041369717379 0.02582313171069101 0.25913737386094726
Ni 8.282620762357979 1.8493719636785388 10.162402314074214 0.5996887293240124 -0.8583391362462119 0.5385561236787499
Ni 3.4647583195593907 5.608784671664005 1.2587068427024704 0.09395222327844464 -0.8160002662686849 -1.6671277152578061
Ni 7.81472381611915 4.821826569704222 2.880976111201208 -0.6649289293797451 0.9973622837213661 -0.8688035261126457
Ni 3.4095297692979862 9.077182189694142 5.5383689663559315 -0.6360346149428981 -0.2427684455846206 -0.6096247574908017
Ni 7.1608656847590915 8.840040134243257 6.883581042095176 -0.09583992721946075 -0.5858099144593911 -1.3051305312161394
Ni 4.988821217897557 0.38996982388310003 7.229058879572531 0.10125441336681272 0.7117086087374452 -1.3902821254838185
Ni 5.977801253331608 8.408507321703187 9.118807378937218 -0.02107661816464112 0.061586662463545556 0.4003487872366718
Ni 2.9962857858073315 0.26560114451229705 1.278338090371451 0.005712477003745 1.7625138427693 0.059567832261303855
Ni 5.275640189208045 6.956197905457876 0.8222193357138364 0.49830241836502565 0.731226881276031 -0.8389134234214326
Ni 1.906030199053451 4.153383793452473 5.206967957044886 0.6867095155899464 -0.4394843197855528 1.5840291468644139
Ni 3.1475446140825145 4.630564409259533 3.207024156639212 0.1410733451359635 -0.04417695162753037 0.7262996191777427
Ni 6.797651396571632 1.662955878748466 12.014363493195333 -1.4798207930756 -0.04071958920654922 0.01641623657449431
Ni 4.48670466563023 6.9727506882980315 2.9286282587279797 -1.336503646210782 -0.9461811328618608 1.6392212186555253
Ni 6.179043358562145 6.844905274673927 11.147923254227141 -0.4425130793095476 -0.4058239514186301 -0.26214067946364533
Ni 2.275529531538602 0.48530104157839093 12.593915133331272 -0.6048558753472487 -0.439694636024146 -0.11096958377204759
Ni 4.586652652201801 4.372812607367175 12.414436734669538 0.19617568542674602 -0.32752254730356495 1.2892136028755667
Ni 5.928152188480711 5.94552193424287 5.2037883002177665 0.012328439658365864 -1.121326737091185 -2.18242589684988
Ni 4.55376061092156 3.727913217140459 4.918285753252053 0.36179715221571884 -0.35834698888358935 -0.29570771678581326
Ni 0.7629561026580787 8.025323860274463 8.505884660171317 -1.2474583733156515 -0.37372655666345317 0.7745702812586724
Ni 7.080496957306917 4.646151690464593 6.781131106574966 0.39357958683363825 0.0244452775265579 -0.6588518699477298
Ni 2.2825201347234803 9.500628926040282 9.839058601581437 -0.08310011105528914 0.4999942042451518 1.1260269707803316
Ni 5.523783393097284 0.5972184633242829 1.407932547342211 -0.0929363804194206 -0.1486257035619247 -0.492550603482913
P 2.541590217694527 4.825734994592447 11.354400420727206 1.0723873310780048 0.3989310809535388 -0.24938517957018985
Ni 1.656958628207389 0.37580015902110947 7.247457255922849 -0.028849063021208383 1.3132104800107964 -0.3736429958107113
P 6.5097369522520925 5.442059249888149 8.84872686385825 1.4136115442383785 1.1947502442886584 0.7631782373716469
Ni 5.2072473954988885 7.167893422622242 6.986044903119738 -0.14548664371231074 0.049054848545121967 1.7326124272241774
P 5.226260350774626 4.784459799692094 2.9879109874898306 1.7795520291985092 0.8353218494154323 0.564399309994099
P 8.26025640236811 9.422738938362826 8.592139234129748 0.695072542842661 -0.8977569759222023 1.436187115546049
P 8.659658434532533 4.286771557808812 0.6387795952473382 0.17898400413880786 0.1689397325289284 0.4020364593517399
Ni 1.2294642119295003 0.74197129596605 2.9454224169769088 -0.5589038340971665 0.3063034900237886 0.012663197289965287
Ni 6.355563051732484 8.439951110530785 13.033772612373173 0.41262503350086355 0.45019039334914723 0.17696234572308878
Ni 2.9654640028408052 2.669407780309928 11.299357543857166 -0.6494771136010493 -0.1925684276914619 -0.443073836909024
Ni 0.6469232301925901 1.793242897469016 5.248776962945413 1.4786668819768147 0.3683485801809915 0.17600538112645817
Ni 3.621578065905944 8.314584436681397 8.440773643654529 -0.5091506739334393 -0.9554497026479803 0.5260669900728037
Ni 1.27306960789148 6.101190505562963 0.8748085387169932 -1.1511731310286561 -0.27885285001200366 1.5008053657470668
Ni 6.957274811127792 3.303417426133109 4.464528764132597 -1.8019105993993676 -0.9453938610738749 -0.07829600479842645
Ni 8.926303991871256 2.8010316474483026 3.205488637692627 0.6719932924256943 -1.6550016214182335 -0.6635207361783089
Ni 6.222982966628582 4.6520653879795555 0.9996265476948984 -0.3582109775263573 1.9215190897933359 -0.7044385574385933
Ni 5.256525113567059 1.4716844346342082 4.807805443555323 0.14538354247554314 -1.0301489912340838 -0.31105977376185134
Ni 3.5620790276431533 1.705725744449305 8.529703771182525 0.8485424618707644 -0.3467561987221964 0.992397226406607
Ni 8.597996301260345 6.4975196431003015 10.348090559310139 -0.12240019420649244 -0.42860032588319735 -0.5707944148871653
Ni 3.177967199257607 1.9899917066285298 6.152881049351914 -0.20933741961968463 0.9402395705664451 0.15262736852215006
Ni 6.646253313252926 7.435792275352677 2.9674210003857886 0.29205675029678735 0.886523826210544 0.6562807667864439
Ni 8.005104027954857 6.805941713496062 7.6104496644076285 -0.1949842362218061 -0.7727689663838756 0.8266106947946795
Ni 5.579550396193646 8.364493444280205 5.071594415767902 0.7811741597284353 0.03390770849103838 -0.9259660913665666
Ni 4.119730491267637 -0.05093949492088201 3.284106465064232 -0.028197802590454665 0.857471388929278 0.23594859444930977
Ni 0.9376042080434626 5.38197534044256 8.13882971788348 -0.5481715352813269 -0.3071930917175935 -0.8449125784276611
Ni 4.601924288641541 0.9986907538024208 12.712072109393972 -0.524192141647594 -0.5728186444060457 0.31629196869506815
Ni 1.1420027609271985 2.3815490380077975 9.065300021013764 0.7203071490397337 -0.828960940194411 -1.0894052057922399
Ni 1.3932374267826586 4.000908804463852 13.07740214587603 -0.6210152587159304 -0.3659487124902472 0.47681210970173366
Ni 3.407951545471387 7.527264271608454 11.119389895809185 2.323685904075353 2.2063764941282065 2.6194836094718115
Ni 8.23900608272643 3.496796263239355 8.552938939377894 0.12247784152196325 1.5406358674804435 0.001963808594590166
Ni 8.876394984272448 4.151629179904078 5.139777398544815 0.5711106605760035 -0.027645015410778195 1.0342573569755027
Ni 7.5488488033545895 8.774989461578663 10.965645829190589 -0.4723648725636575 0.7602903743008906 -1.4987639098370058
P 5.612516706830434 2.7514847029626557 13.59533342925284 -0.7765677713046755 -0.4779508512918672 -1.8784888501757389
Ni 7.748754060167302 6.790122340551797 1.1073041175489793 1.2647552127228865 0.26768500632064224 -0.707565275993033
P 7.614085149410547 7.185179615358287 4.956562322881868 0.4739124195564354 1.1372374947841706 1.681217617691969
Ni 7.215332974115901 2.627779805965981 1.3424455422079113 1.6770292906422344 -1.539985121270322 0.8952537498843745
P 6.771248640319584 1.0714190211999404 3.058756526698913 -1.549946603358408 1.065917407082945 -0.08675827663316671
P 1.0208230220530827 1.6294511152767213 11.20855118670943 -0.8144702027774038 -0.26912353853938165 0.10401372127950473
P 8.446421828219842 7.729388325447973 12.656675524713384 0.2983600668069958 -0.3097875919176471 0.8783739434099002
Ni 0.5903197684681306 8.421430189742164 11.175030640999418 1.3122321752579271 -0.3386410258142297 -0.6480578646560193
