# total energy = -340865.25136421254 ev
CRYSTAL
PRIMVEC
9.40200085129214 0.00000000000000 0.00000000000000

0.00000000000000 9.40200085129214 0.00000000000000

0.00000000000000 0.00000000000000 13.76077861467899

PRIMCOORD
 96 1
Ni 7.822483636417584 0.9597656641319893 5.659766731675385 0.7210774515468549 -0.7164245261558758 0.17977436125058716
Ni 3.071812364882195 5.484271801600361 10.18076122177007 -0.007577555236941788 -0.6971145129733543 2.0520475695339178
Ni 3.9561833829911794 2.402258265632624 13.05687375642717 0.18831402329048214 0.3334139730873355 -0.35546709623263295
Ni 2.405624181990803 1.9742697780888865 4.62556166482204 0.014662744218497328 -0.12897733320337787 0.4534976033455093
Ni 1.522550640019888 0.3145843720760128 2.308797674687159 -1.475266340935698 -0.7353067077723595 1.0825807266712388
Ni 8.815419560079334 2.0935999747872263 12.601914688813398 0.2506419347954264 0.04188481315924399 0.38014942947066144
Ni 4.446902021210249 8.958828281339954 6.509935150544752 -0.07038831991557556 -0.8721685859301367 -0.16007559727007917
Ni 2.668071637918746 9.077058443921235 4.670174159569411 -0.9831584814171583 -1.1676896406264408 0.45364955554234127
Ni 1.103870133466645 2.0857116959478073 10.83728790843335 1.0729861410042683 0.5871242623954405 0.46154258513717283
Ni 7.449750708753781 4.731105707453349 4.964435166282744 0.19194622072643072 -0.7382840452331285 0.33267838047289156
Ni 0.9631691884941701 6.867588208803852 10.13898343032435 0.022161623698703767 0.1042633753964656 0.6445850756160705
Ni 5.4747193685838536 1.112698612406114 8.258050136767723 0.6184842647639607 -0.42088393107554617 -1.1090736307554445
Ni 6.720738355177051 6.452715512655812 3.471665364431938 0.4771409537960622 0.41913712358776856 0.06903386277021013
Ni 4.5869260221106885 7.174262677438145 2.6704164969682704 0.9513212823019036 -0.9080948675131005 0.08701384428739853
Ni 0.6093953958478752 5.319031634016582 3.257410685232356 0.35851616747160187 0.5012738422885238 0.7050360818132761
Ni 9.370071805101801 8.379072693646153 6.5130180666728155 -1.2018246346369366 1.8569216655279244 -1.7777460863380221
Ni 2.8233362824409944 8.113738823411056 8.673281049153882 0.9782265913331798 0.5496735737481502 1.1401505546659072
Ni 5.899332537768412 5.159065988994084 1.6223961298447926 -0.39406526822080523 -0.6711435428308893 -0.3518019886762199
Ni 2.3109178259127714 4.423481636718005 5.476721054596861 0.038989236779003816 -0.10948734279956628 -0.16758861781767267
Ni 7.928171529664198 0.7156455287543199 8.457209903361004 -2.4096857052759404 0.06674326696382053 -0.24551232687834493
Ni 7.404762133966391 6.958627784491688 6.027014531955495 0.4587215707486099 0.4402998737083127 -0.33667875988153634
Ni 7.683399835617194 7.7826285541764655 9.085925471064806 1.6224851368477669 -0.5204432161281229 -0.314210146465375
Ni 4.978265509754479 2.2416908925460937 10.152207344731554 -0.5114142731566353 0.12728040511692917 1.0948559444941661
Ni 7.869597063431086 6.6332245298644015 0.6246708268733868 -0.16959716360726923 0.03760161240285782 0.12904495321651968
P 0.3329154534266867 0.2021712275137407 4.658133957088172 0.12747709450876754 0.6361163760234271 -1.1223202113527058
P 0.3884399105352365 9.044715560479517 8.729576470344474 0.6540161391219833 -3.315025378641407 0.5118081661609444
P 6.056364758478755 8.079571951775241 12.195503793565807 2.076269675306076 0.5177325020651793 1.536529558621554
P 1.8612201180588805 3.283432603401438 3.1875331333964434 -0.8744082738939328 1.3809451643536088 -1.9184815885185929
P 8.865475813405993 5.616219483641371 9.153133794816677 -1.290975836982312 0.33431154520094036 -0.06386543119539323
P 2.73723275727842 7.509735475136967 6.713430179799363 0.21204273436598964 -0.4864128660162913 -1.9569985136468686
P 3.289515698048761 3.230330101750617 11.037891822380306 -1.2253224606485607 1.13914422488858 0.47506375955205926
P 7.600934884841813 1.8736495633815407 10.597381749904104 0.8482748100316745 0.22672681874072564 1.8098817905303024
Ni 5.727934059529306 6.0252065271631 13.037333577747832 0.760071059201233 0.4200948595153475 0.26108858405004715
Ni 6.285463316857927 8.68543689624743 4.8128184981486895 -1.0701319593849248 -0.02064467283354509 -1.0008900943689665
Ni 2.817243785792671 4.216571800700012 0.7329292271935381 0.4867077715488908 1.2332026347275857 0.22088732924081314
Ni 8.901269231214895 9.46640470735292 11.024131053715976 0.6703848102879938 0.018177956460607405 -1.4813002058346036
Ni 3.0440670599297213 5.173469854526849 8.122767564971836 -0.30381003417797353 1.2792212675495451 -4.1262685898410805
Ni 7.199723296147498 6.02634416928416 10.79138169834831 -1.5974731881844617 -0.46369331293158855 -1.1815034065810812
Ni 4.63664380340133 7.253192475837339 10.966101903540892 -0.21591790105067976 -1.6122300347786618 -2.5913164030089755
Ni 9.224284377588056 4.996608813706454 6.954216365622255 0.7647029015462895 -0.2581945503317037 -0.06184325855904187
Ni 3.350026976487976 4.848837563981602 3.026875501100308 0.09852518736110774 1.38525793279635 0.533217742184972
Ni 3.262870427213346 6.679538786792862 0.6879312504051476 0.2698323916809482 -0.530876238535989 1.0799314619738498
Ni 5.420704872835984 8.297463324961818 8.936222110134352 -0.9904874109784038 -0.8099795139959018 -0.8393489682969544
Ni 8.788050335166881 7.004171077338109 11.895257473015556 0.8638199568551254 0.38113801863617586 1.2881435097398395
Ni 9.10219939459657 4.350305862931117 11.00219712558191 0.33847724654285577 0.4379537420736393 2.7416698878952843
Ni 8.227531241520103 9.01223164702279 13.201815944050969 -1.155349631003849 -0.37985452393806196 0.5270728056294988
Ni 8.274165166482579 0.9870408690344383 2.628638705522551 0.419524074613542 -1.2160975996161831 -0.541317745584287
Ni 7.660054667132953 3.583600887343385 9.474185803380934 -0.9125243640393638 0.5366128839094501 -2.19684207227521
Ni 1.457893079139453 8.448920159078863 13.572255723670748 -0.4493954082516776 -1.1318998846213408 -0.14909775810233675
Ni 5.251215000799981 4.022232440019688 8.441577196297473 -0.6287977308748267 -0.44502890375286586 0.08630010604982556
Ni 0.48681680780386294 4.02961301080508 1.2776924475636797 0.5904132175593573 -1.1846555790568178 -0.4721352730513546
Ni 7.015509890544711 5.5237978138064605 7.807783607853302 0.4889441170785773 -0.3771564082806085 1.4554449353343966
Ni 1.7827322137067108 1.2155565033515787 12.869534185491716 0.419370065534181 -0.19707917107762188 0.5588261867816957
Ni 8.750273095146873 7.856133397998371 3.1019956086940987 0.2607214305186155 0.2361388560832449 0.3310585854812814
Ni 7.916644676437586 2.932324278038785 1.1546446996697426 -1.2428818096885628 -0.888514888498644 -1.2509769279918712
Ni 0.9482200069033758 7.012538858228553 7.818392825782266 0.4630906463505831 -2.205315142743228 0.6964827929266263
P 3.8155294480237063 0.5231611828713939 9.583831939048757 -0.5454381955105639 -0.7776136960706865 0.18126200153970717
P 1.5287935686842198 3.2845702455224983 7.256457790784812 0.1527366404065047 0.6293258354641549 -1.5770460306783614
P 4.39346104752341 0.9925316376187299 4.776021886833035 0.9630303432087155 0.3068292806202716 -0.46887202891905055
P 4.024695764281819 0.35257315711853104 0.4484143347173228 -1.020210134853817 2.1607391559050657 -1.2405986700813407
P 0.18057389101549332 0.7634622254426603 0.662867396138016 -0.21970950688262805 0.5162170938619174 -0.08019142204892642
P 7.342107199299062 3.9916571327660635 2.834183370995271 -0.017893335340653058 1.1004195546248725 1.3534353889691142
P 2.4398004556276187 6.847317494646775 2.792048303511532 -0.8644285369734015 0.3653869264495062 0.0012804093743203754
P 8.924407555677124 5.161284861230202 13.158028944991443 0.9411685101386178 -0.31541727939959874 0.37321233603119597
Ni 3.813639645822606 9.279032229413966 2.41855287356659 0.4004583162313426 0.9239308061040926 1.6717770411043595
Ni 3.610217952175799 5.281799710054605 12.495915589333668 0.031914332210093425 -1.9926805404295103 0.10387333904689852
Ni 5.846831764181623 4.016892103451404 11.245101582230216 -0.05338278649651451 0.6808797962820466 1.2121638117794158
Ni 2.9984203450722964 2.933847402200866 8.762520141650125 0.9998685950829875 -1.4113546298834017 1.9665640458481164
Ni 3.518473226412925 6.801868221810361 4.846711771555389 0.18883749989411994 -1.142879523561296 -0.06637765609428568
Ni 1.4625094616306984 3.5237759549772067 12.61399720029914 0.31781894686255585 1.3325932554127826 0.48941000097140225
Ni 0.4843233971385305 1.6058523688843138 8.825970485602095 1.7856386017122214 2.6735369396727893 -0.7359538544380552
Ni 1.0555344463230771 4.076416171785566 9.14585382544199 -0.7798222736862311 1.2604900096886293 0.582004681780688
Ni 3.885217079439409 8.142283298448573 12.869865135926933 0.018316538921000713 1.2067608955962894 0.10693809401515131
Ni 3.580140950975201 1.6061908409203316 7.030464713336106 -1.1264447750440405 0.22332473503771214 -1.135502771481251
Ni 5.632372121360229 8.340590303551108 0.8413963519359007 1.1255191779059777 -0.5131582524309356 -0.7558660199809498
Ni 6.253787975487244 0.3368586526462962 10.694106715596941 -0.34643506793735174 -2.261947032304659 0.09456774537525649
Ni 1.1846427240619362 1.3580626325161493 6.468556944141554 -0.5527298440759707 -1.775162641881562 -0.17613907849084504
Ni 8.651204210604611 2.611772455927755 7.03921609586737 0.35396351510391294 1.388691126847615 -0.4148546941623307
Ni 2.783142728163859 2.1008865255626135 1.4045216802600176 0.07617844423479138 -0.7623837664948095 0.6874209398346742
Ni 5.287271674636895 2.8245397385690585 5.857220035087075 -0.0034923294239746308 -0.13404189221047882 -0.07505332949141268
Ni 2.1945868675335913 8.837382634416501 10.882133572805532 -0.014771758992535848 1.1648082053135875 0.5243973156798646
Ni 4.396046597798548 2.8454497887941694 3.3052978969281996 0.11560913942658799 -1.0492065220861673 0.9507656669087496
Ni 6.3980334748369065 1.785054507953834 12.677227537427699 0.016762307060003392 0.5827911822377254 0.15652541802497558
Ni 5.431667606002566 1.822286431915812 1.411209323571673 0.4580569405814176 0.0510929620210733 -0.6312459353050032
Ni 5.181696605402287 6.577198005902424 6.763807981560239 -1.279680980794783 -0.41393552478217105 -0.4027537971337386
Ni 9.10236863061458 2.7247751059527583 3.8983601366380074 1.2141672153626897 0.9637271121654242 0.5037528999566356
Ni 6.752366686542731 2.3298722599297785 4.027422344571964 -0.9737310174556714 -0.4067068682442157 -0.560126650760674
Ni 0.974893483741793 6.237654141770387 0.9793631950174304 -0.4886404697952294 0.926806584989991 -0.20780041414986794
P 4.9883820628310165 6.092280402300664 8.923300940159367 0.18191711862520282 0.454950533741952 0.9339426818141399
P 4.634669383191225 4.7433283087539975 5.287290478638897 -0.8438831087218822 1.2995337538546523 -0.5181539058733141
P 6.6537396960474915 8.832333759879234 7.107359918718791 0.3970814293393097 -0.4348092829073866 -0.5003191916847383
P 6.6488036455222295 2.718156097248407 7.516398673246021 0.6450157353955859 0.679690403959636 0.00725848133462621
P 9.237795053025774 6.183714862030521 5.13603202674296 -0.25857867314399985 0.1685494390690452 -0.4355073374156757
P 6.706635353676301 8.851720685942263 2.625501257788684 0.24887430137204233 -0.922671993996327 0.6169791409733439
P 5.674596507853472 3.7381979897945983 13.578214711904867 0.21456112991246917 0.006672526924169153 -0.13606997838410115
P 2.4295522745370746 6.8382069556772915 11.840888521829967 -1.0561091627432715 1.2265054252130683 -0.005483905932706685
