# total energy = -340893.5844062191 ev
CRYSTAL
PRIMVEC
9.04626009840946 0.00000000000000 0.00000000000000

0.00000000000000 9.04626009840946 0.00000000000000

0.00000000000000 0.00000000000000 13.24011606400940

PRIMCOORD
 96 1
Ni 6.457419430455506 1.904427708755017 11.330547439270296 -1.067049720915175 -0.06233073971842168 -0.14096664435477013
Ni 4.800967801770375 0.21747299585904245 5.855136625242428 -1.2509291054730713 0.04751270086898269 0.2676790927833712
Ni 2.818633701596934 1.6550404121197249 4.8439628664630705 0.18160370114984206 -0.1902940298349884 0.02078376951457066
Ni 3.941292664417342 4.3764268183441475 5.07721344444855 -1.990888224415778 -0.010966012093200469 -1.0706688057250013
Ni 4.959865359279042 4.563865326262142 2.6383182188302254 0.47430297012663475 0.17330675124837247 0.04320610307382882
Ni 7.435871962063524 6.2156490847693915 2.3612683636349705 -0.8998639949628761 -1.2744400441108181 1.280248166152163
Ni 4.930220765145486 4.580528537245971 11.493096067328947 1.240840867999134 0.7824365713806267 -0.5128965141291166
Ni 5.697551680064791 7.859218839165178 12.433687286813933 -0.23335358002862394 0.5536335868371627 -0.08101520350180241
Ni 1.867301857572804 6.553852562424899 0.5619500548485811 0.08935020573005903 -0.17202119966772952 -1.0274362202886111
Ni 3.0048600106702845 1.8165071074782322 0.2804729599923673 -0.7997452378624034 -0.7000939073166524 0.6765238333061961
Ni 0.5388079124279338 9.100356669659426 4.975595900853299 -0.004181127960883122 -0.12851967684066898 -0.09004671757645137
Ni 8.593196193336718 2.5303746255927413 1.37037812910531 0.10039952156568516 -0.432302714435449 0.4106766515252411
Ni 6.976475738723781 0.5366539979136832 4.838296289177364 -0.6340695207967273 0.7464565537415918 -0.4215891846726868
Ni 0.7355586404255985 7.564075559274614 2.45856993656769 -0.1555352861975644 -0.7044573264916707 0.5444213242102753
Ni 7.681306043063673 3.866217752389763 3.637470402649534 -0.03443735574226327 -0.12217239446640249 -0.2537776522109307
Ni 7.472626916584315 3.6113846072136107 12.531214111621516 1.0380579616685155 1.0519182645903755 1.020077980151327
Ni 7.771497255609154 8.972017378547815 6.976561678194109 0.4955572515197207 0.04939577682430848 0.5946802203658275
Ni 7.0064188594384795 0.651220358122536 0.3392157541533849 -0.00907162328396502 0.39522843529097096 -0.1457787210314328
Ni 1.7304228969884818 6.558927514304338 9.319518602266937 -0.019329553566547353 -0.9290046210825743 -0.8313854904755038
Ni 0.10935300055088279 4.913340443920825 1.4403925632695043 0.5433445462063288 -0.3228503386388762 -0.22990341669649436
Ni 6.050401052716399 2.1620380557618075 7.050507616969364 1.6310286555424038 -1.222594005973804 -0.32546129389916206
Ni 3.389506987343696 4.581297469348916 0.4542751355341263 -0.3030906395134458 -0.5166328412430973 0.43939587383680456
Ni 6.133328118454057 5.540825224964441 4.790472330878172 -0.7060861203443453 0.42477015350382974 -1.0043765102556703
Ni 5.415760679985374 3.2420891338190034 9.138765280514551 -0.6901514513919599 -1.1504583643498187 0.9584278114396978
P 0.19143695485330997 5.546325351065509 12.486183638421025 0.24066862563279842 -0.6260466504922508 0.671566746411237
P 4.0850377363679655 6.289747000713227 12.566670927827335 -1.1785546083654026 -0.06946632232193842 0.19348631152004098
P 2.327141347654245 8.576614398693202 1.4211936855979619 0.7710820655997559 0.156644202991027 -1.1218700111891649
P 6.338551573600176 7.713782116588074 5.907514470843064 -0.31391292693993034 -0.6747346026162573 -0.8361739130030825
P 4.901580305875777 1.1022506001822325 12.722003354256344 0.39228169395782114 -0.5024218398500379 -1.1581246226458248
P 4.100036435505419 6.1177956899745585 8.33699615826933 -1.3416869901839346 0.048520830418522884 -1.67299702955439
P 4.679693639745828 0.9126771748960609 3.6850555396838116 1.035659379529352 -0.6291813394664906 0.8977389782000732
P 0.243234935185725 5.702825649664993 3.5395464470264306 0.38351346084688787 -1.260761775292777 0.01382045082286007
Ni 1.3067141694854416 1.0400304236638946 2.7246566292269496 -0.08408561489701002 1.1310210815608135 -1.030143591917445
Ni 1.7849447062173305 6.610210762440782 4.7672098731990635 0.6698163393790335 -0.0363073190714665 0.28943911016828217
Ni 5.939557228511807 5.724699506428781 9.337419341623507 -0.535995047819793 -0.7455841784389676 -0.07336797136918978
Ni 8.616797885767125 2.126079172124065 10.185157938860817 0.6095275697913052 1.0557515222935365 1.1535254333109166
Ni 2.3014499691558328 5.355214061573447 7.037094727215984 -0.1331638604808997 -0.6771247001149886 0.18623991437027282
Ni 0.4903760454544129 -0.203504665739536 9.206660175952626 -0.37517511618452165 0.29580490448530994 0.00802749829016682
Ni 1.7103130609314499 1.320880612699707 11.54985592129037 -0.9178887136750709 -0.41278392767623107 -0.1824069137774278
Ni 4.088565777781479 6.819505034602495 1.6174921005938938 0.13518551889661878 0.7848302684237839 -0.07992814108521074
Ni 5.6845069730948214 7.87489600780523 7.999082160934932 -1.1590581902036878 -0.27144524469402287 -0.06450075078654698
Ni 5.567927820028259 2.6965001448690944 4.631101653969694 -0.10013238394722755 0.21391218347456065 0.11096161335224762
Ni 0.5681150810621965 7.489588654149288 7.028409412956716 0.7929369566913183 -0.8587479416488566 -0.22785064793252371
Ni 5.135037138590047 4.355946085625694 7.01134273877534 0.6906214490498428 2.2880041344030273 0.8878803402384386
Ni 7.873032478238091 6.923862690362243 9.011434647396804 2.1099644964553597 0.6754563112736303 -0.5765020067949039
Ni 4.502151740305743 0.32164520328807994 10.667495477648439 0.46737564687918215 0.3243644612905575 -1.1935950476382926
Ni 8.122347404793105 7.187380245171663 4.620403546852714 0.21381062489968983 0.199782686051714 0.5131541386658774
Ni 7.255091501531034 5.970703501811114 6.755676433049996 0.6744152716036257 0.07739894690545379 2.1180022791581714
Ni 2.4180110297023263 4.907161848317158 2.8222630611228365 0.9849795937862973 1.8643457259061376 -0.41128985962920783
Ni 2.3330395091968383 5.150497196989268 11.491109508625337 -0.20358097675188164 0.41395737915904196 0.011194840274554915
Ni 1.0598326868797483 3.348518383126687 3.7427951036069858 -0.8398747588934374 -0.7813960459312542 1.1035388169801446
Ni 3.748010272516963 2.511486034640388 2.718963817787143 -0.22682503488148675 0.8018255174301997 -0.7036960228456138
Ni 0.9948534010508416 3.2776047507150485 8.135269987252608 0.08916122964770451 0.14052904259671928 0.07790314023538196
Ni 3.705330017673474 2.599650884938108 7.057935501083817 -0.9492978241139716 -0.40160888489601804 0.5983792664839693
Ni 3.981096208569811 6.730236540580547 6.035944224555021 0.9884063600796591 0.8422404309121365 0.15133076119791358
Ni 0.7455276189837852 7.264743860988007 11.398111241591103 -0.2583506162935938 0.10132589003469647 -0.7958492452421068
P 9.311948691869938 5.393181214938882 7.964008906154581 -0.39351505214429 1.2091620488386143 0.29625844708296073
P 8.472546223254561 1.555830078319694 8.207984730037145 0.8488605073318155 0.21189592437548022 -1.8941257853820477
P 1.8090529892096785 3.2451648622307854 10.380700991143856 -0.5747012061407393 -0.6822861897112702 0.4831917879758324
P 4.23070966170597 6.3726921589709535 3.7494287260903962 -1.8109909644340811 -2.1111574883221964 0.8190336537783701
P 6.920036122367585 4.053791954208277 10.490368801543942 0.06797739648123777 0.06888422456622328 -0.28677853261698355
P 6.301832804119523 7.794990392919146 10.202462529681103 -0.30402060752688287 0.12973889395975077 1.1089419902735869
P 2.4743149521580015 8.468593007619418 5.852237298901323 -0.3140018871093108 0.4010828371892189 0.7384863910519217
P 6.753937741871336 4.058785489747405 1.4913935680928665 1.1419328433773108 -0.6141308728912713 0.4623149445268232
Ni 5.133680199584849 3.018537955842678 0.34036191529977533 0.8557515780246939 0.39311627404397453 0.16657354628959697
Ni 1.6361970524675442 1.2368860882779613 6.956131604531851 -0.7675174881769491 -0.9835642014960092 0.3121998009035655
Ni 6.717209926130648 0.6803040841339428 9.166926288002424 -0.007285477917819711 0.25101988696013544 0.6636832298981021
Ni 2.4874953530284905 1.4079418192731998 9.28684260639577 1.0043027195949414 0.4664737038902031 -0.5060337255710123
Ni 6.371199526065236 1.906607857423368 2.3556017863492644 0.2460165202082731 0.5333678946095911 0.7927479806089638
Ni 3.952817599701489 6.894335697609138 10.435594601660128 0.6935437649029604 0.10085203572207146 -0.12361478333988388
Ni 8.10856995076033 7.338127122389106 0.37959011731404113 0.3056422022907059 -1.0367981211194852 -1.1226817084571827
Ni 7.54623633448628 3.8532635080201416 8.322644266724353 1.004209902770819 -0.04808605687394944 -0.6376855202827598
Ni 3.185350990881665 8.43359302754535 12.414925343502066 -0.228533018711529 -0.47634108360258604 1.4937523155550274
Ni 9.234241318172279 4.680182137787699 10.177464999327348 -0.7852416449295895 0.3860825071256448 0.4073753550661501
Ni 8.543043727704607 2.2330331045137584 5.925746303316902 0.2514466900849089 0.692537178015317 0.4896503991169825
Ni 3.719758802428744 2.7413695946409695 11.297989949405583 -0.048565053392897004 -0.9661452346886134 0.030468600902502366
Ni 1.0859944708999625 3.4572634750032414 12.786284268810578 0.06588117607384138 0.14148549297271762 0.06167382286071314
Ni 2.8651495706951158 8.347780204856639 8.120852058009378 1.3452446256282056 -0.4641633105894716 -0.7553610553200734
Ni 5.836882177118503 7.744774603466792 3.569323116556492 -0.6941646863164109 1.1231149393398594 0.29453400819268627
Ni 2.8078505596356287 8.575827374070187 3.6069257056425306 1.9077294922084111 -1.1491234475884788 0.0440072588188855
Ni 3.2881798286955566 4.274068386052058 9.257793256172494 0.3828051219259536 0.3642690107949791 -0.6002404880624244
Ni 7.396448360832509 6.168771365269824 11.376768400291347 0.04527635533929622 -0.44513071943805277 0.4197549596774255
Ni 0.6888374212246302 -0.26897154498431053 -0.11784291559340387 0.7708452669986015 1.7254976705562672 1.3733334134446218
Ni 4.67860808854167 0.2835106941120036 1.5191845835453215 -0.6999998049409493 -0.7044807235304383 0.20720083289265606
Ni 5.95726075939962 5.651840928109692 0.23181312726597314 0.6633135052635093 0.18770955693726382 0.8245895505995927
Ni 7.981081008091977 8.94336787301807 11.324470161779017 0.09745072335000636 -0.5187210912306938 -0.3523686598129674
Ni 0.12852564406832467 4.909866680067519 5.732122867413217 0.17599175427970334 -1.024746332161274 -0.3115300285300506
Ni 7.920516297159981 8.870219814377872 2.7236769192651966 -0.025193211436175967 0.3076666889199024 -0.8917663055564061
P 8.537127473641943 1.62837203753757 3.7594510775827876 -0.5770313969358126 0.9971149435972504 -0.7627334365247445
P 1.9301009947333596 3.1008136908578403 1.7021886147943286 -1.1262604269473766 0.22267733126170036 -0.7810859708900032
P 4.695343669605776 1.1346362111062875 8.522980027573752 -1.116227982412039 0.057923097569029275 -0.7191069580840455
P 8.714814113242582 1.6911259433979524 12.459465509408679 -0.3259084087389097 -0.6098481863555174 0.6022932568263949
P 6.380254832359923 7.844147769947447 1.4587691359038968 -0.9505206407774792 0.3276428749315131 -0.8425528199462329
P 1.8409772408719662 3.268486120600119 5.9681416009693 0.23855543594453751 0.5580939366013614 -0.19516909853910258
P 7.030029598128921 3.8822839102113056 5.935014196722404 -0.2906752965682284 0.15636703807024038 -0.13455405596020698
P 2.36485520573871 8.415066286994382 10.36853377139725 -0.7009516273312574 1.0673212294090069 -0.15338815794757454
