# total energy = -340866.3948404411 ev
CRYSTAL
PRIMVEC
9.24032320459076 0.00000000000000 0.00000000000000
0.00000000000000 9.24032320459076 0.00000000000000
0.00000000000000 0.00000000000000 13.52414703609707
PRIMCOORD
 96 1
Ni 6.176389029198504 3.747422263617596 12.157409907610383 -1.6919725422156282 -0.662063177796176 -1.5151078984126682
Ni 5.0461958735033345 0.2799171069280259 0.6504900995180916 -0.5655480788865616 -1.0587237175479831 1.4438682862403909
Ni 0.1710014188363664 3.986007405428629 9.314810243907285 2.519841534897441 0.5312801588426269 0.551474888622947
Ni 0.23462935950238473 4.741339134594364 7.185473890503809 -1.7188459695677043 0.6515051997746715 0.41302406871149516
Ni 6.828275341533313 4.391214052938212 7.846696625274167 2.9923393334945367 -0.14636236144904471 -1.196584983504552
Ni 3.1040647694815315 6.262933895124227 2.6304196691127926 0.39340680870119993 -0.9602337543001851 -1.195495092874483
Ni 5.525630036278915 3.051247082781614 6.192977257183755 -1.5300485788829004 1.7834372231855287 -0.11461695071664776
Ni 5.079830649498383 7.8408761457688705 9.185438328590946 1.010354067995344 -0.6767436626264861 0.4448936637265822
Ni 4.0955883967817295 5.859270381568263 5.282531920677776 -0.5429514245329682 -0.0970545163528522 1.3093890493821772
Ni 1.545139103726396 6.838291851747223 6.467531280598724 -0.2896643388052108 0.8097141761496571 0.8750399939406607
Ni 6.549651879835866 5.159981211855816 5.302263706573333 0.23973043008924522 -0.4829817288475553 -0.3179341322841815
Ni 2.9740626641314374 -0.13573572581848073 7.961327453188062 -0.037837896783379996 -0.473675620955281 0.5309911668472984
Ni 1.6226192127149905 6.386310688829142 8.784204095971548 0.3334746511219418 -0.17266808922310906 1.2655409418489754
Ni 6.1989261771798025 7.559351222625696 13.334240821932532 -0.34378348924711766 -0.3296645333472323 0.2747660815371397
Ni 8.903587222043205 0.9657985678578308 10.966946744654853 -0.6497740760161778 0.8627071834069208 1.0016503695737589
Ni 6.633932866608076 8.345545630863812 2.463531118077359 -1.6886843583826594 0.7247829254229001 -0.3210845049877051
Ni 6.538175398576017 1.500702390056014 11.643586958476789 0.5228304854133771 -1.2824269189710367 0.621210405445872
Ni 3.1200505284022553 2.175014966495214 1.240756393391202 -0.26131124158381447 -0.5932694560612298 -1.236612174629767
Ni 0.5745124670615834 0.5272472904977719 6.976106650257706 -0.14235632561344516 0.5855229793465916 1.150211024225703
Ni 7.635121871845311 7.709478751634366 9.783516391592137 0.16345479815495723 1.9008278799925713 0.5267699296770992
Ni 1.1557703699683277 1.8046166160112767 9.12095473400813 2.135572941052083 1.7411495181609111 -0.8555713436930878
Ni 8.826818617931428 4.124723135438979 3.8037069195354647 -0.014083217565943487 -0.43915187614679857 -0.262180017342013
Ni 6.7611628750355 2.9305869440609142 3.849635021350242 -0.6241967417677057 -0.772030031335322 0.7556261360560018
Ni 3.7555999495394694 6.989980995355664 12.428487721484325 1.6651507940370935 1.5102636829464893 2.373896463491473
P 1.287010678610547 1.9688725990024822 2.753867613305389 -0.9546084376936076 0.7848081569365968 0.23208602617010998
P 8.068354419243077 6.339951987959043 8.087736920926377 1.0288989208770667 1.5222079997925593 -3.045583794640974
P 4.925277005736519 8.146786281508454 4.760486008039238 2.578197349128515 -0.4844241177210367 -0.12555313801317733
P 5.6507162897528085 4.0168516038548585 10.000187183197166 0.2965862627360247 0.09107258773780444 1.0554478750101888
P 0.25812195688969575 8.37266597909059 5.438573256454807 -0.713015757584643 -0.47356017842333925 -0.923119623056707
P 3.885814582320301 6.632010879408358 7.889459916435564 -1.258892326184206 0.08468211083042836 -0.44214695421938044
P 7.8080822391736975 3.4115827214362633 5.982028073627116 0.4256242739740089 -0.12000906826649654 -0.6960678168763947
P 5.800418763900002 1.4830441326586135 2.46162483942687 0.3456740214016111 -0.772911662609327 0.5320196081118127
Ni 2.0243514987481617 8.03327815284824 1.613565544165554 -0.562899842630437 0.046182926313965623 -1.5982229218662927
Ni 6.1280066975748575 6.655074725804963 7.161374203890434 0.034172017896018564 -0.5691285971489681 -0.24562648385870603
Ni 3.2935098731767214 1.966442394033609 3.603157719600371 0.20169481547276233 0.6840543373552864 1.0947890958119726
Ni 9.316925353859281 6.098299058886923 13.143036360723757 -3.952449160622348 1.890583576556744 1.135150787458471
Ni 8.878277977139238 5.958576133661336 5.186307816330402 -0.9490849367722172 1.8317634210947422 0.43386645937814305
Ni 5.441155002722118 1.198931919054282 4.95799236958555 -1.7706819804023894 -1.6213870186875818 -1.3142034400516849
Ni 1.01823740131165 3.4224123800808233 0.42108521868263 -0.3487099800144575 0.07088351438443921 -0.6411778497067345
Ni 8.788388114260162 7.631702952307354 2.6863550408184045 0.8209295852495022 0.7021196794974295 -0.22132338833696721
Ni 3.0623816720876675 8.06889035798146 10.275754870053524 -0.3716110529823471 -1.415610319835962 0.2672216935309785
Ni 8.413609850638407 0.9010876613273565 3.156847342953762 -0.35680844075187584 -0.32019798861769366 0.2410918292131461
Ni 3.8710300653994008 8.966365977018578 3.0197800865800923 0.9604227303825396 -0.3344899797603336 -0.47659536570523725
Ni 1.5586669367090198 2.3216311727351697 11.625316067659478 0.24096687359950755 0.7965830380843378 0.6507168995454212
Ni 1.6699296668618722 7.788067699392029 12.421725653057628 -1.1598752867883444 2.7318737277404694 0.37359877283633725
Ni 4.1380292006677895 2.247782510715272 11.036690855164586 0.15576719970271238 2.0795663437794767 1.4627543245116164
Ni 5.296959761127959 8.761332448294914 6.897990807041513 -0.530202866618048 0.8927512951774949 -0.75933340970426
Ni 0.02746408824518795 5.360172811287885 1.8240832046345647 -2.2047320165462483 -0.21051986996356 1.1272148204408456
Ni 1.464535765538261 6.9283480404416595 3.9722310077552723 -1.1586673825231721 -1.403165923425022 -0.009407152246512831
Ni 0.7851225307613501 8.735302458191054 9.617723742873466 0.052818686462928394 -1.7888198276536806 -0.5128396927492522
Ni 0.48250934229512665 2.2472835332691914 4.985027706840031 -0.20395944313722295 -0.39122805588232623 -0.1267597567267688
Ni 2.505014624492791 1.0669339039198664 5.96220111240388 1.1796424421129426 1.257056815637364 -0.7687539316872114
Ni 4.433294484224326 0.17559847956645894 11.925402951796842 -2.5064286039256447 0.14401494426279068 0.692511209873388
Ni 4.29309106219881 4.052685576741891 2.1917501156173658 -0.23388811237585527 -1.16265362086443 0.6758023817591393
Ni 7.119530324875055 7.650590172673804 4.811079548974869 -0.5290340431209276 -0.06357515364848405 0.12590769313911865
Ni 7.522426891615747 0.6446095579128034 5.584201672157984 1.7470663978659784 0.9275450058179121 -1.1569478287289043
P 5.944577044201858 8.398742170809827 11.186376696730246 2.9681215985977527 -1.7679409273221423 -0.7274666429026504
P 4.574689907926588 1.4946314977953692 7.461069298329395 0.9895494725451667 -1.4302411823752594 -2.951838288056697
P 7.59151678725173 5.947192055632243 3.31064328022343 -0.6498910612100163 0.28065802154154246 0.5756617702817957
P 2.284217104602216 4.124187196700596 10.45600492825622 -0.9061835094230006 -1.0803991456388877 -1.2859984383723788
P 1.806575564503296 5.415189694879786 0.7787069744499868 2.1291886347922944 0.8055420470498384 0.7907780013667866
P 4.7075842343993335 7.396425846157372 1.560429990351837 0.5052266562886847 -0.6259373786078962 -0.5677240034919577
P 2.8632342291631363 0.17578051393104752 0.095084772512157 0.362335284107376 -0.012439254204617287 -0.07669086509483566
P 0.45846786971712716 6.649475090021172 10.892712761162706 -1.6719451912511076 1.093250290569943 -1.3976604202257605
Ni 1.8012531384117718 5.5312573930319315 12.102096409647757 2.760424028574336 -3.144509045653978 -0.8227360423306218
Ni 5.677614870225772 2.420927684505169 0.5084025756174689 0.16011699203097587 1.5592624814426952 0.32478997886375033
Ni 4.9071105305699625 5.205526764295265 0.23111156850751796 0.5917273083850905 0.9798885524166352 -0.19741932802586
Ni 7.633458613691711 0.5367666713302166 0.4571076941604043 -0.5453078405802867 0.5065615730500244 0.4188450462686464
Ni 0.7896447448745305 1.0293442696484765 0.8081235429610412 0.9914304916179634 0.43042529490707804 0.08376371278121703
Ni 8.065055623905101 2.785578554036106 1.7981567061491506 1.5803756092722268 -1.210611122580315 -1.4295256443654736
Ni 4.758027158068831 4.563536837974383 8.208210405120951 -1.9995914086167303 1.169721583454805 -0.18553877453819015
Ni 8.181243446257229 8.317381126129495 12.117568406605479 0.3473269836240018 -0.9661035828174008 -0.08264142625131574
Ni 7.026184581165719 2.051213117928823 7.5155576354413745 0.6349354683414485 -1.7623312944448486 1.0643030114079737
Ni 5.243097917920504 5.851554711800167 3.302123702347761 1.9567802269884753 1.4606136240195295 -0.1716476183783947
Ni 8.38113935535088 4.492746722892496 11.612968223933603 1.6453365875246437 -1.018916098632742 1.1956339324451926
Ni 7.771056264609918 8.685090542598445 7.463070752307562 -0.5683750068123954 -1.4530065010962332 1.2729657735581366
Ni 2.969414781624429 8.037916795032173 5.167251498051669 -0.27567033851896394 1.4908487687549872 0.7990104165789078
Ni 7.600156489327381 5.444897333567721 9.769276129700387 -0.7572209913469474 -1.6170112582173894 1.5012406535122726
Ni 6.075955957690212 6.024228629113211 11.359188294857116 -0.626286791527515 0.8506952465477091 0.493700143706324
Ni 6.68467148061599 4.45331826432907 2.0185873852136256 -0.5450862114877838 1.2984788302275767 -0.7919380831131587
Ni 1.556929755970814 4.822866505090055 5.314029409945447 0.7062594126974159 -1.3754098363576766 -3.7610778385627803
Ni 7.5706798587163355 2.8977468358503637 9.82834951512246 -1.638440888846075 -0.7643725147900643 0.7329166102736281
Ni 5.508184306312252 0.9438158392610667 9.340492797863506 0.8713502037938993 -0.045652250621476216 0.4074997964591563
Ni 3.7171324845759006 2.554053019054803 8.8620214767524 -2.54482802963945 1.813553840065251 0.8452131403872154
Ni 2.69050486991164 4.753333073946445 7.149472667769109 1.785319784920222 0.8691706796440772 2.120642030773864
Ni 3.628859678235049 5.733648189355986 10.770400452676094 1.670176786496775 -1.488848707605823 -3.273353709934233
Ni 1.4046584720086137 9.159507209943992 3.4846182350255126 -0.20644827099734767 1.6685996718176426 1.665867360488144
Ni 1.8387134081601035 4.090875832013192 2.6231438387230943 0.5273813380088531 -0.47356532062966183 1.11713378205576
P 3.862612131077563 3.434341637171375 13.013191340865948 0.2693796204142458 -0.6705622164061227 0.3848568622486598
P 8.730072435330284 2.2262340773030593 12.84907581078549 -0.8252510954429916 -0.26103227689081493 -0.40520560110834086
P 1.5427828213421273 3.1015421612819027 6.695236866020589 0.1253901300727518 -2.963617797190128 0.518995685048319
P 4.32501637842488 3.776593963567148 4.465105220444258 0.14777492552585517 0.5431234313344582 -0.48816995791671414
P 7.314334815954072 4.828521582812301 -0.026366337863811082 0.5152403317709449 1.7765127281515534 0.9746319320033859
P 9.263146673559506 8.314756874376036 0.6267886708292728 -1.4348342010625805 -1.986198275139276 -0.39590746363586654
P 2.5416155441950954 0.7727284854200975 10.442264567842859 0.3273523402742879 0.6679782577290302 -0.4458043484663096
P 8.488059133658219 1.1345915494791377 8.886703303719536 -1.5511485940863092 -1.5063887733721153 -1.3897859025736905
