# total energy = -340857.8591675636 ev
CRYSTAL
PRIMVEC
9.36593962940031 0.00000000000000 0.00000000000000

0.00000000000000 9.36593962940031 0.00000000000000

0.00000000000000 0.00000000000000 13.70799937131381

PRIMCOORD
 96 1
Ni 6.312062663108584 7.1306551579943935 9.498478039612694 -0.014525447309684664 1.00181697705861 -0.6087269282668807
Ni 2.966202465908068 9.1629704114271 0.8926658387097128 -0.8086366268147621 -0.12338184139347136 0.9070209177226316
Ni 5.971114360556803 2.910671809483336 4.6551951510774625 0.044502196177433034 0.41602634587292864 0.22223175908384954
Ni 3.3720848283338007 6.288348103812341 1.1744616759584612 0.8425078256409103 -0.8005533355859954 -2.967034021960529
Ni 5.876405978406881 3.1789216881577738 11.563273435297944 -0.12055028548194721 -2.002947469573157 0.07147152567742529
Ni 4.966448741840643 6.8026131203360665 13.45922622640138 2.0980587461567093 -0.3644237912052885 0.022116886503697395
Ni 1.2706676718648875 8.15811747391713 6.507407130638518 1.1078330734801243 0.2659112022496711 -0.11845097975075729
Ni 4.774756054196018 8.975895132049871 9.728635704972064 -0.29266584463569595 0.8595856070588034 -0.07759255097349864
Ni 8.494598223236562 8.933898258477853 4.135223467500341 -0.43532787441501797 0.4652436881378439 -0.01835202014462646
Ni 8.067118003884632 4.185975621495 9.950390249241154 -0.12506771373632652 0.05086361961908659 0.052907132411676626
Ni 5.771011059070146 5.783879860204836 7.247351020161637 -0.9763679408578864 -1.2157445871521384 2.6915904547403904
Ni 6.245002534924897 3.0876974355727027 7.08944876973225 0.1140901316789003 -0.6120472508893653 1.4736375470830234
Ni 4.050094568465821 6.6735317395221605 9.51764262540731 -1.206647767057193 -0.18459029458199175 0.2506478483326973
Ni 3.7030865029343136 0.8515109631158668 3.2666983383427866 -0.5111569057301907 0.8009724254012851 -0.46577693493349465
Ni 3.670006003947613 4.926465545302073 7.998836557165308 -0.9010029936633258 -0.8715090979692668 -1.938904118039003
Ni 7.175283860619431 4.808688853694551 1.2123572045400275 -1.2976429645898424 1.837119286090017 0.403336409110086
Ni 6.18895675181719 0.9544548160356092 3.2028057709624136 0.28765964967035623 0.14201925398900056 0.26912045321558814
Ni 1.8911611763577985 3.3135008755699795 0.0873205289220877 -1.3867769405440373 1.652643148488386 1.286707034403629
Ni 8.776381884763714 0.7954773557297574 6.408722907089997 -0.28215003270603667 -0.23730022338119774 -0.7616260623931786
Ni 7.10343773725392 8.035592250886546 2.1657133958499455 -0.40420827019207806 -0.7182744348804211 -0.9067612363033415
Ni 4.539483649171687 0.014815979996337153 5.652288407553887 -1.4175049657555137 0.48468971267759753 -1.3505968910790547
Ni 6.094566811616743 0.6522084494727437 12.29094888042053 -0.4433692566622558 -0.17529832775710455 -0.639283718007815
Ni 8.89526375725471 1.6448931581368686 8.652379653043942 0.5752038568087706 1.490324006599769 0.4712011912728594
Ni 9.223633602802204 8.047468262414048 1.015495454780238 0.4633716679261116 1.1124518031990582 -0.15121120490091378
P 8.313460949623085 8.451158994952214 8.332434470248018 0.06584235241610595 -0.3773065607052276 -1.4062036818100814
P 9.387855989334712 1.8623796436890179 4.506559561377816 -0.1875828015514124 0.5684788793801113 -0.3824649649777155
P 7.475949256562547 4.897899429246173 3.773771249778208 0.027922180331564815 0.03975234019727347 -1.12728295467462
P 4.530314394214727 4.727720305070532 5.5494915998872845 0.6131345704162731 -1.1269677374270461 -0.3775256186945692
P 6.180658529251444 1.4060991597889252 10.201027478327687 -0.23942781124716184 0.23022223348849385 -0.5789085593538675
P 1.0846975733711326 5.711190802267184 10.341493158835345 -0.15343495202510993 0.13501145521259972 0.5077298823265126
P 2.603365962299685 1.4141632338624104 5.300485917494834 1.7849024948771453 -4.481151017214837 1.996851383977748
P 8.467324606857947 3.819430205769196 7.729694104438371 0.5864094957166031 -1.715518190746052 0.6290494418743166
Ni 0.5427964786027702 6.902454037436359 8.310283086286113 2.003289426293608 -0.30217429834676346 1.9754613483377461
Ni 1.3298042150704457 2.6096505078319825 2.081381538283084 -0.426132323958679 -0.6438823931220911 2.5961400496498643
Ni 9.536212474031585 4.298151481167629 4.169301439064077 -0.9723436501898415 -0.5036171457097197 0.44828906256137635
Ni 4.004622931268642 2.646458650815487 6.605363620673091 -0.711188217457601 1.1929748975557906 -2.547850361405541
Ni 3.763927647163536 1.5905894398115872 10.951403151478036 -0.07023842460127258 0.10716949329966705 0.3962720460641369
Ni 4.373594125374276 3.893186980831561 3.1383231493815407 -0.5765130625384974 -1.3566788356070765 -0.7947935502840828
Ni 2.08930699644915 8.511597403774745 10.545714664003897 4.131802889395749 -2.3633199735272075 -0.33610771786941473
Ni 8.294354432654549 6.655492939678335 10.443055535650744 -0.20620401619702552 -1.1239646889346644 0.39249329574799496
Ni 5.722785835603973 5.354432793517908 11.538516446914151 0.17409068060224855 1.9648920574623323 -0.14364290563535262
Ni 2.1099401615872315 3.074060627383394 4.531288451942535 0.029310833148975323 2.7519525007682155 -2.1029453848250492
Ni 4.372554506068636 2.186347497581996 8.70442898968573 1.2415260669916166 -0.7363580318550093 1.1503156681243674
Ni 0.28033381406306757 1.5931744391661538 -0.07352168997613441 -1.441503899773272 0.5713528584937967 1.389233115394014
Ni 8.186149731410675 9.080990341316513 10.226510327037486 -0.7798281872235021 1.1896718013244865 0.8844954829266057
Ni 1.8155405792970323 8.926536629881152 4.366546255757206 0.8312690195022974 1.165069429394774 -1.0553332038091954
Ni 3.732776531753069 6.7268520341799425 5.714919382857956 0.1285441023207012 1.0365446103477827 0.9863312227181852
Ni 1.0306467354174935 0.8615137867052771 10.783973867195515 -1.9418143497072622 3.4750197290515894 -0.1811581289719912
Ni 8.212533583518699 2.4617435882402536 11.620764382899887 0.662347284695498 -2.4497496631763616 -1.3127890762026615
Ni 1.9475628651737429 5.718299550492243 4.1615426946245 -0.5887952223399602 -1.0421830395804828 1.318137999219401
Ni 1.3521794449909523 2.5509073340934236 6.8588387294858295 -0.5482304135437204 -0.9056132387418274 1.4496219008947164
Ni 4.038508901068723 4.05313849886522 10.122124119405413 -0.4870271025615225 0.20908853683367218 1.2083336394000481
Ni 5.315966879209193 9.482545639605254 1.0898778746139255 -0.6167258873119572 0.818999458106325 0.08843232190147995
Ni 3.632748295858966 2.2644968983591864 0.8043375346769317 0.13603861092553346 -2.1244786309111348 0.6179733865658131
Ni 5.044813559230713 4.395538522069022 13.859061938162952 -1.0604381291359284 0.11407316239803579 -1.1946088336147878
Ni 7.328866539663578 2.5500363017022107 0.17888008214807719 -1.0271585411471922 -0.6092537473046281 0.31085202862641953
P 2.275567439073309 7.840761973445618 13.089919731654827 -2.1019490823500506 -1.9152715662217272 0.06686230904018808
P 7.219228849647065 -0.09167288109624402 0.26945527511259937 0.9582794587872915 -0.4673321952357565 1.458360566319295
P 4.022895879604728 8.031508701181506 7.69017358532051 -0.3133282580810539 -0.6051060436848418 0.6279428390736992
P 1.0565248267822318 0.44755236470255416 1.8597094142832682 1.4120609119218066 -0.9612771079630349 -0.19033028238956254
P 1.8443970394833364 4.4848802207763105 6.221553968315864 0.09882600643097819 1.9787737005404307 0.030510766994347457
P 9.842010404925071 7.318076977140169 4.638389845490872 -0.7004824010043226 -0.647547243568188 -1.350449823978229
P 3.873321822748097 8.15034374397405 3.771714489422183 -0.8063144064394889 1.0655628519570037 0.20402963425352605
P 5.565915711728474 6.286446818055178 1.9120050751389153 1.1022537796201342 0.31430810549582 -1.1545492465897407
Ni 8.233925389771708 7.69534639381155 6.343335535735027 -1.1452405675943051 1.4941732051425298 -0.17570121962247803
Ni 7.76614353193173 6.828865849288423 13.067932251637506 -0.1721422986266261 -0.40153997933129554 -0.5138750759923021
Ni 0.5123993213373854 7.51006937485489 11.629071971405326 1.1119046724463366 0.08514465228914368 2.4957958068021466
Ni 8.380315027133582 0.8528502924916025 2.0522244314327156 -0.8263070475113318 0.4382473620546581 -0.3452595595720118
Ni 3.999696446991461 6.132901602769793 3.3554855734204003 1.8092721819707616 -0.3030803551008006 0.8882768043459088
Ni 8.586065990253585 0.012047408223837461 12.449660348039172 0.4811482751832424 -0.5629864888069723 -0.21522473163839712
Ni 2.0604692681422265 7.229091184141119 2.47913239186956 -2.7334405580069574 2.8887680990690896 1.2475401343961805
Ni 0.9388698923906854 6.127057256402947 0.19665944546247557 0.8561035620474741 -0.10026813819414344 -0.22842966036444529
Ni 1.2956091692605798 3.8510121544054234 11.794910919128407 -2.2914257584900666 0.1452210487557499 -3.1466083513851677
Ni 2.813153645426277 5.621352708756301 12.0893863655301 0.6846675454592531 0.7889203793327575 -0.1807387820463855
Ni 6.356560242577954 6.089827646133371 5.267984233581002 0.6293016670944389 -0.36099471091908153 -2.4344397722921687
Ni 6.000626436521439 8.07482617224988 6.772122303673777 0.10314880217604816 -0.20318476975472752 0.6634515735032702
Ni 5.972968816615514 7.880576583069759 4.170179027613073 -0.25145414628407664 1.8004329864125765 -0.4715637168186007
Ni 1.1853626931641865 -0.26280077496252824 8.587184283452627 -0.8212944247880889 1.7066550839284673 0.38718422483025583
Ni 3.079155698575004 0.5987729537567678 7.451312152206794 -1.0498333570368887 -0.10611534100353982 0.23564494716596193
Ni 8.809911948855557 6.394651519299051 2.783025290630008 0.3555894807431102 -0.15412349345170231 0.10142462039608985
Ni 7.630431065816978 4.310898525086343 5.825310094425582 0.9539242671423895 -0.29998860354935436 0.1125605824082513
Ni 9.265358864123199 3.997270668611632 0.7253573750491978 -0.1895638365371832 0.9578701391640149 -0.8485344914509645
Ni 6.779516713059395 0.71593149334472 7.90522492655314 -0.5058918006765093 0.1662128205160686 1.4396714745502237
Ni 2.2056694311634133 1.1934080353582908 12.77948847039647 1.9297620465284184 -0.8948241185461234 -0.7230343181629096
Ni 0.10562719464105894 5.961167732605535 6.20766708953682 1.771087443370924 -3.3200143472155657 -0.39340012383298056
Ni 8.017431693826746 5.884844690067985 8.258548445217924 -1.8783178718155134 -0.929713731334457 -1.287548556468318
Ni 8.202896031577216 3.2317830517707242 2.53273085493615 -0.8362379334717985 -1.8059009515056832 1.6210784863082273
Ni 4.03457520639873 8.540500693659503 12.38217500619354 0.9804120290202727 1.764825264511296 -1.920381890865099
P 2.3663889562516904 4.587193745954885 1.7829311870767612 -1.0390128693826173 -0.22392457340524016 1.337225354868155
P 5.97431751193094 4.9605388338959635 9.319232685816688 -0.386540934819302 -0.4584361782977072 0.27166738800715795
P 6.0551549373992914 7.554276610193856 11.659407313468753 0.27639770360329174 0.7863911851530004 -0.25971355807939145
P 2.229355892640584 2.3668385213568324 9.240822911916103 -0.10207510949589517 -0.7911572390830761 0.1657183973781533
P 6.419667944212267 0.9871887752537635 5.802431913543698 1.011434445543716 1.0009384311083989 -0.7704660292823118
P 8.21273963419189 4.265426887889165 12.529919895028623 -0.2812617165638124 1.9540995948325182 0.8721798987840462
P 3.3182587729327326 3.293195518321064 12.454951167370313 3.65038336282899 0.10058284122108485 -2.950538081188035
P 5.464248436388541 2.742562557979287 1.3828903612359675 2.964688661656804 -0.9059937620096977 2.4115911498287694
