# total energy = -340856.4818381988 ev
CRYSTAL
PRIMVEC
9.37269923835614 0.00000000000000 0.00000000000000

0.00000000000000 9.37269923835614 0.00000000000000

0.00000000000000 0.00000000000000 13.71789274228849

PRIMCOORD
 96 1
Ni 8.180323327834264 3.5031869912853084 6.97187213880884 1.3522282560348904 1.1540301408614773 0.7364593333195639
Ni 0.258067905282864 5.148273817294715 13.109380953399487 -1.0500220760089272 -0.04295696317750021 1.8206829949108643
Ni 8.52386087894681 2.654835850482378 8.99589251521534 -0.405539844519308 -0.9326147070313356 0.26198795593586494
Ni 6.074099691339025 0.5523856627656265 5.5265409687644595 -0.6745795650956318 0.23552719064117503 -0.5091069651796973
Ni 8.64252862605171 2.467072563399803 2.0149391679577247 -1.260823738878964 0.6962110273224784 -0.9770796222129302
Ni 6.742101350284874 5.3447630875188 5.1719333223904345 0.3352695382388355 -0.13107072539729686 -0.7827805849836068
Ni 6.304893041367544 3.093215746824723 6.177002558052926 -1.9608171160620103 -0.8205017536834643 -1.812818504561123
Ni 4.3384350983268725 2.755976649709057 4.897823104814328 3.05470452599532 -0.9335084224901987 1.9027793472919876
Ni 2.485396190727035 3.8502111865746973 5.089749744970435 -1.4782534485884802 0.006611848889562806 -2.066934771058395
Ni 0.621276877896378 1.6592114840053855 10.379369492838578 2.0037823067696263 -0.34131214488848965 1.4195183966411165
Ni 5.053075309487711 4.613861242898755 1.2636938792897232 0.3674468943023284 0.8122683100300786 0.2807809202726519
Ni 6.723140379398434 6.520896271742676 9.624322637293886 -0.0017946300065775544 -0.29295252263817934 0.934318834206636
Ni 4.370227294692074 5.661185419266802 5.682596413776433 0.8746525286942549 -1.917458289460401 -1.8273490940771304
Ni 3.951792502673182 7.9268292998586585 2.6183479317177167 -1.5351609604088012 -0.9629899768890834 -0.6094059566117762
Ni 7.291622716113824 5.993494476498006 0.33839287641182 0.5464658654441299 0.25446259409309724 -0.0656351215013063
Ni 2.1724886212540775 3.702169399549825 7.246915877245199 -0.5452602751718029 -0.6675954204683148 1.6242656257869577
Ni 2.5192035174632625 1.1986838989805608 12.313482250249441 -0.7510261753901453 0.28621160436992 1.964035880109624
Ni 4.764096241583257 7.584960089239334 7.0718891513774444 -0.2725708736580338 -0.30182719941998987 -0.3384204251629914
Ni 0.6894979450200208 4.8408117861732265 1.8723822846218017 0.3418060538057726 -1.3984152961139142 -1.3039000012431479
Ni 1.1289510154436788 6.670578281162569 3.0380742817139454 0.6101454058809621 0.5390184080271491 -0.15090935738977881
Ni 4.748856232358664 7.770895699938886 9.595090125134858 -2.123299265891053 -1.9766916212004215 1.114036374077359
Ni 5.103237996677146 6.236762889428082 12.61069429730696 -1.0291246637346276 1.9553604638228128 1.1710266754194736
Ni 7.191812840201961 9.13426730007893 10.540074734022951 -1.0279362998534811 -0.2767167775056073 0.5907353767854665
Ni 1.3778899115108274 8.142616958147586 7.662623213738656 -0.7537152921865342 -1.8841676457280712 1.7324895284930681
P 0.13765589881960105 6.806632385654689 1.0111239994749686 0.5551477094888438 -0.8604374135361375 -0.6526202872157212
P 7.097214185156565 7.156168464383311 6.530169620529152 -2.066977708481189 1.546557632281517 -1.2443977321124569
P 6.862128138802792 7.031539680459934 11.804658082485744 0.562009983826316 3.2248835302479884 0.5544493978702387
P 2.387235909909594 1.7895201237652336 4.552063286674015 0.09639065751660819 -1.1921207770856113 0.18622345931004056
P 1.045777680967027 8.719019225856078 12.063940689610863 1.0766257946393845 0.8712460741158672 -1.1948628586071228
P 3.4825201891080466 6.057275695915812 1.0394361125529066 -0.44748019350683577 1.0543890947283712 -0.14651405653556057
P 6.594509452831207 3.677987835097519 9.234090297769951 0.8324537838390179 0.7847721614923387 -2.2679497868553136
P 4.729126700121414 2.0698575628227793 11.975076252058459 -0.11641158072322531 -1.1343360048666595 0.08795178272063563
Ni 8.095678479551793 7.806296385573133 2.238005664600786 0.2868898613838672 0.3283450432048603 -2.1111510605642936
Ni 3.486503586353097 3.2773799173376523 3.0378690195970828 -0.5379819963428347 1.0826375480511032 -3.6296170768159173
Ni 2.0478973281283017 9.57946114888516 3.0325734444360157 0.5950252624100721 -0.17213175710366485 0.2647410932009699
Ni 3.313502300825709 2.9965457252119 10.545987032804545 -0.3862943660261347 0.4489302956898011 -0.1963950005264037
Ni 5.291188737747723 7.189675864738734 4.379574687803813 0.15960431406061543 0.935380185591615 1.0293406364001756
Ni 8.691557216613731 8.277686929202696 13.255064569255289 -1.318423905890936 -0.33248117686042095 0.2866949717642417
Ni 6.405940113600222 1.9377212466799083 2.086559713153791 -1.2188499655503395 -0.5673604495049519 1.6888980170553622
Ni 4.597796436126952 3.762754528472191 7.805001078516037 0.11710089348076608 0.05413766238466805 2.103669150364951
Ni 8.541612771610634 5.044761725119806 9.68381772127602 0.7881086820647395 -1.5330585693538177 -0.30691104170080047
Ni 4.233395256149744 1.0152133082232404 3.2679312990723925 0.9656361562626788 -0.7070389711759177 1.1966839709762616
Ni 0.5582623452895009 2.071169740738796 5.849570116319605 -0.8883377394908314 0.1944453329992006 0.23737478537287507
Ni 5.02533211926336 4.80077161433592 10.150019538517675 1.2242765358825496 -0.8131777092182254 -1.0949109661018177
Ni 4.464272960472864 2.657263379627009 0.3781762362855632 -0.5131541386658774 -0.8475834403916048 -0.4487932558913045
Ni 6.221288562718486 5.229347667105741 7.459474640590788 1.2514068164404384 1.1405794146732098 1.0245375585845775
Ni 6.604041488121127 8.420723694747904 8.335677694931109 1.6703318240174008 -0.31226125026912027 -1.4455019651890717
Ni 2.105792492322834 5.7288656816350585 5.982702750408708 -2.921092779343724 2.399335729500184 0.7388424888397598
Ni 0.48341852876973423 0.4271757714794429 0.9719770458904935 0.7945811771629606 0.16872581674590942 0.06574542182692548
Ni 6.702548558816374 2.463801491309162 10.923557792708861 0.046339763606804064 -0.9210385721579621 1.2485999431192625
Ni 2.228106219494381 1.7329652555849184 8.614274623710052 3.4554096681301454 0.3161510722418297 -0.13322659539803505
Ni 1.051232592017896 2.7472131757699465 3.1705480150352208 1.1062155924813593 0.6108550303534769 1.5047741205868277
Ni 5.998611970370471 8.221338260409183 0.27456666803689267 0.5547641008971801 -3.3242736367125523 1.3086256888535914
Ni 1.457220439233431 5.664672063443646 8.458150757992458 -0.25879464580954786 0.3757387019974755 0.7107824973787501
Ni 0.009706367498762766 8.920579126455626 9.703077681273324 0.4260809018954533 0.7977909423495099 -0.6033880325524704
Ni 6.528094504881968 0.4834532077575147 12.744937596274976 -1.9620515026897434 1.8270202499828019 -1.7190691413221038
P 2.8803804888468307 1.6620795300218218 1.5013274253404485 0.5442418612096176 -1.1425385952821097 0.33418144738097927
P 3.580483643238086 5.5542429191114495 7.521068271968606 -1.1882286411200567 1.5242653965422202 2.4708532779241965
P 7.892675183244625 1.0318779677566512 0.45768671983664877 -0.21780509077106358 0.8041719061751893 1.5354838909658588
P 6.520493245668471 4.201284388004938 2.99656353334076 0.5544884786382902 -2.437678076723808 0.49485508324637356
P 9.006498661856513 3.4603537550267665 11.82793799325576 -0.5647080994837694 0.3055337017372996 0.03947877482091266
P 5.183786975321764 0.33735531858822687 9.38877264231981 0.8898474912671384 2.210602359284096 -0.02004149203190742
P 0.6962603476372063 8.091751318503144 4.431071110117884 -2.006241052722764 1.617954081746633 0.7898644884135816
P 3.8300786282632426 9.278344435257551 5.928462001710283 1.348944443077296 -0.9327748867582838 0.3448841785104641
Ni 8.258079242057647 0.059124862355827805 6.663933037287885 1.0169350636469714 -0.20088183265316373 -0.7471862328187648
Ni 4.761940520721229 0.4842723816850851 1.091240896677242 -0.88898668592874 -0.5884573793845672 -0.6594262543939611
Ni 1.3140993193936206 2.733013536178767 0.806383004699019 -0.5357844744708837 0.9882829471279173 -1.8777254896471531
Ni 7.142118787982533 5.04588644904782 11.803355277269128 1.7210339783579585 -2.4720930638685688 -0.48597192182413085
Ni 8.680656767211392 1.3328540908932578 12.169911240838424 0.3696588143519827 -0.11724847480222388 0.4570017598440258
Ni 1.7035724702661468 0.07670336008075014 5.997572538006997 -0.059411766299413804 1.105535021474567 -2.0063305271127767
Ni 7.50481413666892 8.200277804857116 4.283233647939935 0.14526887127454982 0.11379394059472016 2.3196904097627145
Ni 6.634877669147517 1.2918110402201388 7.800817105503825 -1.2875249023192343 1.556828418079906 1.0586098176779382
Ni 2.086128568981385 7.7024749943180195 10.157235579785828 0.5308795809700986 -0.9839077008783571 0.8480848055080555
Ni 4.061396849458168 8.26538057489034 12.43832941806884 -0.6268503773404688 1.2276598505324856 -0.24939932063757692
Ni 6.922366477847353 3.1890703435897354 14.082651431807196 0.5768673605541227 1.2595381872983211 -1.952059167363722
Ni 9.04803846559784 7.002296858331564 11.189356300456941 0.04060568933650426 -0.3980432790319467 0.4099261465124618
Ni 2.765452448802577 3.9082750593584317 12.678762589430379 -0.6294183951779612 0.23171604442520097 1.1539473513396834
Ni 3.2227277071355607 0.5355335492442134 10.358175007685091 1.179563766356207 -1.1834129648989684 -1.0597904682496004
Ni 9.227928685184315 0.4887365984093615 3.2410991352297334 -2.1952952966133803 0.1461294195026322 1.8631100537268235
Ni 2.247545198050227 8.166826640698092 1.2162380276870428 -0.689278047648071 -1.0300057807880003 -1.8591965776050303
Ni 1.2692696981628535 4.979471501098581 11.174142534790668 1.4660947017387589 -0.15608884470818923 -2.4192874900317625
Ni 2.723847036165451 7.596713454287083 4.833417663616473 1.3991909979376742 0.25624616835608127 -0.3089733235464679
Ni 6.4048997439668085 6.132547844798164 2.5660688890037355 -0.2203880210068914 2.2781593803984634 0.002541278364614978
Ni 2.0886873159176176 6.863805851995413 12.849481622653839 0.2771183838194002 -0.6041966444966949 -0.3155180666435211
Ni 8.855888755196009 6.125462084051675 6.703358360044543 1.4857171039553767 -0.8281847241500188 0.5647968025428337
Ni 8.588879294685432 5.182934059676353 3.658123335988908 0.030687401781527793 -0.5729256022975552 0.41405945195454497
Ni 3.4274649528317505 5.710757626394029 3.2779863309888397 0.038664249339417284 -0.5620125549294772 -0.08731492046758511
Ni 5.085739166897124 4.157438900211183 12.384582610628799 0.2466006748465172 -2.880664753235665 0.41305877860417245
P 7.871389782906957 1.836364875367026 4.958195473460311 -0.7218778359609632 -1.2969901614971922 0.3454310521528696
P 1.2657174450902087 3.4280835509921586 9.43795119607223 -0.05626576447126439 3.0068925487183638 -0.6060509240966143
P 8.75477607406753 7.07306073880246 8.982695754459971 0.9785826891210179 -0.6333622103170576 -1.5317190246067878
P 0.6079817037973098 0.9287876470547473 7.862698478753226 -2.8888107793815667 -1.8591353853497918 -0.7943891157568125
P 5.791306605038648 8.673786578551105 2.8341580844852063 2.9728997367126864 1.0914232646635331 -0.40111908974379307
P 0.21409307423738783 4.155451887938358 5.600000437582828 0.9970010437272057 2.765135318007076 -1.5825471630022487
P 3.57926519231607 6.007872197377788 10.806188164470877 -2.754243096574605 2.190465222214589 1.51454791214414
P 4.284617058371391 1.9970785519808592 6.957413812714217 0.175099324372421 -2.3032754587398006 -0.5617639292537809
