# total energy = -340870.8593294693 ev
CRYSTAL
PRIMVEC
9.26309056938870 0.00000000000000 0.00000000000000

0.00000000000000 9.26309056938870 0.00000000000000

0.00000000000000 0.00000000000000 13.55746937584210

PRIMCOORD
 96 1
Ni 0.49883687030231855 0.05257081692314224 6.5785856626828405 0.16205149004952737 0.4839677469099084 0.627124714047778
Ni 3.3620664484177483 4.3325696922734975 7.567766075703592 0.723353134954909 -1.1958424489115729 -0.14914326662829153
Ni 3.7996177863525795 2.0160745722788604 0.8602428262567599 -0.236688815049444 0.8728255027878452 0.07805354977031718
Ni 3.8944996212765033 7.803838713367039 12.5228441581534 -0.842877036054871 1.5944878803038927 -0.7427572505131337
Ni 5.96962639482843 4.517396134940398 11.204868498916534 0.3900828865342895 0.6367133861774776 -1.4224962483225179
Ni 5.534770616198769 -0.275430582446055 11.28748785477453 0.6707283096703417 0.9910605098730546 -0.04984083478152706
Ni 1.332930918680845 4.338868593742625 5.472783867888322 -1.2175474446888321 -0.511653642860951 0.954255682339879
Ni 4.988470597017539 1.7128195189019761 7.894730935257503 -2.1581600823239797 0.0997606024301056 -0.1608888371999939
Ni 4.637399471017663 -0.13682881347215184 0.9170098231291882 -0.2100275037081738 -0.14205216410946503 -0.4221548273681697
Ni 5.478367658778895 5.429023176240601 4.197785242851694 0.5675651093165902 1.1785831476104929 -0.29295689351355353
Ni 4.927843670377191 6.726059619637818 10.752726867299318 1.4304335008917237 -1.1250615215432689 -0.30719643415170317
Ni 0.10099547458513557 1.3422681137997863 12.385087183023593 -0.22356101941823434 0.08253266858759335 -0.09596668260531215
Ni 7.545259544968977 1.7973915342154025 10.116597102696021 1.2325989397053159 -0.21562839483471896 -0.6425562181114998
Ni 8.06540059687254 4.963775198022402 7.574856045092519 -0.22599019768501724 -1.3214308110380597 0.6336884833082248
Ni 3.4007120615489215 8.550295589820177 2.964300083732771 -1.4000134938389694 0.1202890614007606 0.24415478440918598
Ni 7.529716079284866 6.438486978300981 1.1566691293938787 -0.6350452544464353 -3.3120408420917857 -0.8378279036667378
Ni 8.479544105377247 8.919976264425165 9.071912252023784 1.4814557575758613 0.035890543249022064 -0.5799650256428399
Ni 7.282447144260047 2.296746211270845 7.824828876203865 0.8004466348048022 0.24192306686518983 -1.0246892536710932
Ni 9.164308799794522 7.161517499143204 7.474774837529446 -0.3450746972547154 0.15634518369336947 0.19565966502227594
Ni 5.136077942474215 5.831485927756236 13.379635556928696 -0.9965012212726514 -1.867153627668578 0.3150732657966187
Ni 2.8717340214077907 6.908922287140814 0.7625264856717286 -1.7759242026379352 -0.2607391711304283 2.0017809600688814
Ni 8.119385887699115 8.654551672224626 5.098002009402381 -2.360614401670586 0.7975544008586716 0.10596364591702397
Ni 2.075775189879631 1.9987062777867821 4.50044282689805 -0.4366481358883383 1.0399765188474672 -0.7514421798816414
Ni 1.9359766296265932 8.864147618609827 8.812001977535852 0.26499923195836295 1.4714659933530014 -0.8545292755818187
P 7.429183759219519 1.822253668837663 3.476976011086377 -0.6465717670287962 1.2538743041443243 -0.4039205637483302
P 1.3178135551549401 8.256859412262815 1.7301637293590255 -0.011646325989676716 -0.8631180456920943 0.5558244238408944
P 7.28092799743514 8.990227541986721 7.165813720468765 1.1279265017958897 0.39542743867565444 -1.6977742364990696
P 6.510303718139424 4.222338916563775 0.8176261262729175 -0.23808929494139638 0.052481871948799934 -1.0796609819212826
P 1.4179290361524768 2.635052798705342 0.3931070302159023 0.2796712321482409 0.09969246819633154 -0.15568955238724155
P 0.6537277837371921 0.945242796346471 10.282879764699617 0.24117359029367497 0.3962270517588144 -0.5461848438686012
P 7.6091007639766595 4.071730329818868 9.89193659240017 0.5903155156392285 -0.5947267573330467 -1.0461183700791468
P 6.376535429734037 7.355310613313214 3.613566763135358 1.984476921572795 0.14362747901638492 -2.4992122886828634
Ni 5.530213175724048 7.960338625603659 5.311192961170184 -1.0818837006042141 1.4407559658636542 1.531179350053234
Ni 7.340656404307098 4.530105094963401 2.868109374135924 0.2607630823898283 -0.3544605093449895 -1.1917826770199023
Ni 4.100436646955375 8.545154574650521 7.278489952042972 0.3560301678249546 0.339325453475764 -0.1991118852369345
Ni 4.132922304973357 1.2331118565759727 5.33707403573598 1.1907326384888333 0.01771155834715014 0.05892171403687271
Ni 7.007351885686319 6.475326288804977 12.255830019640948 1.8318238420190323 -0.7778872614470475 -2.2767092782154985
Ni 8.591794234793248 7.531429751008084 2.9304601618989254 1.7001609915636913 -0.45198708023825385 0.9490563975271269
Ni 0.8040936775137297 0.0825035672280498 4.183183833460833 1.0516968926081889 -0.9357895052148916 -0.7607922536379735
Ni 9.256106025616653 7.6616502757918905 13.60356428308328 0.37189490277135306 1.1846769192130566 -0.04518585250801895
Ni 1.3368399428278621 5.797823857257989 3.386736837068816 1.4786671390871309 -0.1115452537698595 -1.1721618174651813
Ni 5.753916808782016 4.333773894024948 8.625478536708444 -0.3316712793646159 -0.22649747633873898 -0.2935209935471396
Ni 6.618459561600494 1.5873509594912028 5.28662631913155 -0.17350112664736572 -2.941080278209245 3.1125764586114393
Ni 4.865438230380854 3.4615242499971854 12.708731224670617 0.8248140079055731 -0.888724947626921 1.9044099409168749
Ni 2.737956469912007 2.87686577348705 12.000299334292135 -1.1647783805169167 -1.2733992615511294 -1.8028585651349336
Ni 2.248022355789068 0.6071761229532247 13.144142788724025 -0.019217196358399163 -0.7965681256860023 1.2588285628258062
Ni 1.1257989543409186 5.18454243142491 8.181390235881315 -0.7545493580520554 -2.0677176719710064 -0.4272733795416577
Ni 7.418262575642902 6.49136996137046 5.744109974980009 0.7255714827624665 -1.6627730378335366 -1.8613383065383813
Ni 2.1522142118255667 1.842428679719661 6.759835626147932 -0.26698335226792724 0.8367223293073848 1.3407667923625102
Ni 8.68455482201654 0.9017183135038427 2.195211624824675 -1.7721035433402643 -3.1846606781721993 -2.525053932336316
Ni 9.09831854381502 3.8546961218458575 11.537704305163288 -1.420737356649882 -1.1322966058391275 1.422155062933015
Ni 6.460866604697173 6.938564176407294 7.689105149415928 -0.7571106910213284 0.3636722577512447 1.5934249862570171
Ni 8.499450486637766 3.2641926352959887 0.4382766379128203 0.2781825634178564 0.16515584000646397 0.19693416085932539
Ni 2.491197004858955 6.594449631294646 7.087478543918812 0.16120071201345787 1.162175652786747 -0.9490437991216366
Ni 5.373704000397032 2.9176696866804392 3.880608690918999 -1.110969819336893 0.20883476895165323 -0.9946567118647451
Ni 8.875643113790984 6.030447846367089 10.543548686290967 -0.6480956598724902 0.8097949087889215 -0.1530963377387686
P 3.6106692684595596 1.5708997109483063 3.070631098385873 1.1417089002919627 -0.14278878516517343 -0.2627680286349991
P 3.504838460687829 5.597315002551043 2.9537790656612497 -1.4474732299828297 -0.2440347138915539 0.6946984473326939
P 9.11487168635227 2.7616699813251913 6.708303201658157 1.4311580377625739 0.6696710720504209 0.4018325708710499
P 2.5288699934985726 6.223444334763062 12.29686828902135 -0.6089894378996479 -0.55795124037591 -1.261683772886414
P 4.141648136126178 8.247911266940495 9.394499375056652 -0.40964152539250737 0.6679885421416754 1.0363967719160085
P 7.47130303124911 0.44775926355097523 13.352289987771327 0.9940501886289977 0.4095613069738753 -0.028977361068956545
P 3.7730882954590794 3.954959812289727 9.972996043835517 0.03966877934453168 0.52311253543017 -0.08685469300171493
P 7.021135364195232 7.177922432234121 9.888831604499504 -0.3289304833946851 0.3397550848140149 0.358604356310034
Ni 3.28953645061883 6.0257329333556395 9.239794649738734 -0.10966886268275305 0.1470205638583339 0.46702520551829885
Ni 0.15710849727562218 2.6575157929150968 3.1206314077241877 0.3897355304971998 3.176818556419961 1.4019608473733274
Ni 5.119080171597967 2.2020589012452323 10.436688749176266 -0.26805395962428674 0.03785203785076707 -0.4260094252275696
Ni 5.620481991630876 0.31199385285625836 3.074224251150394 -0.31538256950692134 0.30931142361217695 1.9720911463139328
Ni 0.7343472383787414 5.384764130329588 1.2197794905693338 -0.06323268270740076 -0.42083482300516556 -0.7399411212205772
Ni 4.864280344081382 6.900252034530368 1.975797728928991 1.8028768199673788 0.30496343105612644 0.40998990987086165
Ni 1.597392149480223 1.0312783799424299 2.007033796052584 2.456750777084543 1.151627187846939 -0.3109427885680129
Ni 4.615010581531076 4.194466277562888 1.8906838228274117 1.2658337904990458 -0.4376657785195753 -0.6523814317320378
Ni 1.0310004872305565 8.09834940941031 11.346069491055493 1.387006025835708 -0.6468705292161375 -0.2763329118036273
Ni 3.7067460420445384 4.403432333801177 5.153437900184937 -0.2637429909537587 -1.2197609074003832 0.4951114222315537
Ni 0.27937758526369477 3.0221388201639905 9.244824507823639 -0.15084662247264344 -0.5732305351324838 -0.9393096025530082
Ni 6.231132699791555 0.1476897869611981 8.947048572415856 -1.4365118458753194 -1.2168488759599105 0.5774427734416183
Ni 8.076923881324884 8.469586283201787 11.356319100578418 -1.098132815473225 1.1196511491609749 0.9672901469263342
Ni 0.5738160292018802 6.9191024234857705 5.216914153431025 0.3427697032706226 0.9928101455743097 1.0836397640633724
Ni 3.0766613702335226 6.7265135110672105 4.816277157032397 0.5838101104205429 1.2570295619438543 -0.012086241740572733
Ni 1.56161809437174 4.685261859092633 10.450815888338862 2.7699893036652683 0.5001142747627838 0.4819131783737248
Ni 2.8430925459040544 0.380625942216635 10.93400369372656 1.316824679724616 0.30390002278861855 -0.8858046886563326
Ni 2.9088512246236617 4.493302836820987 -0.028859158128037226 -0.8533306272880271 0.8177023365614563 1.4802684221359796
Ni 2.394953495646852 3.4148104851312913 2.3748210949806747 -0.5029149774363726 0.747544387489132 0.1474548231822751
Ni 7.040263645862508 8.505045393236815 1.5890572207421048 -1.0974766699464646 1.6132350790044088 -0.629216306469484
Ni 7.053713653117173 2.1950374787252347 12.176342514645762 -1.1586714962882303 0.6638935461366954 2.0320271605479325
Ni 6.33206333274392 1.9498434759490686 1.4975304771595304 0.49166742954701126 0.5591917976512305 -0.919178636131088
Ni 2.8353115499716033 2.1685265140125267 9.121573532253613 -0.48016045734867635 0.20300736363659874 0.35505597683714335
Ni 7.258020374886388 3.805722162923395 5.04716061145613 1.2431880280750718 0.5758592310045825 2.009941641502803
P 5.917678983888923 7.810563716994372 -0.27347329144542776 -0.539340053032626 1.3845529363095253 1.4400674244370617
P 4.4283407838754165 1.3242977184319826 12.31466916983491 -0.7619011704314362 -0.5046903241692405 1.115330410298434
P 5.537725542035021 3.1404192214276425 6.500820166192231 -0.5024136123199219 1.3836944449639719 -0.910321185740458
P 4.687744367318702 6.257171246894079 6.450155693272539 -0.8618895726016317 -0.8244825927080833 0.14032541122634543
P 2.603511975907728 9.097633075125733 5.77931898157435 -1.5560318903205395 -0.7556374489099116 -0.21554406265102877
P 8.877217839158265 5.59512891321764 12.97304702495078 0.07776275800277575 -0.9091279367633053 -0.5619570191011934
P 8.822584132003984 5.2783868002245065 4.335637627812579 -0.9165802792762925 -0.7244628230793201 0.3039959249365345
P 1.2467285994577622 6.99338314536949 9.242601366128653 -0.7197181093054831 -1.140178322580049 1.0825712135895422
