# total energy = -340868.9738085988 ev
CRYSTAL
PRIMVEC
9.25189595696560 0.00000000000000 0.00000000000000

0.00000000000000 9.25189595696560 0.00000000000000

0.00000000000000 0.00000000000000 13.54108492899386

PRIMCOORD
 96 1
Ni 7.090763850388775 4.615844755914265 7.706149988918795 0.7447801944804335 0.04764639823336955 0.32723432663918484
Ni 3.00354465633897 4.7249061018592435 6.505150312066674 -0.5877747514952458 -0.7018391721425332 -0.01920511217354112
Ni 0.6868403790290234 5.236591442785014 4.666054793617301 -0.5768416495225097 -0.34303478400655113 -0.12320752059913619
Ni 0.6524612599760079 7.114874290457711 12.951085716392287 -1.7881981349092817 -1.6089901876851256 1.7365459579506288
Ni 2.6409628657397413 8.231448569106819 10.378401840563805 -0.034336054277708604 0.5117983959689315 -2.4370571553103573
Ni 6.267687457505918 5.440466215370995 0.8509477285343038 -0.7302421487652585 0.8987779609875489 1.674993234048812
Ni 4.305628694704973 2.672308288208488 11.86303225646939 0.08528991961775634 0.2955657918913103 0.853770285928607
Ni 4.979360987974339 8.158645402221763 8.58729497967144 -0.6337365629373408 -1.322959074757128 0.6928529094835228
Ni 3.4365888842233154 4.9332310362538045 12.080908847935007 0.3047798542904106 1.1254291892953328 -0.056496906645463994
Ni 0.9768151429310173 9.193395915725182 12.14398272135249 0.8874903038888716 -0.28097606700259353 -3.8118872079051647
Ni 9.293529182366044 5.497161831926036 9.418623138286257 0.009590471901912517 -0.7883297969366101 1.3546517778747187
Ni 4.888442609402799 5.741134320267492 7.639107977456198 0.26017121444210034 0.5073951246949133 0.17897217706426596
Ni 5.549573820794233 2.634551302052952 7.124153941796599 -0.32150873700931726 -0.46277105822763526 -0.4413938781034399
Ni 3.137262304196348 -0.010506452702334376 6.8629470222347235 -0.44850606366818885 -1.4685112816000516 0.5267228784892477
Ni 3.192782930003594 2.0632374936504774 5.986973841151508 0.3448947200334254 2.430046014099847 -0.03864188074191409
Ni 5.062461514719995 7.218042178872409 13.033821718449255 -0.08016211147288775 0.4074082651866145 0.5361629408562251
Ni 8.736139476919728 4.962772339070424 0.29139585507413085 -0.14497859372764066 -0.4919289107385141 3.610766519768317
Ni 4.1211736510923975 4.192783323438354 2.409676576716215 0.7139464969290286 -0.9111539660543985 -0.6486057667396894
Ni 6.573564379654453 6.279002525888232 11.475189089982125 -0.12310699046552992 -0.2404004595730763 -1.8098239407091734
Ni 2.706244241459776 3.7005362152772934 10.040632708913494 -0.9136011420433104 -0.6683711222920748 1.3997664108251697
Ni 4.32625117011313 6.870994321072775 1.8416277622893071 0.23322451064992736 -0.04039074511222076 -0.49711945380051803
Ni 8.453642095083627 9.017415608529776 0.17541224080237658 -1.4576496562951993 -0.9521877440672568 -0.8392728636433804
Ni 1.7456846791892033 2.4651213369791147 7.82713980392781 0.9469223819032596 0.7884804635818614 0.40880231732066374
Ni 8.047141555824675 6.478861975761274 2.3945376998609578 0.0204019606951197 0.33614782707873075 -0.32478457954711165
P 3.5455021998378626 8.127179705109542 5.01630843326033 -1.8793265155856858 -1.1643821735197626 -1.210429088476496
P 8.376444277763902 0.6325992903904395 11.040154779343048 1.9989416908478734 -0.10133488889576096 1.460498438597904
P 6.941327231818764 3.864137486090413 10.223518631023502 -1.2539200697805952 0.8473823801243924 -0.2005159646733127
P 5.085942825884599 0.1267639230853859 0.1787031400857689 0.27360677112171583 0.6739912966923296 0.2810832820044192
P 2.712618797563957 1.3991456756504252 11.46550698118238 -1.3811449390692407 -1.267923583148539 -0.6344798688612685
P 4.557863125863604 6.981461955156846 10.816645633804539 -0.8776020982408821 0.6598196331776378 0.2725837291738402
P 7.464706968848578 6.9991145720607335 13.349071736082765 1.0758423795061407 -0.3709960451061675 -0.08684672258191493
P 3.784820984666397 3.9103322010805117 8.313494379748155 0.5563185898684936 0.38399785668247416 -2.003637553661646
Ni 4.166322901873827 5.981470813617739 4.809129808737044 -1.1419852938818011 1.1406611757537386 -0.833539817814345
Ni 2.525489956107973 5.695263421625211 2.86519828508693 -1.2494142114904419 -0.13402697981214337 2.0068550321576795
Ni 5.307220414191866 7.851621245012388 6.170347338162372 0.7293551181746148 -1.1341125760019435 0.9626567619193808
Ni 3.4944132320478927 0.9150855699517597 8.96021668885127 -1.2091124265476014 0.34667726585514486 1.0778349844561372
Ni 2.626909236244456 6.083898550380281 8.740526725837874 -0.22281822771493884 -0.15151150975015196 0.5972896329642164
Ni 6.494368152873912 1.7746523644754038 11.385587256161855 -0.4109296480763116 0.15470019189077872 -2.2382437751504485
Ni 5.751959038180253 4.624837598487943 5.552643599771544 1.2223176123839659 -1.5947419052962275 -0.22498283946642544
Ni 7.024668307851371 6.623210051722722 4.738472156453671 0.10089265915201978 -0.20477345439808603 -0.4651483002105602
Ni 8.043986659407366 1.4494759879969372 1.960017794620129 -0.04409313366447245 -0.03769031546192218 -0.3157245262273724
Ni 0.8134868030396297 1.263512885393097 0.15323267135599913 2.0922822486842483 1.7029958899093252 2.4626401459857843
Ni 0.9989826849130473 2.902301162219874 5.542636749434414 0.07175923212117319 0.1853981351952678 -0.6842278868186732
Ni 0.9225814558089552 0.9024243507520902 9.528806739173813 0.28634890127873264 0.37828897922315496 0.33380580920911546
Ni 2.7373583665372245 7.370568930590165 12.36628727007712 1.211040753918566 -2.8610161257668016 -0.5934484048412554
Ni 4.766733922101629 4.838695166482359 10.172035532478759 1.6707509138326904 1.9970429311632638 -0.10562143208625682
Ni 3.10385370899722 8.749351183910688 2.8069446493041026 0.9641366888990172 0.12548089001434518 -0.3505262072875898
Ni 8.870699047281432 8.355618260651402 5.628013242510446 -0.04877922628623212 -2.1849008407529342 -1.1865430258875178
Ni 5.53907291922929 8.156795023091377 3.729526105113058 -0.09414839844965076 -0.5670357191756815 -0.985199423106587
Ni 9.237666236419678 1.2521793132194798 4.028837882106982 -1.0816487017752727 0.09942250236439651 -0.6174668792430399
Ni 0.4358549537834026 4.853433436255887 7.300187909986786 0.3207366347299831 -1.5543110509746907 -0.9056093820870855
Ni 0.36457834968091574 0.812128624757926 6.755714776060132 0.2604874601309385 0.6285928139528724 0.3644492451265852
Ni 7.841555182543086 3.454815118657622 4.296003947658268 -0.17584340162729717 -1.209326856551253 1.646762778448209
Ni 6.5966201036190695 3.3721586829032586 2.1895388219532665 -0.20794593858879673 1.0914569461149461 0.032197410668150996
Ni 2.908999534671873 9.010744991764733 0.1830404287673948 0.17203585495574888 1.3982931687137532 1.7966683771638219
Ni 7.355229287599261 9.002038957956264 9.585192417224517 -1.9623196687494655 -1.0585689371376736 -1.8557471856038492
P 8.340223106286587 6.210307200672634 6.345487573232583 0.21407416297372167 -0.7230435741342903 -1.4964725426996681
P 8.399897833241551 3.038267020720672 6.551772464635891 -0.5385188426829113 0.6501530566221513 -0.14426356993848705
P 8.561731991985152 4.412700883084786 2.5648169889556423 0.7905435167584772 -0.059218419341685105 -0.30444381110723046
P 7.927514545045189 8.490797708021786 3.2564822315671482 0.15308965287054926 1.406856227792416 0.8923761712262631
P 2.005810977338933 1.3911242821202 2.531776619203461 -1.680292020553906 0.4251640465081387 -0.006418244821517978
P 2.7344625231981694 3.9428063548187935 4.484509471187259 0.012715904904771648 0.6999735796887042 -0.4682040563177484
P 5.579577718393449 0.8853564536534054 8.583882880555008 1.761577961218592 0.6258245071791158 -0.5050464219570786
P 1.9387532376537275 7.191322704229628 1.4771835650953442 0.07911747225845729 0.9381500350272682 -0.5163775306991817
Ni 2.950170470322972 2.222915960707178 0.7836845967656252 1.0483747702134913 0.4437430950619068 -0.34870380936687045
Ni 1.3985628062243536 7.498790952430296 4.011749630837863 -0.40802712971753596 -0.37787143206976215 0.07518034198758021
Ni 7.107408010666601 9.004287168599683 7.33810310355797 -0.35108593644580177 0.6089220749968224 -0.7885974487756999
Ni 5.673095879643181 1.2950803533574902 2.650802256765571 0.39665771153832974 -1.1813856500562945 -0.2696693837405227
Ni 0.7511327271038665 3.243344539741404 1.4428840123449354 0.4178063205914869 0.09288932923156906 0.9014441949658023
Ni 4.970146099905014 2.689526066016734 9.573398100647433 1.4120388004346198 -1.1347923756777876 -0.07572593007840506
Ni 0.1922284863393288 7.995839794434709 10.13047786758941 0.7630350269255632 -1.1487856046330862 0.9818348775097284
Ni 1.4396227191276292 3.645330153922213 12.325501213285142 -0.28062459720044575 -0.1764103298743607 -0.10036404034205941
Ni 2.290898889957577 5.1474494281786445 0.6245038816949987 -0.08966388031573591 -0.025288856473775802 -0.45512331187439037
Ni 4.795840385822609 0.6053117493546303 5.186181564135895 -0.1481677900888997 0.6381791720897267 0.04244068566271401
Ni 8.245548458080364 1.9239224489236801 8.353914986661882 -0.9136034560361556 0.4125394157655927 0.9056471773035565
Ni 6.514777834682075 2.1129849365709177 -0.012551121641411424 0.2705942095476372 -1.6734220329069505 2.6946516101642173
Ni 6.302400569991968 4.12678955175312 12.598868824491918 -0.11757500490370719 -0.20956676202167132 -2.2698362052447485
Ni 0.6762543600240823 9.103041902788409 1.9669511652216871 0.0015274923881199501 -2.0556617692477372 1.0541234997718103
Ni 8.611858762627321 7.225351176437435 8.10129197588587 -0.12715904904771647 1.0525219596126454 -0.4891112387840609
Ni 3.6844656725298868 2.048101392363916 3.5129364523326263 -0.03357037975627766 0.7608717007256574 1.0056885441988745
Ni 8.61108160339256 2.8007801112312207 11.03454813057798 0.4656262682882433 0.1907768830086779 -0.7069734080453051
Ni 1.889477641411536 0.44953850745261054 4.7686287103311455 1.0671775047422911 0.12195616469053835 0.4393063994467918
Ni 1.655210391608957 6.716413648520288 6.539287956643174 0.009720312611557454 1.8857617296880684 -0.5345925110453116
Ni 8.65264111866104 5.323364972104487 11.81799495362535 0.5248629424623734 -0.10902840088527675 -3.531119657368951
Ni 6.745427593284749 8.71225108234644 11.809640491851654 0.31839873062542584 -1.0013824606243529 1.8104201795322756
Ni 4.5310973917425645 0.06273247846792729 11.53355097294408 -0.5563396729144161 0.5725900733350074 -0.19012613679855644
Ni 6.590254799410539 8.339399687573565 1.408231962370188 -0.8400274824212177 -0.057079518621811376 0.44073310459098936
Ni 7.093169343258278 0.5075201375032706 5.118367019386362 0.4214899400906612 0.4812822296579453 -1.1903413165876853
P 1.4125146648674676 8.50177970816063 7.994764724159955 -0.09601039135905401 -0.5417118956989122 1.0646094869047988
P 4.312780410043916 3.8810499513421455 0.23162305802525676 0.8844083225294381 0.5516774915520564 0.2280241973959105
P 5.641991006461385 5.604076738079766 3.096683489866973 0.764215934607542 0.5893369537760431 0.5284982252221156
P 6.558076706333119 6.642342971930919 8.981842069748096 0.49477717882058664 -0.11101534940831848 -0.16431560349335572
P 0.7249665158210714 3.3041294941746 9.47817666540818 -0.9972578969330179 0.33267323826656897 -0.7826044644170587
P 1.5605264915070811 5.71799532924201 10.97858341377944 -0.10740089258418277 0.6864318364485276 0.6919707639888857
P 8.850326373055877 2.732306831511269 13.09972667193623 -2.285959593169173 1.6163499704843067 1.7851668042821254
P 5.777993872544791 2.382353878476928 4.663116391558247 0.8227820650772089 1.5166397616761622 -0.2548202345428321
