# total energy = -381178.319742608 ev
CRYSTAL
PRIMVEC
9.16960126263463 0.00000000000000 0.00000000000000
0.00000000000000 9.16960126263463 0.00000000000000
0.00000000000000 0.00000000000000 13.42063832537362
PRIMCOORD
 96 1
Ni 2.7146787707772795 7.657185506879928 7.256565630995762 -1.14836960014159 0.48367824069394766 -0.3634184898692257
Ni 8.057658669145095 6.84716127717392 13.415819759239021 -1.2071005383238953 1.5707697107513463 -1.19974435506914
Ni 2.703317634905902 2.0693497480009 10.037482849871562 0.000536075009128109 1.1616393206673026 0.11985891584187744
Ni 5.7317343103152885 7.767000650702056 9.917194187573013 0.11701887528992105 -0.24973022161443445 -1.3376637279571544
Ni 7.114794427035013 9.25331964639481 3.933830432349266 0.013311372396925461 -1.2357994489204847 1.2305626260015774
Ni 5.563031987666699 3.4182622698981793 10.737557142617987 0.9692956073921372 -0.8693205749583801 0.03616925083170545
Ni 6.234219285791976 5.420151261962256 9.401827756348053 0.6589698835828328 -1.3105254769794656 1.5683868123414666
Ni 5.167033590781059 0.7583471082933195 2.447736091885609 0.6003685289998564 1.7354403835912757 0.9432001958566659
Ni 2.841338471980942 5.315003445144592 12.36106529255807 -0.13120390854105143 0.05106262300377012 0.5212793388761733
Ni 5.577767536775095 1.7912540831848094 13.423456203108016 -0.27222788849631824 -0.8827203933040539 -1.0910090599442501
Ni 7.942974467092376 7.879759236505389 8.52438678479092 -0.06756910529922557 0.5104043438348823 -0.6007904470286234
Ni 5.299561836744754 5.075777719762537 5.104768330877103 0.14822229747591892 0.3680631877300887 0.5869422282916215
Ni 2.65046405366085 0.363656296537024 2.5762388829279685 -0.769706525408468 0.46357298530364033 0.5169475442700388
Ni 9.04591243713356 7.595254020459199 4.198794311304663 0.495945745207391 -0.3675206849630574 -1.5150729314096745
Ni 3.5206500367583904 7.758353716782195 12.165218199513966 -0.27516537385808737 1.266954020146418 -0.24952067670678962
Ni 1.363831463029427 0.06406158477659772 10.942289579212828 1.6862155851271927 0.7222244206671046 0.26898906984404647
Ni 3.8967137206622917 2.9657057728877154 5.997965428154806 1.972111972249539 -0.16431328950051055 0.23839268511442815
Ni 0.908510331260916 7.503998149440677 12.754827223714065 1.8132630482977095 0.8653664754066387 -1.1781730566562676
Ni 1.3421912042268032 4.3066040633470735 10.62511949285622 -0.15654290152647232 0.44541225523421357 -0.7595468112666467
Ni 4.9465963782322975 4.482687914951644 7.775246873050023 -1.1200324437597937 -1.2986873466939568 -1.2353993852685885
Ni 0.9174644468205609 2.200860168232778 6.22449217285222 -0.6734860749211369 -2.369604520984338 -0.5613345550258462
Ni 2.3049901593186237 3.278398342984442 7.634853860147763 0.4970824299149955 0.7317593567407332 1.931946198663931
Ni 1.6657955997367166 5.639286391142385 8.541605461900907 -0.6521515751094188 -0.28651319477073883 -0.7906419900095545
Ni 4.223564154992599 8.575970376271497 1.0844979020530165 -0.6180803444573226 0.12592234842713798 -2.308920315730404
P 3.0568240998884244 5.456710461897028 6.890048418888222 0.665728285352589 -1.0554625302982081 -0.9982570276214938
Ni 1.1351874574178065 6.30894236586934 5.773532103408509 0.6116153055582694 0.5002783111444739 0.6806527678729051
P 1.7957746965702728 7.002283420463745 2.7550552756864293 0.8521774875201904 0.46109624162837365 1.5857031921327271
Ni 0.540331587418191 8.386361362915288 1.729571092956263 -0.7196510035129734 0.49307716541034435 -0.31401397129416886
P 6.333736967480482 8.881978307102496 0.5930512924859052 -0.18022379008317993 -1.7398017458837647 -0.832269949962986
P 8.110567267997272 1.278068183122249 5.51819080393933 -0.3052891898266613 0.07307692249133221 -0.2245156700220198
P 2.6180586830640395 1.803229582335753 4.67736038208362 -1.0003403925130836 -0.3685576108680039 -0.1969866113638156
Ni 1.5466182931020978 3.691470537281305 0.5713431786344935 0.04514754307091579 0.30289626411445253 0.5765837678754329
Ni 4.3060447176746335 3.3940820315666036 3.6926084847886798 -0.2396496974499808 -0.10792925428382702 -1.1791577891670402
Ni 1.9505392254137832 2.9424516642760827 2.9408909981539613 -1.3462118746374816 -1.615581210639082 0.6897912398390637
Ni 6.977112865203913 3.5099674513748913 5.986074289334788 0.2568022979698674 0.9059814207145236 -1.4107000270185381
Ni 6.378915592531554 4.672874613182668 12.771911107686593 -1.7881474841770042 -1.4648837121497933 -1.2922495614884133
Ni 6.464147035569853 0.9805421333897343 9.677313752666167 -0.4220291004235828 -0.5222424741203909 -0.14848737821184751
Ni 4.066103763399949 7.826868976855587 3.2481166520226687 0.25405661690393017 -0.5234532065990405 0.36227332052118905
Ni 5.351553475478177 6.832838360118963 -0.08828858807423007 1.942159648861823 -0.16798302504261392 0.10225200139339163
Ni 0.10811143192148097 3.216604400581526 8.774561013990914 1.440985822486273 0.49902541257397925 -0.5197587884665887
Ni 2.554229089197487 4.952382396581643 2.333191267770941 0.948254984671754 -0.04351155012938957 1.1552367595750686
Ni 7.399262964676454 0.9299626132391948 1.7950906443216814 2.0318057885657463 0.7151014364690781 0.11442103265575779
Ni 6.4954612236253455 2.3057145578124403 3.835027979553389 -0.4940205031602201 0.5084518480942017 0.7709974763057497
Ni 5.843401713577302 1.6349123829370402 6.603531392341482 -0.25677530138667387 0.0990679472384552 -0.3490215977176053
Ni 6.399281276769107 3.1358018749168135 1.5490904175822617 -1.4940482495288914 0.8383308114450851 2.2495152342992095
Ni 0.0395943379278515 4.369195761053307 6.3962360522147215 -0.905050424259822 0.044499110853639494 0.9079485717432233
Ni 8.034963906205903 2.955637550783783 13.39496441829805 1.4187298393015502 -0.3299542966735092 -1.0446875511698912
Ni 8.580903621710402 1.5443534016087719 10.269404987907736 0.7173781483183967 -0.04041877013667878 0.7510264325004614
Ni 3.3418978312082426 6.482532085950896 0.9291795292977779 -0.9733697774615107 0.461624860438334 -0.08714779876210152
Ni 1.2628466451509117 0.9852736476025113 8.607500966915014 0.7386594262946762 -0.8584016140530313 -0.4039359903672979
Ni 5.843906041642618 8.919601180775025 11.865092567844782 0.48507229282799685 0.8221554872368034 0.657390712021171
Ni 0.7625678757199499 6.134243124044092 1.0714596461244357 -0.028691711507737683 -2.358156684158713 0.6336823126606377
Ni 0.6635471864158085 1.5165786796116758 1.2701988313830912 0.10216226989306276 1.7452437428349428 1.482502196562505
Ni 3.8920188848542647 6.47824988219631 8.842214331552677 0.8955568829470899 -0.015271324336773702 0.7927821762810088
Ni 7.549424353723812 7.255043477198628 2.3443304992935796 -0.5168138469056519 0.820203248606439 -0.29629392830658646
Ni 8.79677437286776 6.0905224655818415 9.67742103700006 -0.11535254333109167 -1.1761909932292323 -0.08150397021276286
P 6.917849732728762 1.9453217223380659 11.677619154605154 0.15028457932158634 -0.2376162119597198 -0.5454379384002477
Ni 3.6689591663658634 9.022355731682739 9.696518565393374 -0.29854235802113105 0.36407900627136003 0.11344864144015945
P 7.756070486086494 5.200190868675247 7.802504429540141 0.12336512922292302 -0.02867397089592481 0.026348922307173974
Ni 2.373597115403891 8.526115254614774 4.948350522939477 0.21329717559838104 -0.0814314651036146 -0.49261616661352586
P 1.003622019578804 7.856853572738883 9.077531972908597 -0.2713010058066747 0.5042720056848994 -0.10782718148832397
P 3.3068332762670423 1.0217594907277825 11.829648391414416 0.7191262413577552 -0.8059971323093862 -0.9373663627837082
P 4.318744615319393 4.349572814511944 1.1194340825775912 0.23290080876192146 -0.8148923779164867 -0.6758401769756103
Ni 0.48858844487695124 5.203730334733643 3.712537696009707 0.28919614091954066 0.5616865390486261 -0.6730428167361312
Ni 6.9641837275294645 6.394155469705265 11.404133965266162 0.04419289246713034 0.5505580332356325 -0.2621874735411807
Ni 3.2947752507054107 0.8612199470563516 7.129539145744597 -0.36317912016491 0.029218016324852908 -0.5273895655389691
Ni 2.2184841417152534 0.3711561133483232 0.03971170882305217 -0.8330466802280105 -1.1599837873417507 0.007538217358574114
Ni 3.5393010055738716 3.0755209167098436 12.309073653824646 0.8529678446319696 0.1472905296902689 0.24622400823338886
Ni 0.43647485044773443 8.489051726614687 6.2274172756310495 -0.6842448560995377 1.0765363202493718 1.522085615282082
Ni 7.1130613724105665 3.0486906636350652 8.163559310220258 -1.159328156035623 0.1144660269610803 1.8213854202945279
Ni 3.6415420588150815 4.380776967353186 10.090052173479803 -0.35103220038973093 0.36078568023206903 -0.7905147204030708
Ni 3.100984899207677 5.982165288348535 4.525277961587468 0.3554462702970266 0.29304893900672757 -0.22536619094777316
Ni 3.4397924934865527 2.060702814081038 1.1557667933630305 0.34184487746350806 1.1246573441263146 0.38890609261736897
Ni 8.70292350471316 0.5054009086543286 13.023145342783868 -0.7711519996057428 -0.7445799055441693 -1.3282730307708737
Ni 5.270989359444341 5.90496641595053 2.458338901738776 -0.242419289775318 -0.6045465716369459 0.34509140942526373
Ni 8.652325645360246 8.116848444810746 10.906617079712893 -1.9425131755465 -0.23563594830489742 0.11814270448171912
Ni 4.804999396694112 7.500431174578719 5.556586674991968 -0.5428043574321426 0.48194428872197653 0.3662680435028789
Ni 1.1485108879433201 2.505914460540273 11.982899019101863 -0.6396686121510596 -1.6347220452335913 0.2804569612743299
Ni 8.408249200949975 0.9353451691362882 7.671746833565762 -1.4611057331645998 0.8927242985943012 0.06840959892264993
Ni 1.9749395341738603 4.051377383892739 5.2661780697012315 0.6723079954526356 -0.0620844280355705 -0.9654371528779953
Ni 5.948430325579528 6.614931957497966 7.561550234334232 0.4765406012079018 0.805469027720058 -1.6457860163572366
Ni 4.719685427245125 2.065195918662939 8.584913488309716 -0.6878701115569508 0.9787366982003789 0.5221056914322105
Ni 7.997341032533375 4.138488595174487 10.706984775298569 -0.15322206468335547 -0.8859350435866096 1.2949273654308924
Ni 8.71798915946431 3.0697899159676236 4.14897678501281 0.855903530221526 -0.9553795115316771 0.0720335688284824
Ni 6.6646678743392505 8.726764467800798 6.605557874203931 0.535235286835633 -0.7603255984142003 -0.49333761816058264
Ni 4.403737648726817 0.6851397632922569 4.686956369726393 0.9705785878696188 0.2515816730008764 0.2971992137296753
Ni 7.187793622089118 5.251063816063788 1.2395338510916785 1.2317664165016915 -0.221460942356096 1.877039262213406
Ni 7.893311907060593 6.341558637293465 5.754957242282884 -1.3580060390589324 -0.042105156700166194 0.8518645842654619
P 4.59524476952885 6.095253979794618 11.0936200924116 0.7263335577394717 0.17272876725771544 0.18547398273852572
Ni 2.1701695130580396 6.70363867938635 10.59559429399242 -0.9766772445681889 0.622193852405064 -0.5467394308204907
P 0.32426827463589253 4.63495831227214 12.497835396031126 -0.689028136420794 0.5989083995145621 -0.4444483486590475
Ni 7.280223202059647 4.834149558869342 3.6866757528203338 -0.7520219636445113 0.3098181880452664 -0.2080639522238997
P 8.767376631460467 3.8033946893765704 1.9590238573926255 0.315499811811076 -0.10034449995803364 0.8911430701501105
P 6.36825134635043 7.0425746480818505 4.160465378340694 0.15073452237481136 -0.3808366853456731 0.12341629417583261
P 4.747808594087348 8.530278253553924 7.839987925274618 0.7380739861048515 0.050569742527751614 -0.1236482076809806
Ni 0.52355855292592 0.66274301239166 3.7567315058932347 -0.3197652719556493 1.0954323858229265 0.668603550017855
