# total energy = -340890.2636975067 ev
CRYSTAL
PRIMVEC
9.07839344383224 0.00000000000000 0.00000000000000

0.00000000000000 9.07839344383224 0.00000000000000

0.00000000000000 0.00000000000000 13.28714646312204

PRIMCOORD
 96 1
Ni 6.57805850355231 2.0034924522649575 11.310776520343778 -0.5971973303607263 0.20088106132221534 -0.40719563495517613
Ni 4.453905126438454 0.6153652696934213 5.784280110272029 -0.1540551021076121 -1.654134902542564 0.3510828511220083
Ni 2.6052628280481223 1.5194234451271893 4.646368879277338 0.725284547649667 -0.8854809867683268 -0.8504674468076191
Ni 3.188077518699656 4.671541448114974 4.523396595503865 1.2929018503604313 -0.15450170272672747 0.3736550799955694
Ni 3.9861681487795186 2.5057273243205382 2.14410677766501 -0.5033469227674686 -0.06916113237669379 1.847069198213877
Ni 5.113931551785638 4.65512771309678 2.4465888549314263 0.08226373119692285 0.018319110024162 0.2211794065599352
Ni 5.176481681362713 4.68541323301973 11.456868748238286 -0.7705889280134213 -0.4175060157422487 -0.17551430042265256
Ni 5.882399384650697 7.964946485443546 12.406700182500444 -0.449983933765296 0.6348069131833842 -0.11519647736920159
Ni 2.0132063330555923 6.869883454968141 13.358099455279 -0.2422778791014473 -1.4703588763317514 0.7453628064567808
Ni 2.8194130467119285 1.7328837059030628 0.15018567541646874 -0.06466992937455959 -0.24803689307241156 0.6929007320023227
Ni 7.98140561242805 0.05811805798643246 6.645592671030374 -0.6400913015107751 0.6978179667982821 0.15405561632824438
Ni 8.806522619249707 2.5312376093875315 1.3934098996108542 0.8433748016268959 0.34550664258581143 -0.2297617489123075
Ni 6.75771082781947 0.8231733228242023 4.585792392395482 1.8851287240897596 -1.668647237226126 -0.7666253153799829
Ni 0.9899352364982591 7.70211792210742 2.6693344963359547 0.38630105089435407 -1.2133094953480847 -0.6331963741631547
Ni 7.8664005265815495 4.036698485677342 3.8648590266516947 -0.9673315416872307 -0.4556706997374281 -0.4880087497485015
Ni 7.7465385003397325 3.773824530374905 12.664271448298386 0.06819259781583739 0.33518546316546144 -0.36724969068985786
Ni 8.410877162486496 7.152030839166388 8.948454219512113 -0.8001162480485768 0.7882207821625715 0.8829937015700985
Ni 7.200382361681265 0.9629179381497284 0.1322894387785459 0.6892227689301034 -0.2587277971273544 -0.10128038150874169
Ni 2.0076140428060305 6.568054114177283 9.080023741704961 0.16469895497470344 0.5781287437650494 -0.4304481777252135
Ni 0.3757556049648908 5.064354446180354 1.1290262075089015 0.11944188290911686 -0.19383083934365328 0.23151395571672387
Ni 6.20340229201148 1.927451830300142 6.382560751685174 0.6665345833039682 2.2268419610714103 2.4857962723872737
Ni 3.6968306771175508 4.161018003010937 0.42542621802077635 -1.3604678703358635 1.3092342689718677 -1.1180120708956551
Ni 5.9862380467845995 5.711271671656813 4.558421036709722 0.9144879155236381 0.23147796027246587 1.1348723369861036
Ni 5.329770351596228 3.066735714356088 9.329635980129867 -0.20403066269479053 -0.4996064818884299 0.00982084274516373
P 0.26250446469666194 5.900701425467443 12.333235100704137 0.79365609424553 -1.6209702428651376 1.012855751371275
P 3.9519607629672664 6.1208796972574 12.613328044507131 0.6614258013224932 0.5014327364638913 -0.20591425287074858
P 2.731497886360057 8.51591417253102 1.4489896388411545 -0.9813574236526776 0.9215905880066902 -0.06055179344112797
P 6.449871590688986 7.887852769860306 5.675418373146109 -1.932454248648601 0.013764143663627909 0.7580920810979911
P 4.905219290685934 1.1850389860978123 12.515920516160223 0.024245245700609857 0.327680670147984 -0.35045858727444806
P 4.233581600356301 6.491450631830206 8.117025005855199 -1.0820078848869044 -0.7699461522230998 -0.3920490091217248
P 4.889068829072347 1.038087034361366 3.6998192841794912 -0.9340912915768622 1.028155614953139 -1.439057752225625
P 0.12794179624524238 5.749882078201268 3.7651256139509934 2.242745005454912 -1.2604506718102615 -1.6009583185195848
Ni 0.6451778053274064 -0.17259387350574226 4.763043481644771 -0.5843217599496389 1.2817131807334636 -0.8675981929506349
Ni 1.7327747651839156 6.667979988815143 4.93709171375113 0.8448524146136869 0.3352991059251903 -1.040096332254783
Ni 6.097639010505976 5.893611200329606 9.235735435100178 0.4914252316292182 -1.2947802983300667 0.3842739931619963
Ni 8.773368327055877 2.5545236881052666 10.107691504119215 -0.49863434778314775 0.22757811099742742 -0.10947011640838565
Ni 2.4458190071827857 5.286330239836241 6.818711275666677 0.7106511140072084 0.7632360871927759 0.4932211471873763
Ni 0.8068367541487383 0.0422835244583723 8.890854537780957 -0.29343460448092046 -0.2240130193539884 0.3201249692879132
Ni 1.5612112893134416 1.1825424279506869 11.01245325503081 0.28676619132180936 -0.2168326995554653 0.7440726268904476
Ni 4.3227132654053175 6.971770262550654 1.3547041699371445 0.11568215875636852 0.6571906801952231 -0.008758462918920401
Ni 5.956442760097812 7.909232385992963 7.993174841453263 -1.0406020682466077 0.8771503554154443 -1.016542970414875
Ni 5.281609475339859 3.207568829033761 4.431316268323262 -0.20252193935974797 -0.4881115938749529 0.3383926572488495
Ni 0.33409758180228927 7.463256316983702 6.781573384509361 1.5915223699176657 -1.1102774212555588 0.267768567173384
Ni 4.932917468529135 4.67435575002628 6.946334420308412 -0.12995615217687942 1.3440629466152787 0.32793623780221587
Ni 0.9159826449837665 7.557934880315968 11.1516359178134 0.4981777198617032 0.521739052121411 -0.6306334985319848
Ni 4.859645756509314 0.2367517865295663 10.2854201168541 -0.5247307877598834 1.115832289635517 -0.22735468213271168
Ni 8.073278952242275 7.198593918208597 4.589951204348929 -0.19594608591444318 1.6303180026286244 0.3717439790157856
Ni 7.2337273001336015 6.050177170530802 6.967739455942204 0.3973948468146704 -0.4959238908305201 -0.42847485604892654
Ni 2.5897569323561567 5.417168043532149 2.41047409869477 -0.9747666578090374 0.7023014564909325 -0.5742474064327723
Ni 2.4934261014501558 5.221810098921252 11.253787814479173 -0.639309686149744 -0.036742092616039945 0.04199074260948897
Ni 1.1953792760235438 3.435118756152685 3.688113603907114 -0.5743849604519011 0.3904155872833599 -0.22603750598318487
Ni 1.51184298675319 1.1395743926403388 2.592959789499087 0.39102930960795884 -0.20547922221585901 -1.1315466150469802
Ni 1.4372367509238135 3.432331689421167 7.911393043589386 -1.6803172173648868 0.010219363735163045 0.005898110651989841
Ni 3.790192873426787 2.7087383544515333 6.907270094100842 0.018733057633129026 0.11390346958939093 -0.5843207315083744
Ni 4.060220602619896 7.247399360386588 5.921748772406702 1.199913790767469 -1.1527916404686858 0.18640935006860154
Ni 1.1248583171621909 9.077394639016207 13.346406484757189 -0.9289711967414775 0.6818506448357484 -0.0209658036183897
P 0.31057001782377724 5.492491472429245 7.924506782656741 0.3051153832529584 0.19945821283275972 -0.07557449210220533
P 8.721376368842828 1.7168421850086228 7.901001914661385 -0.5830272095079314 1.0284296945501321 0.6670883989249092
P 1.7665191529397921 3.2760199142313144 10.24003178190003 -0.006334683968776187 1.5196934609008215 -0.3529972945359017
P 4.20464876102943 6.304971355829814 3.646909500407626 -0.6581219337602408 0.9486828162377919 -0.6275646297986741
P 6.942655855358539 4.095381219724688 10.476795370340836 1.385732301329607 0.17002525228362333 -0.7068749347942278
P 6.559311621465712 7.9299583578107375 10.183601397221054 0.26508716368647894 -0.22619999970297816 -0.1254369241502872
P 2.371212771353409 8.567588386979889 5.9788300778825825 -0.022158024154277967 -0.40940935477704327 -1.164659595550865
P 7.124550542761481 4.135171817393239 1.5989084094957127 0.7512650308738288 -0.32207900769049047 0.028368780950680177
Ni 5.614269039649403 3.0054565598357312 0.39741574344935293 0.6069256133920837 -0.9486825591274759 -0.6699099275341044
Ni 1.334578279914007 1.134998882436152 6.795312624872488 0.7063365457922545 1.2561517873245915 -0.24466052040101088
Ni 7.085785803531566 0.7201825826209968 8.950487779602863 -0.4290291858904998 0.76266864472508 0.4646466779837933
Ni 3.08462014908277 2.091661807628173 8.999185188901032 -0.09961250688801554 -1.8017689316151808 0.8651857268544002
Ni 6.7072440396744835 2.0653889375271492 2.5303243230253467 0.1374005242700666 1.4405240523585063 0.26591994400041946
Ni 4.205529365175871 6.932497133298053 10.414717317213398 -0.2342580941207643 0.23367908168884272 0.3267612436575082
Ni 8.292240719335085 7.631533414493232 13.150965926767604 0.9393779938970983 0.49324968643246664 1.3195212527201727
Ni 7.365427551189425 3.608207402091222 8.19859436931674 1.0697496363448415 0.3087223838779264 -0.6427325957883641
Ni 3.5562517574512214 8.511102624102014 12.532475874113308 -0.5040670887629447 0.1671250479176928 -0.3802430176257322
Ni 0.05477085439063164 5.20436142707116 10.274060323365015 0.3916183493422094 -1.6334519202719158 -0.7131741375393782
Ni 8.42976929886529 2.534269792737131 5.791720761389788 0.5301768984761192 -0.14337962467163695 -0.04096924332351008
Ni 3.4699797862798216 2.722791707221535 11.373810528281732 1.6868545042627725 0.5056737711284324 0.4367427524846736
Ni 1.0606196064383326 3.4928482589074923 12.447464891766039 1.1892889640637712 0.8598298618591257 0.11895311619815642
Ni 3.2806226596152883 8.949761508141881 7.909000886964775 0.42486425587953275 -0.8750443648160349 0.8730599873961545
Ni 5.745351959963393 7.860172748803629 3.2399641675508635 1.1123677281256843 0.4030219631934608 0.3805636341899446
Ni 3.431133341510546 8.412710997925476 3.564051005102842 -1.0905560315672316 -0.010281584431666163 0.2191243238031194
Ni 3.48465954818492 4.5548840946947395 8.963814860911883 -0.02993175456242587 0.08450881847735768 0.8306650673697114
Ni 7.402049789609443 6.380503587771942 11.462967612831882 -0.9200697804867897 -1.5150050542862166 -1.0872637339692048
Ni 8.14014131861893 9.042279413877726 2.3303127940282073 -0.2470526747822713 -0.17518005701168538 -0.18049966945238594
Ni 5.274192428044579 0.6735187334135766 1.4471167663111473 -1.1724202133328903 -2.3109520014484524 -0.4170696995357785
Ni 6.029187925308422 5.518065306249074 0.33076490363570815 0.28656564527522904 1.0613151324242431 -0.5245495249870128
Ni 8.206577000512258 0.10363167476752223 11.16312916368344 0.0924679254234343 -0.10151795144084452 -0.2618768842792974
Ni 0.33278303045791185 4.800336613326871 5.78370907933583 -0.6431750826424214 -0.24324667077261977 0.18715496998537445
Ni 7.59169742485837 6.207732685597585 2.3778281965236285 -0.5759692742198855 -0.16276008608077774 -0.23947434821438116
P 8.694867460516985 1.7278451976425002 3.5872771664250465 -0.3365951990287945 -0.12619617091381494 0.7579013052434238
P 2.027259685825594 3.42604036289041 1.6525753312656515 -0.5245891199756966 -0.7221159201136983 -1.0874869057236047
P 5.011863176337879 1.26503778752498 8.010568135104457 0.5346578170656083 -0.7439299306649962 1.2192713693584742
P 9.058320934772167 1.7087079446456244 12.429700291830418 -1.5429010093655362 -0.5615590123318265 0.7073847845511108
P 6.636069436498247 7.800309823632188 1.1553835066672646 -0.7146314388111951 0.17567679414244583 0.8681484090271501
P 2.208555199273227 3.243019954722945 5.650558101036695 -2.382875269951316 0.6480959169828064 1.8588448506925663
P 6.677839123897975 4.131840047065984 5.982936235155109 1.7552656458473188 -1.0641276621723736 -0.8840267708203032
P 2.6293750405527248 8.6498386299361 10.067325336317836 0.3921701080806213 -0.9162082406488543 0.2466479831446849
