# total energy = -340858.6886746274 ev
CRYSTAL
PRIMVEC
9.36237015234850 0.00000000000000 0.00000000000000
0.00000000000000 9.36237015234850 0.00000000000000
0.00000000000000 0.00000000000000 13.70277508084004
PRIMCOORD
 96 1
Ni 8.198674099137062 4.718531423881318 11.679149138522874 -4.698211516510392 -1.9500642484208803 -2.3450168043426456
Ni 2.2844650579361074 2.3504135912370727 3.506677503915824 0.8100389064789275 -0.8125570449150908 -4.018492059085034
Ni 6.754107241432296 3.438077547470221 1.6570355430935757 0.03738641106825819 0.592925699568566 1.7572793338432382
Ni 0.31118176825536925 5.739994062827253 12.43184248092081 2.0905351840861544 2.8569139306729703 3.189599510234713
Ni 6.226940281668322 1.1025782114217395 8.889044954081204 0.4348241953057221 0.20376506773822972 -0.48568267271848614
Ni 0.8455605615232801 5.10313757777167 10.049793441923379 0.49621493970837766 0.006900069553942955 0.9212265197990522
Ni 5.215270681597004 8.053650989989995 9.031581417793186 -0.29022483929437115 -0.9267160821587137 -0.7313155843350954
Ni 5.384673401862146 7.703067688174559 12.456699572901794 0.7756406315047158 -0.612866661466867 -0.26514964149329817
Ni 3.369788421704003 9.101918093848006 13.653471651258183 0.47278987591621807 1.2486043139946368 0.24906044924091944
Ni 0.719159206029764 3.4218712852408095 11.927265047157485 1.8724210467151043 -1.3846619510835636 -0.664700615419023
Ni 3.359311929829531 4.6738729196442925 3.3781583803597472 3.050070369657418 -1.3952111873543196 2.2176677507713096
Ni 9.351837194917847 3.045363581280233 2.250900025747395 0.20582734958389712 -0.812039224738408 2.9714087539894565
Ni 0.572441507937853 4.050123752394124 7.926178579384379 -0.717380719421558 0.5007472803610924 -1.7606245961663871
Ni 3.8839229626214484 3.455613266219895 9.286685399292054 1.3407315682492007 -0.17266268990647038 0.6582345480787051
Ni 3.6252594081014236 5.227685184032705 1.1874031548364758 1.1214257245628945 0.1986359740417805 -1.2776366966712447
Ni 3.5180228237133977 6.081477141137786 10.66895317546768 -0.17401663283120353 -1.0747026094747427 -0.9167211757295307
Ni 7.623356471177907 0.9274522744605614 1.8262781668340944 -0.04979918291031424 -0.1804662451112892 -0.29386037916442936
Ni 3.4317579478140376 0.2697663889381988 2.5093482457606173 -0.7825425008308716 0.335108587180939 -1.1678269375352532
Ni 4.557236515915812 8.341047657613466 4.6803329548483905 -0.954407120316079 1.3083660074343018 -2.7174796638023264
Ni 6.358013459722483 3.6011606680791797 9.398500182542113 0.5558105398838235 -0.18707937955243265 -0.6098355879500271
Ni 1.337002590371606 5.008755527202813 2.939354403580986 -2.4485476724484605 0.8542089161279224 -0.17933290283779438
Ni 0.762255130736986 6.955482454772792 8.479317689379785 1.2391819922394722 0.11852554174243458 0.18181556005033203
Ni 9.41358202415122 6.238147038391952 4.5409216501960135 0.5309292032611115 -1.6032797675639097 -0.5334118604736491
Ni 1.7441252437776908 1.5988119011649313 0.45122784158432344 0.15533731125414538 1.062754178863615 -1.9287500603241363
P 5.946415593522835 9.226681034615845 10.658059121897406 0.543838969344244 -0.21167378106234513 1.235074654939318
P 6.090708437820744 8.472102110927903 6.351194845752708 3.973146798181016 -2.6092421342494614 -0.41062111569695736
P 5.5014408787686815 4.284182998919412 4.055363870805333 1.5997951514494189 0.7804866467431074 -1.3387317642103524
P 7.456781186610791 7.596111974882364 1.8625910545770132 -0.21668306135147844 0.8647568668470978 0.7589330889420478
P 8.983128345051494 3.2860794727766995 9.667060698242215 0.9048377940283837 0.8933601324060872 -0.01681552889544201
P 3.5944197617792515 7.050679031519556 13.364151952865262 0.3926884424779366 -1.5095262905598326 0.36038793057301804
P 7.3786522101206495 2.3912054367214997 7.308402604105536 -0.9575976022289185 -0.5236357549234917 0.4471451787649202
P 1.405263629028241 7.426830965425415 2.997180144790537 -0.43046000479975544 0.03348861867574878 0.9739498183346967
Ni 6.001681662812386 4.709272040088777 13.572379484707033 0.14426614104164834 0.6621022585642274 -0.33175278333482866
Ni 4.181009683051065 3.2862386330643365 13.080764252016278 -0.8810936563339085 -0.23942112637894253 0.09949732146638993
Ni 7.5007936873274055 7.323423590310543 10.805857237471278 -0.04828583158958136 2.3376750192655935 1.9113547476658244
Ni 1.7897199850008165 6.787175131781388 1.004607564485157 1.1091085977584383 -0.8109231088560938 0.19997371901659752
Ni 3.6873880944990955 8.330889486314268 11.067128211997595 -0.4173851738936683 0.3712567549667219 -0.35610190160315447
Ni 1.8475887931117285 3.431945195211258 5.19085736594743 -0.5764534129451556 2.434890229566026 3.117985802552469
Ni 0.17407922401071704 0.3986272389942026 11.863396832439637 0.3724651734525263 1.5978807080355255 0.37736749585015006
Ni 8.85286969317524 2.8257036596011815 13.884473147786863 -0.6841715796594411 -0.4539999969032245 -2.086824825114103
Ni 9.244918931105095 7.7825448459246855 0.5120120916699544 -0.575966188896092 0.4068979012090992 0.27356614769176757
Ni 5.763549785397559 5.503360164590188 11.12688634634646 -0.08690045863798582 2.2584570168735296 -0.6253622228307165
Ni 5.391170886545687 8.650698678396559 2.3396112888914375 2.0281666491512618 0.32415337372101594 0.2136872119479481
Ni 2.4783971872370993 0.8516966587301871 11.637409821208513 -1.4787005634282275 1.0081282639886187 -0.07851223457429059
Ni 7.022872793032353 9.028807347603369 13.39871033249623 -0.07712178198466718 1.1649704419230646 0.21298067279922675
Ni 2.7249177480473925 5.565030094864671 8.33706958665952 0.3871883385953138 -1.6095740852130536 -1.2401993777603932
Ni 1.8774547529683552 1.5823247678396901 7.205110386139955 -0.07431619421507202 0.5978156806710155 -1.0640222469427612
Ni 2.5606456064660854 5.295131696511431 12.59353528960541 0.2668712521700953 -0.9544192045009369 0.4907086651781678
Ni 4.795714801015497 6.7809585181936765 6.079865877284706 -0.3170285897507766 -2.807994836374764 2.337854482266251
Ni 4.734456815014898 4.254532373569589 7.382630281074594 1.0890017997062342 2.625038992072402 -2.002511667587319
Ni 1.9008419528811618 7.363859665740251 5.906005732728738 -0.697569598232902 -0.7311376639963344 -0.6313922310748803
Ni 5.628909544426352 6.587475782646013 1.6040332948364175 -0.49076394389613537 -1.9788911999549015 -0.6280986479252731
Ni 8.51908248289046 7.791869766306253 5.813498028606055 -0.9266854860310942 1.7659529503578362 0.36256102696493686
Ni 5.542111013444916 1.807162080051881 2.90153511052743 -0.871377457487409 0.2645156074537251 0.42888983209915815
Ni 8.09016423244794 7.6462287407483585 8.195930924767787 -2.2492342127236813 1.3243940074314415 -0.07390198949578886
Ni 1.104628570421301 0.24443743351621836 2.034231381238937 -1.4862467512066015 -1.5996897362198064 1.386600305756857
P 0.49321900664794605 9.251650475035163 6.750932461812426 2.608456662233688 -0.17347541561575283 0.5732076523143483
P 5.73144621914415 6.22858805876386 7.98278440380104 1.3669539922808394 -1.7109907351893434 0.6297788638411734
P 8.900954824781396 6.0123266773443556 6.761455765536203 0.6008686085647265 -1.4654354708882051 1.1168805283943732
P 3.221319960448083 0.7144883197061055 4.510774819243556 1.6572238258805332 0.18441545956702432 1.666057622122079
P 3.9389924221439183 2.315744735641747 7.436619323115102 -0.36333621456806453 -1.4376701278494788 0.06940461584606758
P 2.8464974830624876 7.471573730991189 9.062343356445512 0.7921458282485907 2.303634898961749 0.32708237444235283
P 9.021317451714559 0.4597597692386632 0.1312342108157702 0.3609944538087654 1.9802968220531767 1.5560429460641332
P 3.1311322515769593 5.472848201213152 5.6957091171476835 -1.0434084273471513 -1.0499534275545208 -0.049771672106488474
Ni 7.892346719654628 0.3114504682703803 6.982248533968438 -2.587754910909963 1.7811432849450293 0.5281614107079873
Ni 3.124391345277031 8.888381162058057 7.016218020535145 -1.2980556266472292 -1.0769021882292227 1.7663221607717967
Ni 1.7797771482084224 2.531135416664177 9.297100099525444 -0.7596959352500013 0.23900923565250454 1.380069703727191
Ni 8.556082568581177 0.2783011253034969 9.807322106077972 -0.816568222957013 -0.6382131106514557 -1.3401697822084595
Ni 9.153972870275231 2.2788008241701956 6.028508597412128 0.05370288884009461 0.2794238920241252 0.44871072347982727
Ni 6.513625409182355 2.3398153885544075 13.540999629643881 -0.9478430939453159 -1.7409548856516015 -2.562054163709749
Ni 4.840841423745571 0.5701430461369748 6.327763642701555 -0.13313017902948684 5.15175308571996 0.005556925262487204
Ni 6.738809129079403 0.15201211824831298 4.271908932031626 0.2832010996783703 0.0925460869595374 0.8151744279332801
Ni 1.6031373160407185 7.571751088504012 12.432732842294593 1.2432214524161684 1.4234637544421096 -0.008402622241398433
Ni 4.567235526927372 2.7815226362270686 5.126084746301008 -1.0326470750655894 -0.9412417865787144 0.6061288285224012
Ni 1.5434802952863536 4.1646723476436 0.8028110445009156 -4.22842314642466 2.3486124921137037 -2.7973299004617505
Ni 8.73319051924193 8.314664499345135 3.579863149119351 0.43964372818155256 -0.07401331826267253 -1.7012562815103993
Ni 6.7187549328371166 6.761381802814302 4.592032699741247 -0.2247468121962194 -0.1742025235897645 -0.9656816647886336
Ni 3.80100045276247 0.6090333943026304 9.37682255136593 1.4629885520096095 1.9901469753743788 -0.8001967235775251
Ni 7.333151092596134 6.680631362763078 13.55583992211057 0.03662639297378208 -1.326842468971934 -1.0365836911158341
Ni 7.331615663938928 4.456534865690772 7.115577106922116 -0.04908621600368966 0.9095866215672787 -0.04303589604455169
Ni 7.229893515399039 2.7235789291572683 4.550170735381706 -0.3666999888339749 0.0506515036082805 0.03834543254741783
Ni 1.6924636868846292 0.20176468792671412 9.18144861710634 -2.36761268736529 -2.474566207999409 0.30095276723483655
Ni 4.6534067791281215 1.3443895001919441 11.684466028366943 1.63873476593741 -0.0267196753830314 0.0765625670470875
Ni 7.8115588301239605 4.800143201959755 3.0921136389442077 -0.24666520953586552 1.1829062004658788 0.2772137717466839
Ni 7.920724062703354 2.2143502700469924 10.997956214753483 -0.8886802104319146 -0.6765361746013704 1.4466692460242956
Ni 1.097850214641929 0.6501341979924707 4.714028123978171 0.8461559639164588 -1.0866952630602447 1.2941979434640356
Ni 7.742839035344136 5.792432696418779 9.36277712410044 -0.23435476759962864 -2.950052656911184 -1.2653126278882532
Ni 3.536878636613475 6.97712825389145 2.9216230113012163 -0.11350006350338518 0.7674784074088976 0.047264846524234724
P 9.116785537187294 4.010193244936911 4.619863280390089 0.9858601966190377 0.350164710183113 -0.4989652487600052
P 9.833671559814803 8.0344394070352 10.75384178299747 -1.1179472790959908 -1.0101429804258022 -2.630732442912753
P 5.146981555830786 0.9205278657113574 0.9090252581001187 0.2643389726665447 0.0885279669390798 -0.6979969155783076
P 2.8216872029308075 3.8397232145076137 10.969414093995203 -1.2266440076734617 0.06857929173129479 1.8382456863849759
P 6.309619369910915 3.644770586891771 11.55961976250734 -0.8734142854117797 -2.756035155478021 1.5220768735313335
P 2.977664284815259 3.1033915496787823 1.4089327417767714 3.6972651149821933 -2.4213070915649526 1.8299747046254355
P 8.814306091717734 1.1545861759996585 3.619081180230142 -1.6879248545088157 1.198336676088336 -0.4755913499207551
P 8.572560339536556 5.07463852391475 0.7595568957430425 -0.07161267924097989 -1.0299661857993165 0.15887334943186188
