# total energy = -340888.33845617913 ev
CRYSTAL
PRIMVEC
9.09723412864217 0.00000000000000 0.00000000000000

0.00000000000000 9.09723412864217 0.00000000000000

0.00000000000000 0.00000000000000 13.31472170978532

PRIMCOORD
 96 1
Ni 6.6936265776138795 1.8273068277719426 11.26361575345652 -0.28023970305720125 -0.41056378009646066 0.2919685614583552
Ni 4.61057830517129 0.28707959665561594 5.982930636775476 -0.49153373218262436 -0.017966097560117446 -0.16408523265010452
Ni 2.858305464153883 1.69389588987727 4.63741059711267 0.4546890525504492 -0.4121141553027161 0.03184979752074515
Ni 3.903241063158028 4.5924475176347 4.9950574385858095 -0.4193183863606391 -0.18426916379714717 0.07982658251033994
Ni 3.5007703298884603 2.6071308309952115 2.4175144517371123 0.6651325607501191 0.9055793001800985 0.007553129756909573
Ni 5.312739220988708 4.315764240094396 2.5156699686486945 0.08856421949365392 0.3295562899041421 0.09993903698949885
Ni 5.074091479168662 4.460628595705359 11.552199122906815 1.3476655763648726 0.49324171601266664 -1.5868707300782672
Ni 5.436670840964099 8.050488139013698 12.47862414372837 0.7690676062728884 -0.07639287423844263 0.21856305198301065
Ni 1.8662338924327884 6.598587773100709 -0.041562533376023954 -0.18897171147913905 -0.48161184508322225 0.3820127079316453
Ni 2.4626212675136654 1.8407070535829793 0.287041388272448 0.946881501362995 -1.3750701936300704 -0.6563270466433471
Ni 7.717438399066615 8.803138704017302 6.997352293202989 1.034345802924251 -0.08825954376904155 -1.5826482073564871
Ni 8.838208541425004 2.4952621434199784 1.2859568091976448 0.19971840847268185 1.0941247227550963 0.4083053230795871
Ni 6.775710920786306 0.7059853930278445 4.927871635678647 0.9307424297092874 0.4241034664541083 -1.1752116600350986
Ni 1.0572532539587576 7.58274475116559 2.0987728415630085 0.7674131013886009 -0.335464427858461 0.3772885629830986
Ni 7.936790907386857 4.229376905198534 3.802644758340742 0.2836173612801825 -1.2246951114772069 -2.0256783355117696
Ni 7.479918714273434 3.747687457494134 12.569630144370509 1.231964905665743 0.20515603454848538 0.2836500142903309
Ni 8.129452130894077 7.115574489065002 8.933059942915971 0.1385991725638581 1.137806479913763 0.8704274348693138
Ni 6.910959499966675 1.245065651697286 0.3509776591635186 0.5519014346374043 -1.7090348970145532 -0.38645763107687636
Ni 1.95505018883004 6.8878161364478165 8.859323221742327 0.8207624635440187 -1.3168894715242805 1.1600269818748603
Ni 0.06700931656586223 5.197668307014639 1.5416318440594523 1.399128777241171 -1.624184378927061 -1.9387318541271963
Ni 6.774037029714187 2.09563884441983 6.960803245532642 -0.0047249162794950885 0.48803780321422396 0.35713934172873335
Ni 3.477163007431135 4.420364237633635 0.294201821222799 -0.12451801188044362 -0.10496194412538698 0.036958579502220215
Ni 6.176503403138272 5.636782699189065 4.440606493201956 0.19525883003943145 1.0929003634296919 1.6490999112218179
Ni 5.412081017225312 3.0274412403105657 9.29294379425125 0.18104320066068175 0.3548369188478018 0.08574474776698782
P 0.07172987133391855 5.5935526428047835 12.451794580957216 0.3429129137167062 -0.6689665897842285 -0.8566026131710796
P 3.912966006397674 6.2238817982665005 12.589495774447604 1.2983711010051189 1.9246769186960273 -0.20419444196616446
P 2.452841740869494 8.977841987435596 1.181290401849566 0.48623031769184 -1.1496600368182395 0.5911256702453497
P 6.291301400089713 7.735842103625832 5.676052729575013 0.1521082627938864 0.5118390193988799 -0.40323022254952495
P 4.861516410243683 1.1818944581929827 12.616031496557728 -0.30936978765393813 0.7440011502225639 -1.2137337273696969
P 4.137986091554492 6.2053962186004945 8.335801052809503 0.8701662107881272 1.4519094113773123 -0.1282895631077339
P 4.832641789249638 1.2552454566413116 3.4465553633434003 -0.26856972291844067 -0.42555871084339614 3.0603285570503163
P 9.709659886378594 5.884254758074082 3.3653225212815734 0.4286481484019973 0.23960470314465832 2.587767252205137
Ni 0.3269673292361125 9.073226486844096 4.701495152919368 1.2041293715107133 0.9862116664211854 0.26918010280892996
Ni 2.262600381629576 6.380881864150322 4.886835832156296 -0.292351912939703 0.6569322843275137 -2.0334086142764916
Ni 6.119709370729378 5.833401219524391 9.352513392780272 -0.6684238299068811 -0.3163238503742681 0.28127842873436076
Ni 8.719316789134144 2.4572266076997176 10.138455285927455 0.9761355131321059 -0.44675000020903055 -0.567012836357546
Ni 2.5228904433440236 5.535521386559975 7.082260417836206 -0.9874056867292867 -1.2810994584088646 -1.3880092702892417
Ni 0.9372516391092091 8.935931029994018 8.787037509405657 -1.951069806867259 1.6964963982279107 -0.1441249874780937
Ni 1.6488190949732056 1.370070745295015 11.189931796240586 0.153217179587349 -0.07164250403765082 -0.4811958405917261
Ni 4.039817838515186 7.277514353058392 1.4257940332517989 0.112414029528058 -0.710340524745325 -0.4294091949377378
Ni 5.741282627153341 8.102315081610762 8.053715837667978 -0.8612223713312781 -0.6297104724970832 0.4295740026503763
Ni 5.576631787401845 3.0659043460329443 4.7674027944372215 0.8179753877171847 -1.0445947343457687 -0.33616299658738236
Ni 0.6978652018812516 7.584891698410265 6.613781973473822 0.4507064137536173 0.08613067035149682 -0.25615772240733303
Ni 5.308609076712936 4.601162667890623 7.247256042759622 0.8069299285363006 0.6135600879894659 -0.335690427826338
Ni 0.6874197577018677 7.0252662462773845 10.94398261434183 0.19535113264292164 0.0726920283480877 0.33121876520822957
Ni 4.693554177284301 0.8384975241946622 10.310094620905046 -0.2694022461220651 -0.8406062377428233 0.442060050932529
Ni 8.13019810408926 7.2186370540434375 4.2944366844994235 -0.048296373112542625 -0.44533306525684596 1.0387015087897853
Ni 7.436161018312072 6.144608500427142 6.75739454967433 -0.31881884888198 0.6756242043100623 0.1637540745629309
Ni 2.6827197490290904 5.3469084322217375 2.3083330871113565 -0.4830053829966391 0.6163175961299451 1.1161950722915743
Ni 2.7029792893421787 5.237577872956946 11.174300018907859 -1.237211498776663 1.4706352699215899 -0.17181191187040087
Ni 1.476435606247249 3.5884221803224987 3.7188283017980366 -0.8389010821262585 0.0737001578976279 -0.35902524589753654
Ni 1.3687789380545756 1.1696677755792464 2.560341026912452 -0.16715847225878952 0.10927754078160534 0.339989312312008
Ni 1.1634179757610643 3.4933015007025396 7.891409355140858 -0.5380097642569767 0.35386015675682925 -0.24637210377547894
Ni 4.082865950217715 2.6888148958677833 6.715253432210335 -0.1165355078955993 0.1612495629735223 -0.08435815183210632
Ni 4.285306700369106 6.848834488382445 6.007429488173385 1.0463081174924498 0.607092220876935 0.5699654912279668
Ni 0.5936345520459687 0.20190765223385776 -0.0801839309715264 0.7474721394902998 -0.9211542718002199 1.5216531557303536
P 0.2927808332583156 5.871464046946914 7.8686407976664094 0.849111447000357 -2.4450774545116727 -0.5377048314220482
P 8.990487142817361 1.6253209393249315 7.762229540820329 -0.45184644089533155 -0.11526229761013053 0.3240932099070418
P 1.9293686970007413 3.4838494744855217 10.12699095153026 -1.982697461074869 -2.5785681022043723 1.1147516549768284
P 4.386731763211773 6.127696742258292 3.5307711884625514 -1.5311238142249501 1.41636622416538 -1.2134863872455812
P 7.037756748679661 3.884919233705599 10.496341384657097 -0.6643265199090559 1.2603259733069392 -1.686235896842167
P 6.6609493127712165 8.02093122546308 10.351131334150805 -0.8892875049986104 -0.5997895165679348 0.8465058910567099
P 2.5237000971778203 8.404970962471168 5.661339772885136 0.18756197561580604 1.1834399614821618 -0.021287191513550435
P 7.2701455934474355 4.18410906837863 1.356636859717854 -1.6993120132998345 -0.40578229954741724 1.946682476432841
Ni 5.343615233482026 3.028505616698815 0.4204759789757485 -0.31134542332307025 -0.9222066243241344 0.14941400379117495
Ni 2.0175481870118603 1.3071542743451645 6.901179973322503 -1.6274782191869843 -0.8413122626709124 -1.572220070044628
Ni 7.515170496362888 0.4594749117858864 9.094407576970259 -0.7014501642342307 1.471803064977446 0.6300292892890826
Ni 2.979480622200732 1.8991658798299051 8.832706534248823 -0.05673859034262487 0.8726563241998326 2.034601091922696
Ni 6.585669700696315 2.017266172755145 2.5686358849535265 1.4542586283357792 0.7354530035422366 0.29179012689896205
Ni 4.218596682804726 7.45596569692078 10.295794678642745 0.8131093178741352 -1.1884690392656372 0.019102782267721937
Ni 8.509252556817342 7.233520129010753 13.604316799451562 -0.8004569192174472 0.7574215373935278 0.09634643454223407
Ni 7.662927772413708 4.152568957796916 8.341313976666589 -0.057693498056726446 -0.19163331747170223 -0.7979727193430127
Ni 2.962259558072903 8.524144729018746 12.361240712849233 0.8352902248465486 0.48160593154595116 0.11245053919294827
Ni 0.20231611804439106 4.766222883176061 9.952647918581832 0.10925260108094088 1.371453937033722 0.8611480664499169
Ni 9.05083819375451 2.535217195532723 5.692403188400658 0.07196234927091477 0.2920832326593486 0.0990581770464423
Ni 3.389729490615199 3.026158530304214 11.728232421948718 1.0710452152278134 -2.4194834080926526 -1.031354581506411
Ni 1.1580142187130291 3.5043637373530627 12.38053412690222 -1.4851188082497455 1.4671915343473634 0.19906843359350876
Ni 3.30496146338693 8.797598488457952 8.184998932509561 0.8943515497850791 -1.108772297464942 -0.5412832928019259
Ni 5.854397635798574 8.268576131795763 3.2539050565170857 -0.3591118920740719 -0.784448716714649 0.20312512016138567
Ni 3.2769328851630304 8.623359163978126 3.4348654175408324 -0.15403401906168954 -0.41142304277296243 0.2856595885211919
Ni 3.3356919201348476 4.322095915019366 9.015411744770573 2.1929280819327843 0.6020217483325632 -1.372157905079282
Ni 7.205573425893642 6.191250019594274 11.616575699927727 0.23772471251312607 -0.00719626063812309 -0.6306352983041978
Ni 8.22133419517885 8.763301915947695 2.445248279576573 -0.41598135156760613 1.7291450375008672 0.04233501332278516
Ni 4.667481504389237 0.5421114570674301 1.4731278519329973 0.13287898225062922 -0.12924781325594514 -1.6884390751410727
Ni 5.775097046256954 5.374309301293593 0.21562537151455172 0.421793587374009 2.008286622397883 0.9604738953354491
Ni 8.675859301897672 9.050747221413634 11.155593376453524 -1.1183846237437256 0.34932061701526296 -0.33455631422189475
Ni 0.2719072296443145 5.150963107208894 5.430342804932764 0.42512573707103557 -0.2404673082552697 1.4983211658726325
Ni 7.21483441019482 6.297587588844246 2.290331480298811 -0.8096969497584765 -0.06469898284028212 -0.6458945384561133
P 8.594575515324955 1.7536101344282846 3.6561829284239966 -0.4108591998496924 -0.11509774700780823 -0.4415031499877945
P 1.8634683332701576 3.5103224256804415 1.3456255675782214 -1.799277789762211 0.6833807083270296 1.2530322678590031
P 4.992234566848427 1.2716568669353443 8.08295434802553 0.6236213288802098 -1.220634568254588 -0.17558680553180084
P 8.761191357639373 1.8886858661609884 12.465721536621926 -0.7439080762881254 -0.7086312553637022 -1.6111655980698896
P 6.662040980861729 8.139959436265256 1.1147414053285363 -1.1068074604290874 -0.1949137879951869 -0.183890954522122
P 2.2280036003944286 3.504900474164231 5.800784906150114 -1.152158891980693 -0.23285015802964415 0.6345778278917136
P 7.265760726617212 4.221125713881079 5.852059646638062 -0.7593192686368729 -1.7166196513403467 0.755342286266996
P 2.4116858538571857 8.580956955895816 10.258873554098214 -0.4621143984802428 0.6966949089374324 0.19912062698768287
