# total energy = -340888.76740704646 ev
CRYSTAL
PRIMVEC
9.08961042031896 0.00000000000000 0.00000000000000

0.00000000000000 9.08961042031896 0.00000000000000

0.00000000000000 0.00000000000000 13.30356364204098

PRIMCOORD
 96 1
Ni 6.497798770133359 2.127314199373963 11.300153447019774 -0.6544018045961761 -0.1459664115622067 0.09602581797802172
Ni 4.5855629280585815 0.5432669153588865 5.856587668685314 1.4704398660813323 -0.8561891797827447 -0.3760462059355652
Ni 3.0595173558921154 1.8514899768972586 4.588837914625013 -0.6656182421372859 -0.946677355771989 0.21739757091999978
Ni 3.449143498467958 4.388118414608623 4.701399102927542 -0.1562829629968663 0.7325911086134093 0.2782275577231789
Ni 3.7687160149891628 2.8145432705413276 2.5067636143345498 0.19749877511354372 -0.09204497895340276 -0.4849751051285003
Ni 5.1884131474463695 4.695147269010275 2.317467027496163 0.6153601173126821 -0.48209958335291814 0.5476020359311021
Ni 5.304760158410344 4.636092071335827 11.532233920257093 -0.18267019474114346 0.17577809560700053 -0.986142760856463
Ni 5.679233920730176 7.958090101884716 12.239663741203078 -0.19835032448056164 -1.0780501857907367 1.0232661480713217
Ni 2.1858876477061386 6.511660425736489 0.19834438486288228 -1.3084061166436176 0.31059260431744573 -0.3631585513396197
Ni 2.770940410260532 1.580928638744628 0.5355734692588936 1.0476116667952216 -0.00030570416587689285 -2.199567184515857
Ni 8.492640989992559 0.025052783720227127 6.484422499716595 -0.9684263174133063 0.1297476357104991 0.5225756890900936
Ni 8.81283160000951 2.4964069124367096 1.307448626746643 0.2073088192254301 0.36987864367227263 -0.8934084691455194
Ni 7.354694505883033 0.5845628325629122 4.406605772858595 -1.8738387529982374 -0.2883296791541873 0.8483668555248486
Ni 0.7316809010437888 7.651115785144453 2.4611328620110924 0.37036509639038795 -1.2075844199388492 -0.1671021650995574
Ni 7.493374689185952 4.3743385654975775 3.7527492056564036 1.1961697503440045 -0.7186837545036977 1.2762855819599892
Ni 7.698690805096441 3.9352376744313515 12.479580367421025 1.5004523532830223 0.4035248709718082 -0.1768823844147728
Ni 8.142272874006826 7.476140788186913 8.916340445482428 0.0019512101890998652 0.48432178781521745 2.075588847188967
Ni 6.5767511246046935 0.6626316769197393 0.13525976297278275 2.6309432733719786 1.5061270350702967 -0.5301396174802805
Ni 2.10528098417266 6.298063674905047 9.262978185429128 -0.6794590046751201 1.2476800024081545 -1.0945726089257923
Ni 0.25671695280894086 5.147782589711294 1.0786413221537088 -0.20746771340079753 -0.5240257912730588 0.4688591734032442
Ni 6.553808948380235 1.7714923172492945 6.782502632845274 0.3314013135326809 0.40602783989932006 0.19142582944658645
Ni 3.5560009563501835 4.401880084499206 0.4261254724606733 0.16781744599902712 -0.3256302153768585 -0.15502080845499108
Ni 6.209930814099836 5.9700469104787235 5.08130936112687 -0.7874196264175148 -1.4842433476233277 -1.1255549162399197
Ni 5.395283586706457 2.9575955563656278 9.098972530099037 -0.18397605803676056 0.36935079619326067 -0.002326848360963735
P 0.42694171945946746 5.911264401111222 12.31309961122488 -0.34084111878934203 -0.9049771478197254 1.7769711558452104
P 4.056629419073842 6.3653631490595215 12.38999407793979 1.1750669069271182 -0.37178845910047587 0.08462117568550588
P 2.288836573188793 8.44535683756798 1.1110403288630832 1.156019146267048 0.9285760181855879 1.0110881179478908
P 6.557053939232902 8.000711284260502 5.7646199013234085 -1.2129536546705626 1.4524048629564923 -0.2364476455729154
P 4.725261147707435 1.2991143631253252 12.604248007590972 0.10119347822189023 0.5647926887777758 0.02404829919845536
P 3.8915802764891665 6.250779522480469 8.084149361381112 0.05550368949425925 1.0682473407677022 -0.11566878901992982
P 4.94942911523818 1.1951746701274306 3.5852840446721785 0.7146288677080338 -0.2388868511420273 -0.09180740902129995
P 0.304783720674456 5.636849068220409 3.628054296655764 0.3062492397470855 -0.016209005659694666 -0.36787318320646967
Ni 0.9246587800259578 -0.00825791089537274 4.513393240742037 -0.3631462100444455 0.3889287183251882 0.023287509773030863
Ni 1.9380321559119462 6.809027024461991 4.657817148750278 0.11499567421230518 -0.1772618792413786 0.06390939705945121
Ni 6.233800130567914 5.6397486538842765 9.26573233732929 0.6925346069121556 0.9148113603013277 0.7025433972984094
Ni 8.76961050335844 2.5754138045694335 9.988488150086711 0.1296162523389574 -1.0120569096190635 1.3242793362304484
Ni 2.4195269890981703 5.248813607435089 6.693115405828109 -0.2832831178692154 0.11752229728890083 1.0763763976327398
Ni 0.636692656201935 0.18521171600032363 9.058928252223895 -0.880341351548916 0.061283529400829935 -0.27492034772681684
Ni 1.2929697866087906 1.0542402634870847 11.437591989565062 1.236870056276844 1.0681637799149604 -1.78439213089963
Ni 4.060328890438088 6.609473721438311 1.5264246089131215 1.3232282692581145 1.678604348438838 -0.43761152824287214
Ni 5.736571182070859 7.955399577256173 7.9634729690638455 -1.014401241481524 0.39511479253124215 0.08028552442462947
Ni 5.387521059568703 3.291847793410803 4.454578008777701 0.9457545868474034 -1.3109952175270325 0.5578121436948845
Ni 0.9612899092591467 7.556692914059002 6.927324665781659 0.16111380872660638 -1.4060393883180753 0.09748774723552887
Ni 5.409136152699355 5.0657397677612295 7.31854330807007 0.35445896668309274 -1.2940691311956551 -2.1463443206359747
Ni 0.7682129535254537 7.332470408866867 10.841179941104288 -0.06664067994768523 0.7873358084544569 0.29430132335658993
Ni 4.609532230239207 0.23307033179153613 10.413151104261125 -0.632149420955879 2.954572142048092 -1.165325254159322
Ni 8.212853697454893 7.2002438488283556 4.5790329520682285 1.2919361440130523 0.6908106822425135 -0.5974788661568871
Ni 7.505709290270179 6.635715426176827 7.013239661690369 0.6818588723658644 -2.213363466969001 -0.7746841811287175
Ni 2.3709066639695533 5.332701620262162 2.6656881775452 -0.5137334082081152 0.46618856854961654 -1.3416949606037345
Ni 2.578604257760712 5.05607751208508 11.492602310686467 -0.31004521645440797 0.627402393189197 -0.23307153001183084
Ni 1.3843658174871314 3.503199410515048 3.6246620541173455 -1.7531509134971615 -0.937249891810502 0.16681780108991914
Ni 1.5161378970140644 1.1271662063748948 2.37211830901342 -0.22258991375421663 -0.23244160973731579 1.0621180879415126
Ni 1.1074144833417137 3.4248924183701543 8.207978939487708 0.4514476627950161 1.4392017340026568 -0.4394683789459528
Ni 4.0001829395358515 3.0213409929195616 6.883542740179301 -0.3664019979775819 -0.5383149542022213 -0.22936348503262433
Ni 4.149579773301781 6.945289371443315 5.80084563394027 -0.1660331004050947 0.7213942114563253 0.697324057880999
Ni 0.5898002659783373 0.2647085381245289 0.07456661753460679 -0.6216127830906133 -0.9675104904672562 1.6096149657533183
P 0.14907324364168525 5.638639721436026 8.125816134682585 0.9170207092478206 0.39165485900709973 -0.6969571614598835
P 8.632339209641412 1.6952577562371962 7.866556817891877 -0.39304891114114887 0.0609675408223079 -0.11228007505335502
P 1.7956434116345508 3.3019827088189926 10.414628165923755 0.6419905754160169 -0.7998120865445968 -0.48649719819998155
P 4.140890105920408 6.176880991297883 3.6676331864870475 0.44870660971476917 0.8802199954797034 0.6277538629913446
P 7.1504327847594045 4.02719726114405 10.247362067403602 -0.7476436320711576 0.3173039548993503 0.8393006315575223
P 6.379697464394693 8.109695710936913 10.308691485557986 2.264846465339641 -0.36545480357296417 -2.499967678791649
P 2.6418952138030676 8.783699399217358 5.735618590918592 -1.2289333179282704 -0.7752840194962455 -0.09761090307695447
P 7.301111253567983 4.184683848016067 1.5688621811622312 -0.8652893423118001 -0.22950566703744343 -1.3847640238790666
Ni 5.711302065627121 3.191289435419049 0.1951748377751371 -0.6625881970617106 -0.44910744469761366 0.8536237330484139
Ni 1.6690524099396074 1.3573969439300912 7.2163451843925435 -0.44879634121509804 -0.22883280934013495 -2.769326987490921
Ni 6.839531756399109 1.017563686202738 9.214473298350452 0.240097840730993 -1.3555966582864911 -0.7717245842797612
Ni 2.9268181361215637 1.948894240138661 8.97366589032981 0.9638880632233205 -0.7317215615242624 1.605031203037378
Ni 6.70178780295004 2.2079208629074416 2.520599819029031 -0.6344287039083589 -0.11127991592361479 -0.019874627436739966
Ni 4.509382904707873 7.071753118595017 10.13462817650667 -1.5153364694837064 -1.8886969010569925 0.175063328928163
Ni 8.234605134739018 7.352067608526112 13.518150142868901 0.5519001490858236 0.32588192637634844 0.07497902461005153
Ni 7.825036387315133 3.815272998595216 8.122503880714206 -1.1999420729022432 0.506370797195457 -1.1894239469797387
Ni 3.4430443700025806 8.706628594063956 12.333587592686817 -2.5200675348653183 -0.9037617873553855 0.8012606460656653
Ni 0.33781354633390065 5.030317556688837 10.39807871257515 -0.9402105171007227 -1.590481587357977 -1.1358570694968761
Ni 9.107425867614387 2.293926754918467 5.489529210392392 -1.5104436601677793 -0.5123177588075113 0.02692793473909556
Ni 3.758617458021899 2.8169429276424602 11.433787078722132 -0.29442627897022844 -0.480093865776799 -0.330883750466314
Ni 1.2033189608949089 3.1727284513262024 12.56864764015804 -0.620640391875015 0.6712913812626633 0.459423481911641
Ni 2.8502745283615925 8.535825728202703 7.986168816851029 1.9005165193997398 -0.5370970226347201 0.6868046464069139
Ni 5.693122845164 7.982032135234645 3.428873667651578 0.30084195268858516 0.04042236968110458 0.4887721102770873
Ni 3.3724817257749766 8.529481180261074 3.16222995150875 -1.3815527160306205 -0.08524466820211771 0.7432084791179394
Ni 3.378871721767763 4.389918157434472 9.175454328509431 1.136001051273908 -0.8617923849021352 -0.11860241772695701
Ni 7.55352972969842 6.379733822835619 11.319337069413484 -0.7435270387996227 -0.34205365104020446 -0.3019549832471058
Ni 7.985440739071481 9.035081659781396 2.0702341740028323 -0.2131629640133619 0.24749053365063828 0.13299211078972578
Ni 4.753929778377777 0.4078035451169168 1.470987985071857 -0.7885329140863516 -0.21676379399074283 0.2787618329600941
Ni 6.262696001494046 5.7913542629364745 0.08768474302079493 -0.8023284252085472 -0.02433240609777745 0.7224177676248332
Ni 8.23385978670003 8.947003336637575 11.097699649371203 -1.099022931387662 0.4621581072339847 0.5668603699400817
Ni 0.14014724639429285 4.7706092131526905 5.854778836249235 -0.8407882718466424 0.45268256364338166 -0.09278674221543375
Ni 7.138679918729998 6.215220967254606 2.3835194071268666 1.0014107427591268 1.2433654341932006 -0.017108891766144725
P 8.753067412737 1.7045382482836196 3.367943283386358 0.5942449326006217 0.25138421227808966 -0.023837982959862173
P 1.8742230920863914 3.3195347461761364 1.4569663523286516 -0.23962912862469052 0.707359073519498 -0.23909048251240111
P 4.686975709412102 0.9752969986259815 7.992275217004591 0.7556356491376987 1.3005285136677536 1.003864346505942
P 8.363659420806714 1.6605990724242559 12.337338874829381 0.1849142535803138 0.9257575749001863 0.4320975404031784
P 6.277484797340795 7.851259912833185 1.1294886017890584 0.025269316089750027 -0.675033879024231 1.1552509006424556
P 1.8649698688706629 3.2261662698775466 5.812194012314373 1.288398048952807 0.8937936203990801 1.5141930999078825
P 7.005317157412541 3.751672995804987 5.955207212814678 -0.2801090910166079 1.0112950917523744 -0.5526552820842934
P 2.265158138535578 8.664443712979283 10.202515748443126 2.7386120749055674 -0.21564356434337054 0.2451593144143004
