# total energy = -340876.4460366488 ev
CRYSTAL
PRIMVEC
9.16407859107879 0.00000000000000 0.00000000000000

0.00000000000000 9.16407859107879 0.00000000000000

0.00000000000000 0.00000000000000 13.41255533730279

PRIMCOORD
 96 1
Ni 8.142833764523754 6.353767337368677 4.067384687636427 3.7757827488731235 0.2748912942610943 0.12771826398529618
Ni 5.325640184587003 5.552762710944207 1.1852031272318442 -0.11279223880308316 0.6610465636062034 0.20701905589915315
Ni 0.773223721862985 7.464059619722604 5.726557630564086 -0.03939032887216442 -1.0765265500573589 1.093614358777581
Ni 4.631571192445223 1.074369093872638 12.674650294751068 0.7356702617593652 -0.09672207271409794 1.1581181948879216
Ni 6.2388864468581104 2.116489794820365 3.1175343458370524 1.1631513864364547 0.3640797776023085 0.5039717008356611
Ni 2.417328170193762 4.413237017555764 11.55510412573173 -1.8635934211211451 1.4604277332609685 -0.4186249598380403
Ni 8.207825410623064 0.6353849814076926 1.8356153648822957 -0.10688255818686752 -0.9368148611556123 -0.41623769055278637
Ni 1.2267585584785912 4.611089476563673 0.22188617179133413 -0.892811716101785 0.9861052227503081 -1.3836394233563203
Ni 8.709897790042533 8.187948523935331 10.93477389280288 -1.086383645357097 1.0801813732011267 1.0826144081226516
Ni 0.6431506216931628 4.216832482981539 5.08675189759431 -1.3881733066709319 0.6766798992680862 -1.4134032848823144
Ni 0.33886380350713585 5.222681760457598 7.239748632708783 -0.4201012872732507 -1.0734715652811189 -0.5484402155616813
Ni 7.388217704449354 6.932515563222569 6.6189079605966645 -0.10165293435681202 -1.0825724991411227 -0.23747685816837813
Ni 1.5057131139302242 7.945256227876671 9.715411662238383 -0.4659893080546168 -0.9643611462049972 -1.2764357343846082
Ni 8.392866487616473 2.4027389569125863 10.960283938663942 0.2530142916823449 0.7071351304341499 0.819843037053543
Ni 8.153015055953016 6.077012160803654 9.792841712349338 2.0471930696550933 -0.1118293606691816 1.1202820978767545
Ni 6.3033282482357675 5.466024706103547 8.644727444408685 -0.5484574419528618 -1.0691055750029395 -1.2722373800325442
Ni 4.288651367708032 4.455923296113376 10.041564888596655 0.27688415632140706 -0.9243828060398468 -0.9426180981009509
Ni 1.566452627515422 0.8204828756890058 2.3372313731827927 0.12974429327638948 0.5696577301795609 0.5178345748606823
Ni 4.55103726888054 5.259961232585629 12.336586515313934 0.278315746561611 0.39675567056877475 -0.23767149067768747
Ni 2.376905419073619 8.646134130488246 12.010996879795357 -0.3679004368999793 1.0005581649508446 -0.4490837905485298
Ni 3.2673606176322356 6.640740461677741 10.458681676481486 0.7104454257543055 0.23692149988554034 0.530038573126042
Ni 6.938371409508166 4.116513313516065 3.9221267090703047 0.8904694411218534 0.2632832777085207 0.9915970991028149
Ni 1.0037598675337802 6.492749754845008 11.77718915803073 -0.5658792369737351 -0.3106705087432327 -0.3211801500253049
Ni 2.6004997751335535 1.3447460716664943 0.3067262959344246 -1.01821624435224 0.6314544517713834 -0.5308358722163568
P 6.4055993664631075 6.476804257917089 12.916773501522815 -0.7956939506111652 0.6457641835258362 0.48760225833870213
P 0.02041023606773578 2.1761846034344234 7.479310479485501 -0.05503394894669232 -0.3762598646082681 0.3622098142731052
P 2.75296255236906 6.7548149132632185 12.87984867924025 0.5168845522425872 -1.5592305997634952 1.6412390204165024
P 0.401401309332137 0.5750193622332183 13.025442063086581 0.08912446287249812 -0.9526852525289657 0.4892557347817251
P 7.205577616073827 3.773914231533171 1.8163148987444284 0.015824625737082425 -0.9554623010534706 -1.1981492426678784
P 6.877842669732935 8.266347217164263 4.719717716181183 0.601849484420757 0.7209252422397068 0.5621277403511028
P 2.027369129519211 3.3103493107867563 1.7322848791579057 -0.9812275829430327 -1.1538589053909354 0.8142043507105269
P 6.03828476424194 0.8249063764746991 1.4898803351702443 -0.6259232375405092 -0.26071474565039615 -1.9421305953961006
Ni 4.675063909927926 3.6285902716004506 7.394770937123581 0.9832479558071712 0.3656432654346864 0.587315295360324
Ni 1.5031929922893175 7.740081669992091 3.314255957534096 1.2448055090738366 0.9386184900232546 -1.424218116109631
Ni 3.727498172947017 3.976312073573406 0.7458946063811237 -0.33263390038820134 -0.9965585568731483 -1.2119594090780934
Ni 5.9458375383747875 2.2784190653469865 11.07859677664549 -1.2164704095745695 -1.40318597802968 -0.808882167166665
Ni 4.2384047242277 1.966006458582807 1.9249834603081937 -0.8521425205171969 0.03717943726377468 0.4609897979574964
Ni 2.5071269773182876 3.0488431611688918 3.880668417057716 0.2016073979652786 -0.11036151787440349 -1.7940299110997104
Ni 7.0654680169181105 8.091643220937918 8.926994814308275 0.24704958945847777 0.024775921393099268 -0.854595867153696
Ni 3.650015887587504 8.713645898228462 8.046608189010982 0.295309195795814 0.4930108309487832 0.2276071644631499
Ni 7.62933377897261 5.857440835290476 1.6494361093150662 0.025427953154801366 0.7943325514872642 -0.5925804004140053
Ni 0.2249946272844088 0.7423719345310708 9.390425023097883 0.612056763971062 0.7080833532800321 0.12553205496725478
Ni 8.15582842811214 5.441116740212695 12.677037537250907 1.130787882504085 -0.5117947964245058 -0.22069398228308443
Ni 7.362613268577743 1.202217155735507 12.817883011925769 -0.5430334427238132 -0.7663633199678479 0.2689286489197562
Ni 5.166515122140809 -0.017342102520915583 3.5744992971078995 0.426156235218079 -1.1688304390991031 -0.7443893867999181
Ni 1.3888619465004024 3.0430239711980707 9.15004574050164 0.8403373003521527 -2.1767221615968837 -0.3117038351037535
Ni 8.388321104584147 2.148554906171392 5.308380558774336 0.371496896001986 0.1147287937041637 -0.20237127271449662
Ni 3.1943687308328843 0.7945576970630969 4.442586812389697 -0.7711764250857752 -0.5813516215777214 -0.3078245546540054
Ni 0.25184079581908553 2.5101144669725985 0.5368711354449772 -0.6420533103331523 -0.13550947789494083 0.05160821109459499
Ni 8.300923286077504 3.7457163613910986 9.015597709163206 -0.4419345810982582 0.11442257531765454 -0.4539637443486504
Ni 3.3135750664871164 4.663251412491094 5.311116952672426 -0.34852100393210295 -0.4256335299453896 1.1179161687477392
Ni 5.920058985007986 6.750113740893091 10.601779681699384 0.09252783212709226 0.26119168528681463 1.6632998568712838
Ni 3.4069112079876054 6.904271872687025 4.851455013041874 -0.33305299020349094 0.5062707812824829 -0.36914356527846104
Ni 6.991614706721503 2.9085961008327614 6.981959433409288 -0.20981153104262576 0.06660545583437562 0.4598929653488918
Ni 5.044568726957008 8.118384002567613 5.928697961993015 0.10661310657556479 0.8855828024535135 1.1521519500021575
Ni 1.4270853187339358 1.7048577080340164 11.534864341527706 0.18911363637364204 1.5532175608001961 -0.5594249967079591
P 6.06545625757026 3.197072134047675 9.030164012247646 -0.6018451135453828 1.0457787273515409 0.8039579903921703
P 7.547736822279399 4.763982965497807 5.912254855592002 0.7881685887683975 0.7481372838781244 0.6039516183654243
P 8.6414604503542 7.649183173424261 2.3831828129791504 0.4280855910303079 0.659993953971973 -1.3941992011500375
P 2.6535597907730066 8.606609459080135 6.090976383917885 1.426258029357795 -0.059192451199756115 -0.8711928522804286
P -0.06241745639410702 7.075722620976927 8.096060306868527 0.44424446017835745 2.003040029286963 0.26474057898033765
P 4.461101000575602 6.914059108732437 2.9358473216457224 0.33711687586021943 -0.27764700262936054 -1.2562839420270815
P 6.592693197084018 8.985910676233326 10.905641286634 0.9252703508511225 1.155605969989029 0.648808883889431
P 3.511849073114959 2.8497535515372645 11.968117239177296 2.518660370105146 -1.9861643365775472 1.0838122850854945
Ni 6.157784350414387 7.870642299148445 1.5882878778201066 1.2827349371297585 -0.6431712259876794 -0.41450348147049904
Ni 4.6418349605827345 5.9080173856038 6.921253826915258 0.4028419859721708 1.360295349313741 -0.19853647234943872
Ni 7.228451156494565 1.3392384603712764 9.112771766820828 -1.2144767761833084 0.040299728060311235 -0.433540443497292
Ni 6.158086765011296 1.1599340966404401 5.343239797719226 -0.36084944359046883 0.9496616352112935 0.3417723723543598
Ni 0.3255245705598495 4.816016604323509 2.519830223204196 1.5513015747244057 0.6075028260517924 0.5346529319696017
Ni 3.962694252633816 8.64326577385696 1.626554321223503 -1.7335354532590792 0.05803905432160327 -0.9152613033545527
Ni 1.868354036017347 2.7755336781928897 6.290032086458344 -0.5009678810123308 -0.8011017518902978 1.6063643200265045
Ni 6.664557902203983 4.413979307929995 11.043214268807159 0.17997850684159325 0.815842400534582 -0.09907643187888743
Ni 8.938834803981187 8.935609048280828 4.245691083197464 -1.5770162058816906 1.081479266076944 -0.3167969333559447
Ni 8.293665335751692 7.980446290062422 13.394515252009166 -1.1587637988917205 -0.8832438699076919 -0.0708698875376844
Ni 4.614131950690149 7.749703952621007 12.542737963987317 0.62900007669362 0.058561759594292696 0.6547756429958272
Ni 2.5626979505199534 5.799083982165772 1.6388671773570382 0.9475093647549812 1.9955663466177374 1.1238955262596257
Ni 4.598754626641272 4.639956324450422 3.233847581847524 -0.41944796995996797 0.5951666730839427 -0.6886854083693946
Ni 5.815276909218435 3.257060193179948 13.326755137736336 1.0248905710486218 -0.11559217014572351 0.4074265200190596
Ni 1.303342764126071 7.99806881339138 0.8876161669791514 0.7217436243759441 -0.09526400011133271 -0.2847375909275548
Ni 7.854467700253171 9.298149165502313 6.7092016279706765 1.4732302843422758 0.06600227503273794 -0.04369769799826668
Ni 1.5735914448182085 5.237811654381733 9.449118197910666 -0.683801340804216 0.7696162796875069 0.3168298434764092
Ni 3.939894024842631 1.7412391004500145 6.427605068631505 1.033286508421801 -1.3581361368788933 -0.11682912787661814
Ni 1.1361899687437522 0.11401855070544262 7.290381083902141 -0.5844420875775871 0.4254041875434028 1.086030375782736
Ni 2.360712492020957 6.578003178937206 7.735597686287016 -0.03666804484499492 2.433960518662905 -0.8538762153788519
Ni 8.970185117194067 2.653009946051354 2.9195242646756028 -0.554873887002167 -0.39712436676210316 0.3142535981088007
Ni 6.108948975052962 6.276578302527381 4.528843703098913 -4.755985232985751 -0.3500487534305391 0.9904113063248298
Ni 4.49800474547717 9.12407749070587 10.532893302155037 -0.3543836333604671 -0.7233873306269542 -0.3281393549519575
Ni 4.065762645707552 1.7715447086917542 8.971470837434865 0.565239289396891 0.9269294837211004 -0.04432273317677528
P 9.335355325000792 4.465884649653978 11.068080996343888 -0.3204952081431384 -0.538562294326337 -0.2960321900047676
P 5.929039782128308 0.5165250479281008 7.456012642221221 -1.9877321952852993 0.09057893593083756 0.7660784417375774
P 1.4831419881063943 5.984363325205231 4.258137734879934 -0.26096002889198283 -2.784118801088115 0.3011867376225136
P 4.724549934876638 7.0156337569790175 8.858080942527845 -0.3065731987454075 -0.3548947686689307 -0.6072338886611219
P 2.8710600345012933 4.598672149933024 7.544495487645258 -1.7977999196651038 -1.280464395928027 0.3220039314781809
P 1.0340563116968255 1.5461450291290613 4.3770535692395605 0.9023610503531169 -0.2025571634730576 0.3229380132566761
P 2.4117655744263793 0.6945143663663184 9.901242682815232 0.5108738272721332 0.11372323525778479 -0.4541902585371598
P 4.819938830004629 3.0833917378460485 4.6131678896115185 -0.006136966135673302 -1.509065034652698 1.0135280948479513
