# total energy = -381168.4194604631 ev
CRYSTAL
PRIMVEC
9.23066712586073 0.00000000000000 0.00000000000000
0.00000000000000 9.23066712586073 0.00000000000000
0.00000000000000 0.00000000000000 13.51001438882625
PRIMCOORD
 96 1
Ni 0.6813552363539628 3.622990714438105 9.993560590855353 -0.38909995379572987 -0.10652208952365524 -0.09936002455757727
Ni 2.627426336509705 0.6492417452380755 6.242005143947549 -0.2714287896337906 1.8456543201442213 0.13570205352172113
Ni 0.11797992641549002 0.18159860768016564 0.9737366192501192 -0.278475669178243 -0.2453089526182872 1.0111359404666909
Ni 8.960319398702255 6.408815299740171 5.747416765827298 0.7304216117659164 -0.596488991439792 0.3190883004932827
Ni 4.557614227650469 5.265689476287605 11.154583754901362 1.8124161269163819 -0.11664837932437976 -0.18911440770459043
Ni 3.742509393072341 7.55171958718044 3.625290996699122 -0.45697887702589035 -0.7884691507279519 -2.77750309554381
Ni 2.4268439387091214 6.991150400064397 12.489873607687226 2.0538869367355015 -1.7774028440659904 -0.9038941991681917
Ni 1.3944399680691646 8.571348314444602 3.0772025946758608 -1.3714050860736575 -1.0242004869601329 -0.323031858522063
Ni 4.6478901526615 7.91431865530757 1.446449239222759 -0.14000556599308145 -1.3070367470999167 -1.1785430384011768
Ni 3.645596618359579 2.711951555868193 12.038193062882032 0.7124362309320891 0.1584061799874562 -0.9357295985112335
Ni 5.107438918170109 4.317146116969245 2.084527415574501 -0.8606037639106727 0.967973546146604 -0.42283102749958795
Ni 1.6238220474683591 1.7206148235077943 2.429208835640392 0.3457185014863014 0.7387491577950052 -1.1086383429902391
Ni 3.353787536828523 3.3785257248683553 9.592853636346264 -0.3079474533851148 0.8627313517766368 0.048747858827664435
Ni 4.17304617163722 2.321983559555204 3.0950223976650015 1.6090058714144095 0.5623177448747219 0.29764761412100355
Ni -0.03662267203284929 3.616243096730225 2.442110539156539 0.6349470383056742 -0.8454900481976859 0.35112218900037595
Ni 6.3450590815345285 0.795478590022049 4.800823846483869 -0.5175466113066183 1.7455376199262778 0.048645014701213005
Ni 5.99920444367018 1.1099969589469842 2.195377574660899 -0.32641388762041845 0.4996383635676298 0.039066626984158526
Ni 7.980640998988987 7.428453257671513 7.9942128489423325 1.3128448691412615 -0.14510020690716946 0.22941516420616617
Ni 2.6853303117238356 2.8950326086973126 5.04089688460983 1.4627620378211001 -1.840018719124999 0.2985053341356085
Ni 2.227129223623368 7.876011386514545 1.0628679415309492 0.36715173165941284 -0.16018538337506605 0.10937601403268259
Ni 1.2853150206785298 5.077106945819777 0.7037959113329318 1.520372489245717 0.2976794958002035 0.04322332946500943
Ni 5.288738452233673 2.887408077607424 0.10339270307244987 0.5423276749060402 -2.272418107039312 0.5697592887544316
Ni 3.686719240642211 5.2159269495253895 13.444855357362968 -0.42232683416965977 0.553076428782112 0.88514802890894
Ni 0.6246614016070043 8.136879271661453 12.21584925261003 -2.6775370619711176 -0.013948234649975978 0.5958567571724319
P 7.833808776171964 6.9285480152561325 12.808195934556643 0.2848044396097482 0.016792646077306565 2.1951112056270325
Ni 5.736324273078243 7.268882714147414 7.671580723567019 -2.0024625595169385 0.13154303704802509 1.1379697449645048
P 3.7756290269107438 1.3286806950856689 8.244702694979843 -0.8780993495922749 2.4945051130151814 0.10484110227680656
Ni 1.1676701674816388 7.841433307261854 7.649491737007572 -0.6784593597660122 0.03730053622267124 -1.0645938031755149
P 2.547913369429437 8.993485185876553 11.734961030716914 0.6828335775743078 -0.6769537217547632 -0.7585631071971387
P 9.186258439243668 0.8887674048003195 8.573279370018458 -1.8849045238940956 -0.6650816529075256 0.09736484850441941
P 7.860291560308636 1.718556384726868 1.5072848743329534 0.20520951349424013 -0.0681584021437923 -0.4914306309458568
Ni 1.6153759869995357 1.9889780104040833 8.804989423680206 2.4545627682942888 -0.5068083989535078 -0.9467529462049309
Ni 8.623658505348233 0.6154325805613982 6.5315517889530215 -0.8495580476194723 0.3386831919060748 -0.1330497035005386
Ni 3.5599175656037105 8.644261354491855 7.94355033213016 -0.02366726170995279 -3.3069544287078143 0.6164098987334352
Ni 5.7802068648474085 3.452343370299155 6.930502147497936 0.3319566718155186 -0.47482978916438223 -0.16652649510174547
Ni 6.030182562723046 8.268240896286398 3.199036324638601 0.8891072706670042 0.3676286712958314 0.8349747504886588
Ni 0.14147105131943408 2.707631603628401 0.3225518185708555 1.2419194457752933 -0.7459994115995152 0.8925381507254242
Ni 8.164294353183207 3.2145521530998526 12.047217886182981 -1.461537678495696 0.032398470935363556 0.20225454463097428
Ni 3.7027990628681025 0.7812873623009898 1.3460961948523678 0.769180991922301 0.41613330376443813 0.543440962574877
Ni 4.620022768447972 8.72362663089726 5.85278113940919 1.1612994208293805 0.7653842438840303 -0.3748082197634061
Ni 6.901779080436911 6.6701724102475675 1.607259461349004 -0.24709304110190347 -0.07703102204307377 -0.8409093708055388
Ni 6.382914047635779 0.3582394240184678 11.15180070874688 -1.3803509824130356 -0.9519393755018767 -0.28905730134883123
Ni 8.214638411977703 4.151603331780305 5.598550103964015 -1.114538767635074 -1.9218427916813419 0.9550822920062325
Ni 0.9551340556841958 4.1360681189179775 4.552793973249574 -0.9045464880402099 0.3031379478116134 0.3255278854710394
Ni 2.07891240072949 0.9340235198457267 13.38064222113196 -1.1984508330686974 0.8860646271859386 -0.8549684200017663
Ni 6.8366013394856955 3.311741847827986 3.2432955276286717 -0.3166488378138547 -0.8450192792088544 0.2277902270082335
Ni 0.5020661416019934 4.783184041504719 7.316104961301956 1.009668611892545 0.7434280513279131 0.8536311892475815
Ni 8.357141451887754 0.5498902282566103 3.4781126238628866 -2.1808901769316438 0.8944155702537953 -2.6573934971437074
Ni 2.4439483649918863 4.75273207048106 11.28749520854567 -0.22518827060901217 0.38874077068409824 0.2922112735967806
Ni 6.621877559566819 5.6602635755229365 6.060849608291977 -1.3517520877294205 0.0662015355277376 0.31949376346181746
Ni 6.309059479536264 0.8496782984972302 7.325021785796911 -0.6332205425328707 -0.08447770812910613 0.41206093346727735
Ni 3.882750919523527 0.8865077374748899 10.54774123321678 -0.3097001744101634 -0.04996219085073977 -1.8006659283589892
Ni 5.3281349397538245 2.3085437081425186 9.167855258088812 2.4578308975225993 -1.4950998307218575 0.47822981598486675
Ni 0.7588577641226355 1.0269855690058591 10.843056122142436 2.3421523383106564 1.4585130327367593 1.1003758458711308
Ni 5.888796433541659 4.921791739865215 13.338869759879923 2.0302746966332004 1.966316705724001 -0.8121937480384013
Ni 7.850940894456267 1.8159860768016562 10.317409318164861 -0.13707347994795102 0.8201885933184198 -2.1148902158917515
P 7.651115411364365 5.226311450101812 8.041660324376043 -0.09231263079249263 -0.42764001885245706 -0.0938357523052384
Ni 2.5946113146882106 7.630854096906368 5.581567522488013 -2.61819728656022 0.8342782386422665 0.7126401194127792
P 0.23746906691475336 8.35253534896541 5.302140457910924 1.7305552875848325 0.40406274575314927 0.4720316575939548
Ni 8.245136536337258 2.978127074643049 7.840982850703517 -1.2658173354388136 -0.6513589040047943 1.1656476704957475
P 4.571414075083138 6.704510492153604 5.248707817878321 1.5085569846680278 -2.438176870737098 2.6111061840413936
P 2.58574987419633 5.879796533042093 9.392067240801024 -0.7638017298882587 0.3607149748951336 0.81756195432885
P 8.55498234153616 2.4232347478421157 4.3232318958403875 -0.02796460353372603 2.001823383271043 1.0868004211795412
Ni 2.058549548932523 8.103575024479468 9.753784780212555 -0.13449337792560062 -0.28536905386396666 1.1993831150749796
Ni 5.631150051240238 4.478341257916856 9.071096635517938 -0.5047592297339628 2.2752609758047457 -0.7248204635290548
Ni 8.269800879039657 0.6636185093694336 12.442291364512698 -0.19352102141271835 0.5402790199071276 0.54286297858422
Ni 4.547515877756598 7.497397110831778 10.01808093514976 -0.13780650145923365 -0.2802296757548722 0.027049805028940513
Ni 8.614132456819464 8.664162672929871 10.112123895436557 -0.777748421876338 -1.2052735124174856 -0.7102014280642995
Ni 9.235467125975141 7.017190112176474 1.4444904916473662 -0.46528688267095347 0.130435148695827 -0.8726457826768714
Ni 4.929379348286387 4.335967447347312 4.724871147734557 -1.065415527745862 -1.6557390138048902 0.44323427374628827
Ni 8.12264558287137 5.253929606301505 3.5658870380683974 -0.13864416686918057 1.4800748180679348 -0.5969204225502558
Ni 9.532233075781342 5.036298166221232 11.746687670301167 -1.580360439763575 1.9665604463036903 2.0326406257622156
Ni 7.559879496966713 4.606444457027602 10.264449288291827 1.721449211518506 -0.9441265643256772 -0.7350205439905083
Ni 5.547280209251461 7.275879559869127 12.276239046495476 -0.14291399788912806 -1.0248856859526156 1.6493415949189787
Ni 8.395190261999764 7.665072180139076 3.666564078856773 -1.235708431868575 -2.7804503510975924 -0.6818565583730192
Ni 3.8820493888179195 5.771077735007335 7.781863196621906 -0.039800419826389516 -0.33686799307420695 -0.5396822668633932
Ni 2.765794037523545 3.5171241925616714 7.240962715130965 1.5667492767380435 0.5038310614927388 0.8849279424783341
Ni 6.524798632844834 8.943196511085132 0.35487669196514277 1.0981197028471024 -0.4594844170565635 -0.07128537780854818
Ni 2.8082089532112433 4.063173540205082 3.151454081464075 -0.877989820597604 2.15166161908383 -1.7622104525962685
Ni 0.9794014796978975 1.1064985360861272 4.524003522318141 1.540763137086927 0.48195817267904734 2.3575403907309527
Ni 0.2650318391113729 6.198106860044178 9.580032239634576 0.5337885270867775 -0.06744774923001287 -0.35692928260045625
Ni 2.715246904051111 5.40690022279259 5.652252279478246 0.06868624962280429 -1.283535321543867 -0.3317000757200223
Ni 6.9027575311578895 8.003773050939666 5.964414982139089 1.482114474205783 0.7627848585879703 -2.400743408480988
Ni 2.889032675030935 3.1554574218196256 0.6791915679671954 -0.5131045163748648 -0.47734947026244245 1.270875466688011
Ni 7.16619154178057 6.679467692096862 10.83932785566882 0.1808663087631853 0.8713381196090414 -1.2578394594396596
Ni 4.5854908425311764 0.026697858681943288 12.610112278361427 -1.7257419253565893 0.9757112811104937 1.1387230781907616
Ni 0.8993835951229358 2.482329479122343 6.619609584640928 -0.936620228646303 -0.23312372340600496 -1.22153034059598
Ni 8.295535979134826 4.780424072018186 0.6371744940349139 -1.696121788497311 1.1353806440810899 -0.7715335513148778
P 6.47772223023172 8.33577245736827 9.397457950433585 0.024951013518382838 0.48534971485909967 -0.11302080987412148
Ni 1.1653440393525203 6.16822719038562 3.32051836618182 1.0402153743311504 -0.3477136775394592 0.345467818928076
P 5.9852384442282895 3.364790492105941 11.101044039129482 -0.46913942364782435 -0.2432487276551488 1.1698249418018887
Ni 3.1760787322976056 0.45809308929447295 3.70351351650776 0.9156644523302424 0.7547776720127775 1.5158720302722022
P 3.0908889049022266 6.012607372414149 2.13225827249061 0.1574093632918257 -0.10322413549867383 -1.3865954206608506
P 1.5256723633536053 2.962933396466346 12.220686122211847 -0.5772648531028575 0.03188296475152573 -0.592072093319019
P 4.64510249117343 2.1940834351223972 5.579054934881878 0.6803594050022025 -0.7586700650886483 -0.7216230396376798
Ni 5.9119192548251585 6.009598174913783 3.685504484841449 0.563107587765869 0.6060046442397111 -0.8287639936922565
