# total energy = -381163.0721787671 ev
CRYSTAL
PRIMVEC
9.29282051388413 0.00000000000000 0.00000000000000
0.00000000000000 9.29282051388413 0.00000000000000
0.00000000000000 0.00000000000000 13.60098215477091
PRIMCOORD
 96 1
Ni 3.228957798558788 4.754606625438929 1.122792042633991 -1.6735184492754984 -0.2996170791425485 0.044372355467788095
Ni 3.089965080400443 0.16063383884077814 0.7553483392434812 0.7774303764152869 -0.42837149770184285 -0.4438135432885259
Ni 3.2480452521321808 8.656792107336585 3.0966447598690676 1.1057427666099988 0.6057907284566921 -0.32314010196515314
Ni 5.4588165727572004 4.475617564494232 1.801205119884229 0.1804644453390763 0.7920023606921908 0.2474098010113739
Ni 4.96193874650805 7.124879919352029 10.26871455166075 -0.4289757069447451 0.45409641327177275 -2.026571279639684
Ni 4.233809078888944 7.152832723806151 5.0507929802409395 0.5411184850892874 0.06106961361781095 0.7506986168473975
Ni 1.061351629758701 0.07664160886134477 13.47111997383431 -0.8087574686633427 1.2673371145174497 -1.3546317232700604
Ni 9.303693229831527 7.817483133703812 1.0286669210399384 -0.6668788540172644 -2.533990315593997 1.1069748392448868
Ni 4.5293393605544985 2.1654595272346278 10.919507507435409 0.19383263911586618 -1.4763307776444703 1.299947187242987
Ni 7.19610009665801 9.215402141028799 7.813601522526788 -1.8601427435683835 1.7395806310118944 -0.7382922727632446
Ni 3.3114222888266993 0.17420879121663627 10.522250576900715 -0.8079316303279376 1.3893315886450912 -0.7878932236198237
Ni 0.8667190773621215 8.072115711778078 11.431666447928029 -0.1788341088245049 0.7726082724362952 -1.4507752977728692
Ni 3.689537867428351 4.349495402908015 10.986247615915817 -1.0880790307816488 0.31803774774158133 0.427733864117844
Ni 7.049431508659538 7.591351636500819 5.151127564579754 -0.4978558177459103 -0.743199737367191 0.9027677988732322
Ni 3.924655522180258 2.6348584828817705 2.5632823905456723 0.17188878785492331 0.13757021707871148 -0.25330919721494444
Ni 1.488756328980253 1.5724846428538033 9.063177375575831 0.7572968388902055 -2.2784455441803146 1.0104795378296145
Ni 5.744245558398275 4.6723001131217226 6.056122840833525 -0.6200431246106483 1.8130943839303293 -0.23442213050245436
Ni 4.5056705464106654 3.038380633085007 4.957531161683385 -0.9545917255230593 2.459908348876918 -1.412109505771555
Ni 8.684521884095595 2.5442441889216165 9.481502989042172 2.1819070482319325 1.1227015059515244 -1.0727208031580235
Ni 7.144162522158647 0.8491751612953206 5.352924881681828 1.5633279097613204 0.24780806489105706 -0.30382288969377996
Ni 8.154208489220803 8.807224287690085 3.340455848320055 -0.8915145945569162 -0.2749676560249845 -0.9494299788164616
Ni 2.75573020081221 6.514731902447529 10.878786367436089 0.17583003189085847 0.6929192439450841 1.5146330156587786
Ni 7.4908590742113 3.1393378364060114 5.6718814348727795 -0.7249906705583321 0.5930820226407721 0.10851160914985827
Ni 6.171213495050233 5.839905853960354 3.7650782770450766 0.3772883058727825 -0.23283987361699898 0.6422116902878876
P 6.695384335488796 1.4090053423362126 3.3293843818218365 0.6687177069982161 0.48925393500951225 -1.2431201509516139
Ni 0.40190798725985866 4.14656807881737 6.059577911543646 0.2760117810187827 1.333110047148201 0.333633031076677
P 0.17386031044302272 6.809797543081598 9.349260575789238 0.30768700063487653 0.7873152396291666 0.7367722365742925
Ni 7.918765585746855 6.213523707377233 2.176225259934129 -1.519332735127293 0.20081215575749287 -0.28339187553293776
P 5.608616841307881 3.903923239355409 10.358440451968704 2.1644387162438403 -0.7640076752514777 -0.3260737306721804
P 2.1934123316887493 4.568536477970551 12.413399049095633 -0.7714139950178779 0.6347922578953649 2.153620028361781
P 1.2158540655480066 3.3055771046506215 8.128980339775307 -1.0639903652635612 2.3717241384305026 -0.37420426763082004
Ni 1.0502838803887344 1.4443180607290527 11.35818068095253 -1.4858281756119442 -1.8452807388548864 -0.6511519302003108
Ni 9.090627438433886 8.662925368952184 5.377134537986309 0.4402780193314418 0.538796264714014 1.37792463235973
Ni 9.095032235412363 1.8706540855781901 3.0614863022986802 -0.6379302893037142 0.5373039964392037 -1.0988198142379204
Ni 8.917780974721564 9.18824851914883 9.330871942327198 1.4690216455775669 0.6575997427081837 0.8217137717136945
Ni 0.20354065025220489 0.6419945132024643 7.184664351591108 0.045340632918328364 0.8697206386102764 0.14458830026775746
Ni 4.736383404184098 2.2870282067122947 6.967565476040178 -0.19042772719937526 -2.4249734846729463 -0.26919321543505254
Ni 3.617546386010105 2.982967543670137 8.845385255605926 -0.7549157402525386 0.3837309761743327 1.0044423304965993
Ni 1.6923992002593848 2.884928286026857 1.7623471904211605 -0.2809886654080838 -0.4975442000427625 0.7201626530420694
Ni 7.801016255547992 3.57325680288898 11.616653052510987 -0.13765686325524681 -1.2872711344372152 -0.10685530449335791
Ni 8.063715001928834 3.3205571315056894 1.0128895701748426 0.4377084588320526 -0.4181991851545314 1.179077570748408
Ni 2.706506129936717 4.028149665533169 6.780252878453609 0.7460662602817086 -0.5809276466664254 -0.5764513560626265
Ni 1.5986811042089126 6.643632617402027 13.048537319237507 0.3591653710198266 -0.623009920548456 1.471647256125872
Ni 2.0398298851417835 8.083573759614493 9.226212479267323 -0.9048995005042545 0.03145950406086195 -1.0286132713158478
Ni 8.92463907634628 5.4526554326797125 11.010022368214825 0.9906982414376293 1.7107081709519185 -0.3212598542233048
Ni 6.202827670832454 3.606571564846435 13.44816206046865 -1.0711393176035164 -0.641774859860785 -1.2115488039032358
Ni 8.209296329913634 8.042006972937868 12.724712257318659 -0.9284078680388398 -1.5322964943768127 -0.03387119882614811
Ni 2.218939709958521 5.865451817871385 5.302329190481392 0.6012113366161258 -0.6261906322692828 -0.31320793045310574
Ni 4.756307211614163 1.0030670587692552 4.279807611723871 -0.4082158486895744 -0.4294840140397313 -0.6049057547485777
Ni 1.1004279405065673 6.631431143915237 7.215334376797353 -1.6939906010869215 1.0393715382736164 -0.8787141003581382
Ni 5.786992533294872 7.664170178955107 12.116067818792045 -0.06089606415442416 1.9965251109865807 2.5286174813178577
Ni 4.509564238254508 5.278349996128528 9.020552136629485 0.07933035960021176 0.186476198750795 -0.6597185888233993
Ni 2.238844931747327 3.8293576466227384 4.018518586232553 -0.17169441245593012 -0.6583307073369372 0.4394385541492819
Ni 2.550684113617995 2.0016178067124786 12.822272005417448 2.660125037142257 0.601449420768861 0.6902195856257339
Ni 7.552219568829175 7.747443144617803 10.3856962948756 -0.64695537562046 -1.5003222554630615 0.317573149400337
Ni 6.2176497197368175 5.435946941187521 11.848087962447348 0.6072426304118703 -0.6278307389758672 -1.1398386798524434
P 1.9959956502315135 1.516616205228078 3.869139282456399 -0.1857413774672995 0.11365278703116555 -2.300202476241432
Ni 2.4634802848289397 1.2800581632785677 5.851999530727839 0.9240264511416925 -0.4289921620049773 1.4589519200463907
P 6.319963674869757 6.251308316057572 0.3010660149146628 0.7960122531825323 -0.783712866989889 1.0607921700412377
Ni 5.492122041894026 7.182448943152989 7.752057030060445 0.6110961998300056 -0.4876529090709795 0.005329382632713402
P 4.477113708615613 2.2446250661789975 0.33360482634953903 -0.42851779347172014 0.5125270466048398 0.8467527169601934
P 3.7957362215845025 5.839311113440053 7.104935667716578 0.3249709845263049 -0.6706038682773354 -1.50729431590552
P 7.307641822676238 1.9613241364621221 7.571014298552732 1.0466870980984233 0.4679168640946329 -0.7605641967875676
Ni 6.108533419902941 3.610288693098313 8.066375536475116 -1.8384588308370469 -0.06350110587743901 1.9717283636578755
Ni 9.363724851099358 6.721116155812421 4.134358241792014 -0.8819038109400296 0.9073430769487406 0.5078116434070415
Ni 3.9653487837176917 5.573452808045116 3.371996610819302 -2.0938207968159617 -1.6390582107150995 0.8318004665257352
Ni 3.2654414123509694 7.808571318719935 7.173321534730502 -0.7815742233803313 2.273694145538258 -0.27855048828023643
Ni 8.253613791496647 5.361697304356261 13.25011811361891 -0.4393071707777402 0.4813745322614355 0.5596623095297457
Ni 0.5102223166733922 5.246791577270084 1.3642464717732876 1.9660369697000528 -0.44799672813193814 0.20035424228446785
Ni 1.1178705648285046 3.6432874991543596 10.818670181500528 0.6760893168719389 0.22720890058346674 -0.8277934022488712
Ni 5.153798321228728 0.5745397868156358 1.7587564445298463 -0.2820613296469723 2.2196441577713903 1.1712853283974989
Ni 1.091070070132465 9.184243313457431 2.354207865608484 0.34236963961872646 1.4302031300484725 1.058911150968441
Ni 7.983294932199456 0.6144868348565048 1.2682181805142736 0.02634120899769012 0.702736487145822 -0.6454193985919078
Ni 5.403942466938853 9.10665755402011 6.12569168391361 -1.9037555951623277 -1.0711277476392909 1.480941022722972
Ni 0.17191253523903868 2.0888866852459427 5.239492995947522 0.958250148211253 -1.0245452718940613 0.6010383013733712
Ni 6.202753328267416 8.31805950256358 0.7939479282930446 2.715937259015871 -0.6751032988095856 -0.9372972001086696
Ni 1.949847502984449 5.541281063025111 8.984128926171396 0.45904527263661593 -2.2307963177334678 0.05761173697619756
Ni 4.792391234119268 6.979187077519675 1.9015536434539884 -1.426721599257775 -1.151190614530153 -1.8761961974868204
Ni 5.025111341148715 9.270257661205887 8.875743042039014 0.6296767910456703 -0.042745875607958644 0.2070005439563919
Ni 0.5948882761484785 3.010929640944889 13.409643318958567 -0.35962636981664514 0.6147929319553025 -1.932058041651447
Ni 7.081027098800501 5.3127984822028065 9.570834873755429 -0.841995404780866 0.964738584149074 1.000616528992606
Ni 9.27745030437327 4.684232094810251 3.648490549424926 0.24475693676955912 -2.512991858965459 -0.345007848572522
Ni 7.901843359380181 7.267952185766811 7.92654367661391 1.4154879353254848 -2.8303194680138932 -0.2135164906980387
Ni 8.201982880078063 0.8864765433029155 12.319987616125939 0.24115584968186213 1.861813446402587 -0.6532751471909007
Ni 5.494835545517898 8.246393269867376 3.4701678265155236 2.345206294645632 0.7254431847147184 1.0027348608871893
Ni 6.674466196251353 2.0098512457903883 9.759425234178579 -2.14508807963137 -1.5509670742031223 0.8486440204456352
Ni 4.337674935067043 6.028624455308195 13.16281299308499 -1.3355911616988416 0.27600046816487306 -0.8346659609989884
Ni 5.916153447227 0.9571140607554145 12.894343405093109 -0.36262813275744643 0.2295609457554111 0.7416966704591034
P 8.141077733671043 6.040677243664909 6.14926292344083 0.9708143580295088 0.13839142742842617 -1.6822679133333545
Ni 1.8336686594720049 7.984540170163835 4.642491532387851 0.6089902092305964 0.8579262170785095 1.090341087342948
P 6.331245159114206 0.13583037129805978 10.983745059320238 0.21985528843187296 0.9444037292464639 -1.1356758067240056
Ni 7.246504355753475 3.7601818898552906 3.148083309900617 -0.5121598930734083 -1.3175754418477115 0.6173424378500335
P 3.388645628259463 8.428978609599618 12.226236065921201 -0.4156118840433293 -1.8313240195644787 2.0663938109532607
P 3.265915346203084 0.9225010917559904 8.083131421352519 0.22695898935618977 -0.8498838063900074 -1.0243814926226873
P 2.270710013686551 7.213356864567354 1.8286523948960955 -0.23677186168155356 -0.6627542903259296 -0.7992510718348041
Ni 7.8682498128038345 4.674251605453959 7.643534541464808 2.77319624063834 0.2115897059889711 -1.1376234173686794
