# total energy = -340864.0352262419 ev
CRYSTAL
PRIMVEC
9.31672933491606 0.00000000000000 0.00000000000000
0.00000000000000 9.31672933491606 0.00000000000000
0.00000000000000 0.00000000000000 13.63597513108518
PRIMCOORD
 96 1
Ni 7.713758144242985 5.135260119610142 10.32691906055326 -0.6247140477237564 0.6105225867147227 0.23042329375570636
Ni 5.212561023318693 8.798393145802843 12.545097234580298 0.8750081122614607 1.211784831173442 -0.6593784318751612
Ni 8.461453627589059 7.878533820148666 6.181841871669312 -1.9476612954063424 0.388444322489602 2.166234888912314
Ni 6.291987973152255 1.173945169445862 3.1047749124303676 0.9622602978119106 -0.855181564453837 -1.2358729824708976
Ni 1.759883597207042 7.415706654482798 5.817665826770994 1.336941247968833 -0.3743942721544391 0.32046975422184165
Ni 7.871285404687024 9.045761627707838 12.55510619695876 1.4432134262652112 -0.7751220399970844 0.6016977893342412
Ni 6.874460577582161 0.25019610927338737 10.486405629186997 -2.3846488169119704 1.5592025747390375 1.3719496457232179
Ni 2.246803825062896 8.020912078612458 1.4134372883286557 0.17491857582018264 0.9053854390017375 0.9114514426901593
Ni 3.0479214347033947 1.3725778399371622 1.2396001614229817 -1.0758783749503988 -0.057275950903333615 0.20167373242683975
Ni 5.3785571907738285 4.824072041416899 0.7238642212518109 -1.1678552196700274 0.7963040733913382 0.6761507662374936
Ni 7.069590157824646 2.4925884629724173 10.564103425567355 -0.26772280153711314 1.903793390378799 -0.1496988820214454
Ni 3.763530102047028 8.39579863561194 10.575448406939646 0.8690043292695421 -0.8088497712668328 0.21066976527786296
Ni 3.5514068074060376 4.4073347360193456 4.1167962568353405 0.034391075885360126 1.013137544277752 0.30656497121529136
Ni 1.5451795685263658 8.735076652901395 10.79234279869877 -1.698794193123152 1.0420148894337344 0.4130456659780499
Ni 5.909377847492488 4.957413072377101 8.253146465304225 -1.1717841224107886 -0.33554773160088663 1.2094749520933428
Ni 3.4420749880713557 5.825517966296795 6.570003836369686 0.36263970272167223 -0.8964505984059529 -0.8893080738239008
Ni 3.7855921172310523 8.714561214795305 3.375858197312312 0.5277803732194846 1.2273541463666087 -0.7399030688937902
Ni 3.392211852402058 1.2436808888936752 11.80868617386551 1.6373222018605995 1.0563027668113163 -1.4116299950319753
Ni 8.725424521258384 2.3852970073730826 2.715699908250248 -0.1311090348344 -1.4790821151373623 -0.3559802884236256
Ni 1.8484297932834637 0.6207718155863615 3.205858631240379 -1.0449199788956713 0.5000330279028872 0.9896232632058957
Ni 8.452379133167927 0.1989736627867964 4.014594530499111 0.517355835452051 -0.2836281599134599 -1.322221682370471
Ni 8.995395388651742 3.3112215238569886 12.32386683696533 -1.4200107628965029 0.8453337251254796 -0.06411097154729604
Ni 2.5130573174315813 3.938973433098701 1.9488809061682244 0.132740656900552 -0.6508580531089758 -1.238935423446305
Ni 2.9433131971669817 8.696253841553494 13.002352064400911 -0.05659563700685736 -0.8358126730089218 0.13771599862795636
P 7.579951276813526 5.298610335919896 13.62973037279428 -1.4958256531442882 -0.3520256746512518 -2.4242376349481862
P 4.586728360330321 6.69594272583339 11.96916776919758 -0.03450831818951477 0.31702087644129273 0.5498167841942337
P 0.8319708906723458 8.85202024014374 12.867492406550932 -1.0321811911727643 -0.7889933986625379 0.3107021333121165
P 6.7076072710235914 6.875224549391743 9.095059237903458 0.12398939307048322 -0.3964826194130462 0.16754105240918887
P 7.582289775889198 4.0416531076523885 3.581720649806485 0.22191577050532751 0.5077939027952287 -1.1440234073577524
P 4.5510173365970585 0.9659491859224907 9.88844116713547 0.07312063124507408 0.8680036559191696 1.3859986676171163
P 5.269914809413649 1.1320944210477888 4.884556248585264 -2.9267147535161917 -0.8978413081058925 0.2041273361736549
P 0.9859522039123979 2.435281260524388 1.0152859263815281 0.01362890363734427 -0.08464020184889938 0.48056874853068854
Ni 8.822952044462086 1.9805969163411365 6.796552223117698 3.0535405875942057 0.05322723475525672 0.65222587999078
Ni 7.655174549869191 5.516649753720454 6.913329972576987 1.0135859446690803 0.4433214341434559 0.7717024727925743
Ni 5.5957860531178785 3.064803348349278 4.084738322693994 -0.41519690799309783 1.2911198187593442 -0.6231701002754042
Ni 3.026073704295228 6.0673802611351695 13.573454532289187 0.6024040713726464 0.23525079705133678 0.45010580405514095
Ni 0.42009225964914493 0.23339338782727762 1.4165872745337735 -1.1943162420750335 -0.004375760470192464 -0.9174760516176845
Ni 8.848349448765992 6.175538172567323 4.979530987937435 -0.282784580966242 -3.4658025813286955 -2.2614556944905373
Ni 3.6619963852077135 3.4974722609954303 12.868978424887862 -0.9851042922896195 -0.0391329614457197 0.5317095330705618
Ni 3.2845104607097766 4.691057095985179 8.716415243942949 -1.0908563364164698 -0.8070862516085068 0.5024588637355605
Ni 1.4531582323892847 1.1154733758246893 9.022188439017544 0.8348842476573815 0.9609410647798546 -0.59113029823104
Ni 1.2918949634618029 1.6813063015727254 12.501584381659915 -0.19109801379352248 -0.9442003549864062 1.380391605842984
Ni 5.512457225497139 4.5225267781372835 5.960434456196024 -0.9078025330836624 1.0726027895229207 -1.079416212900328
Ni 4.444899788900252 6.975742742728077 4.73117865940937 0.15548103592086127 -0.3150982054972831 1.2145287124671662
Ni 7.5031534764917724 5.725251324653859 2.0332466857695315 1.5810505238520642 1.2309099820386673 0.31494651041076727
Ni 1.52141259186486 4.751559936612313 5.5684274772784 0.7620690634678682 -0.7000072611401169 0.12824379747146303
Ni 6.113144035875004 7.296983571927891 6.946069891309327 -0.916649441951331 0.19384626596262097 -0.5994647862386644
Ni 0.4052833182914563 6.534772624199759 11.228584677064125 0.4193921770213681 -0.42464931165524933 3.100296612802822
Ni 5.873666823759226 5.417696770920824 3.4684189720807934 -1.2966237792967088 -1.8026613615224631 1.9334608355362444
Ni 0.44626667918377244 3.902805889625567 7.657609011257529 1.1200401570692773 0.4482826348034731 -1.2115308061811068
Ni 0.565545038810035 0.039728397444137045 6.198859809564219 2.798934783055025 3.07868674784253 -0.5015510072093105
Ni 5.022769929013895 1.8473117857572463 13.858650798843748 2.134540643132827 -1.0161292799162243 -1.2285365967104842
Ni 0.727385944959396 4.071559808978706 3.5370897893598845 -0.2890822410494957 0.3872749847718492 0.06387083051203192
Ni 6.856190471257891 6.823786886456356 11.946095820548207 1.3052989384732037 -0.6924988685782139 -2.3077972578695545
Ni 5.1852443727614475 0.7823714184446471 7.035617635794653 2.441365295767408 1.0952272117906556 -0.8079740535300988
Ni 1.5134188380524052 3.298038351777008 10.707036029429561 0.5612705345571302 -0.3666344257033621 -0.29339835192634633
P 9.152773581425619 3.921970401970811 9.530565094647388 -0.4938713791768656 -1.2560923948415659 2.077635188195035
P 4.516908790318041 3.1123932020486005 1.8639011541004362 0.5385635798779176 0.1360085290185464 0.8927973179240817
P 4.00810356513648 8.269715336842767 6.916752938953089 -0.3275788544627971 -1.6909813819469521 -1.0712750718504322
P 3.8761320933958956 3.266184454009196 10.417012765380557 -0.02879764095798266 0.13173535556448926 1.4410966370325247
P 8.118178733393377 8.016980418811928 2.063954625822971 0.8500619838390844 -0.45278540776983306 0.8168770124466835
P 6.942183883482783 7.38060121815957 4.833857402290119 -1.3515728818390789 -0.5694286448878904 -0.7212939384330352
P 2.239443608848631 6.325872917926029 3.84309497099617 1.594990273861608 -0.5986217215120787 2.1036249273905767
P 0.7130223432663172 2.0417612447546163 4.720010695895396 0.0699085520656796 -0.5522122810096037 -0.01677567679644208
Ni 3.0269867437749727 0.7742081001573826 7.233107143590395 -2.184981059171566 1.7326561359779191 -0.7174714793631515
Ni 4.09431126213723 6.7767187696026 8.457958922396692 1.012971965234165 1.3459411374745982 2.199419346084083
Ni 0.39822496410927016 6.391155240727743 9.099995241131708 -0.4819409462878668 -1.0829746196755479 -2.651773065633136
Ni 8.322662309938547 8.136253188400559 10.103916621009235 1.524641548934716 -1.7222411112921825 -0.7748700718872784
Ni 5.3171785775844915 5.14505200219393 10.594102362514585 0.33098376637928806 0.1472442498333658 -0.7995691172958552
Ni 6.75812257774985 0.0476131455227856 1.181521533781862 -0.12362892440727095 0.8844476604078058 -1.273026451592743
Ni 3.8677470369492646 6.408931560394601 2.360686866702221 -0.3759963265342363 -0.5815084588705599 -0.758095680642417
Ni 7.463622593710601 1.3155315059119166 8.307390327130419 -1.6857967524222193 -0.32943853337935525 1.0563673015006647
Ni 7.224806869381169 1.0491662127906096 5.64759824857455 -0.8794270672647629 -0.18396860183759284 0.19931474527635998
Ni 2.085959808957746 8.23665958098427 8.226556519639018 -0.8119438368111241 -1.0717368419781994 0.4170925823539139
Ni 6.07991126215819 3.845871356352943 12.33003078512654 1.1607900852931299 -0.5238640688842139 0.7795181121822511
Ni 2.962654727370544 2.1613600998717275 4.750010564515564 0.4868967476312453 -0.017180368434028478 0.6599096217882828
Ni 8.130430232534842 3.6604777583179344 5.586972427119531 -0.42975937918830504 0.7085453805181152 -0.8745489132368552
Ni 5.9140548456438315 7.461675397269105 2.765170809612432 1.2108864877288887 2.7875391396235734 -0.17543896710002688
Ni 0.13653573746636744 6.878345653735766 0.1590104837621537 -0.5194083471057055 0.9803768049069631 -0.3527234720492248
Ni 1.3313978960548194 6.053861686797323 2.06160960503673 -0.5014224520512461 -0.5093265373896713 -0.5958372167884062
Ni 6.979292416623816 3.110473955795261 1.1845997811707143 0.045302323481225204 -0.33837105998229466 -0.3606699805898111
Ni -0.21219223843844073 1.3940435844405372 10.501623574964693 -0.38080917454184743 -0.14245428464389015 0.7423204200860313
Ni 3.065632537264556 5.054931278851417 11.236207625047053 -1.178556151027299 2.304679795286495 0.30280678972443975
Ni 6.117960784967124 7.1845213315198 0.2553510556421883 -0.6747168620044445 -0.9615380749339053 2.963037499206626
Ni -0.032638366382041394 4.544737860991471 0.961254485985316 1.2878876849752916 -2.2109779974559602 -0.3767164925297125
Ni 5.490963530805608 8.805138457877687 8.875601813890482 0.799710527969726 -2.1018022723595418 -0.9202734118571636
Ni 4.377316233940407 2.568827259531062 8.49736682434998 0.36090575074970105 0.04939217727988268 -1.463562936455841
Ni 0.6522129822424116 7.737832572974201 3.8107230630745432 -0.2577402364031045 1.3603344300817928 -2.1110122209935835
P 2.2986793742793856 6.834659509648819 10.063676735121856 0.5025804769150892 -0.9792344637724039 -1.0443648777231498
P 1.5715645461450976 4.632100832435979 12.932140260081518 -0.6368658525949419 -0.299955950539206 -0.5161458743043498
P 3.2841750584519116 3.593667491897057 6.6001797911752345 -0.062478835260511754 -0.016791360525725923 -0.2567349350670417
P 4.52099883451812 8.567710926226642 1.1441782190603225 -0.4934332631981824 0.4632289717006603 0.38256909465574757
P 6.313267383067927 3.0909460910039956 7.188954231361253 1.6079244654247729 -1.902746437171523 0.513946809770502
P 0.5553544002085631 5.979458285927552 6.973355796659603 -0.5225270952403452 1.076487212178991 0.3030464165390716
P 7.1427451169568075 1.6976292114555003 12.724082786144205 -0.8406905699265136 1.2489156745874685 0.09311507208912996
P 9.202524916342295 9.197773384355871 8.274787364320039 -0.18071229968382427 -0.05395948493559094 0.0560446495993938
