# total energy = -340864.5346801722 ev
CRYSTAL
PRIMVEC
9.29022580783486 0.00000000000000 0.00000000000000

0.00000000000000 9.29022580783486 0.00000000000000

0.00000000000000 0.00000000000000 13.59718454018446

PRIMCOORD
 96 1
Ni 4.422751223920954 3.1606462130015767 5.4219855869638165 -0.6414141340872567 -0.013488778515054188 -0.30294048708882665
Ni 2.082366894934486 5.320270623565497 3.755406452371031 -0.2177089315128315 0.18374003076655454 0.925988717074386
Ni 4.938210098041148 2.771794532604077 10.612833149444029 1.82193383659883 1.714967974669537 0.4415023786568461
Ni 0.9048976967721161 5.6969521084994845 7.437483296472912 0.5149523682168808 -0.3553621952236525 0.14382751084233292
Ni 7.50355723859168 7.591331289537674 13.569282992041533 -0.8983349599128593 -0.531350092848614 0.21604851309127307
Ni 5.025593959514267 2.33116842524616 7.743364901553562 0.7646126558253283 0.4169424299292948 -0.22355819120475692
Ni 3.4339646485256217 7.391387055365393 9.545562748647367 -0.27048750876644384 -0.0287233360766215 -0.23697369327971446
Ni 6.444248561086795 0.860262808142773 5.814441874872646 -0.5371057643854685 0.9410363554361277 0.5192083152797574
Ni 4.295856033206374 1.038191994841861 4.132904548130395 -0.5367419532881466 -0.3363658566268078 0.5099834542473798
Ni 8.906650712376893 7.6452424683733655 11.493604130476651 0.8315068465447164 -2.1577129674842324 0.49276940436193845
Ni 0.8096255047890218 7.465049253709042 3.5448407033335347 0.03360971763464534 0.22810467292485878 -0.32165657544109116
Ni 0.6126429945203804 7.9601532436608755 0.7468458766483935 -0.3214089782066593 -0.6873319796652937 0.5176065180102764
Ni 1.3104699251049032 8.851829091437823 5.687810526563535 0.5755031332167443 0.4648701068485091 -0.32290793134968904
Ni 1.6613245830247227 3.52345739119738 6.529897937450724 -0.19680997657663524 -0.0771760322613703 1.129644770038577
Ni 8.216805014557792 0.1694453527316998 12.467067407858613 -0.34827212114609046 2.1077602897151895 0.4983435560156063
Ni 5.046543418117486 6.752907014582744 7.402728562710321 2.1408017935511903 0.5346848136488018 0.20551830298391055
Ni 6.780675498735748 2.597881510407948 12.762262466495235 -0.11345969718375298 0.11261791800874799 -0.6212865100994461
Ni 0.4590941467181569 1.7325620325012139 5.363137582273691 0.29834978239435067 1.8353675935062324 -0.2653944105142526
Ni 2.9054344270640837 9.057412492515716 12.824945476290198 0.3777577893100333 0.022129999129819954 0.514380811984127
Ni 8.5129123733429 7.454857876286544 9.006285594275761 -0.8060819787137086 -1.2693076079802592 0.7794227242549674
Ni 2.562708716495846 2.4700387166878124 11.70629176702855 0.9132090488112145 -2.4198559609407226 0.04260395071345566
Ni 6.276847986997476 4.135729705718528 6.74797018872831 -2.029359898128415 1.631536448416758 0.8255930521634427
Ni 2.40979160403066 4.613321620518668 12.377992725336364 0.4754167720161038 1.6403589318043943 1.43349799874966
Ni 3.453260446981891 5.132877484104058 6.923849022649691 0.22346974525600868 -0.7857139565803177 -0.00679156900053669
P 8.333676051909677 0.4260869043805166 4.70869135986998 -0.7062010486556547 -3.1566873328877247 0.5006156398792346
P 5.45870427440655 2.854811988071204 3.4461924433875097 0.14661535800011524 -1.0294347387758787 -0.0004473719500637456
P 0.19237920351125987 6.978770978024641 5.799648119715321 1.022841144718761 0.5062216732121024 0.0322855995065831
P 4.704365830856385 8.746245678122706 5.830432211080123 -0.28770104443125294 -0.6818902398244321 0.4133732245207978
P 4.416842640474546 2.7907558829407386 12.81871823810761 1.243696078059742 2.300501752649406 -0.26030594024775167
P 1.8650592292192263 1.9124765403991966 1.9073176781542442 -1.4228888557752464 -1.5507490446550454 -1.6295129902288261
P 4.65303733472211 4.215514162696111 8.746565261881443 -2.1929512218612364 -0.6399434630790011 -0.9635633328940503
P 0.5605099648539381 3.960701856457039 4.721540670820807 0.1529677825807043 -0.0034997856231423594 -0.7465755958179594
Ni 2.8326083490194547 3.2199735933298075 3.0822915217353173 1.1180722347096292 -1.2475766440610707 2.069649598886397
Ni 8.288850713656668 2.134503640691146 1.1380201134320589 -0.6150675257729278 -0.257591369530066 -0.7649646398481084
Ni 4.5644085830260055 4.791972657742576 2.7410968403368403 -0.01943111214141815 -1.0680406240735347 -0.5608596722719565
Ni 4.903678329691628 8.892854727443066 11.439147615401486 -0.1384338506305874 -0.670421062842568 -1.3210983673993053
Ni 8.545678998838934 8.561388770234961 6.969549500149007 0.010653623059104233 1.3623997972512538 -0.6746284160556962
Ni 7.964593971471225 3.404830501217552 5.601020310502719 1.0936007319308263 -0.38213020734611614 -1.4900517267749886
Ni 6.051885175433412 0.4713730378205407 13.253678236905836 -0.5580152608446262 0.0973314241633227 0.38168823471269103
Ni 4.844072242597057 7.930731099360921 0.6911472584179088 0.4152583573586526 -0.2596410529702432 -2.4209327389446695
Ni 7.335961569765922 3.1437287122847413 9.866375604223405 -0.21989025543486646 -1.2128078731213177 0.5903391697883124
Ni 1.1854885208525248 6.346552549259097 10.271951548646408 -0.8071728977850423 0.3895833211900516 -0.024398226338706367
Ni 1.9880618154305914 0.4162782842504592 8.387110642174926 0.19058507871284597 -2.4582926676503662 -0.28357108142327936
Ni 3.0270434794437486 7.657886465339654 7.007240874206267 -0.9297456130136569 0.6696250493038338 -0.5300779110044097
Ni 8.4277581660005 6.301392762886481 1.9576409718845857 -0.8754225740910601 -0.39578636467697 -0.28485226212854814
Ni 7.666842242764711 1.7759009346670762 3.307011858412665 -1.3114608443095415 -0.5582613154171611 0.47138682492110434
Ni 3.7114358148681315 1.4736248661203106 0.5942780766636866 -1.9462618439556547 -0.326800838646192 0.35472430452933745
Ni 6.333574104173199 5.316907561918328 9.028190088064973 1.4820219144919768 1.8020113866432903 -0.9647894919916675
Ni 1.6982996806924893 8.763005245005282 11.005071117052559 0.17798667322254508 0.5469685161121612 -1.3855150431124783
Ni 9.324134867903048 1.5102097743152014 7.862313233337235 -0.2893498928885856 0.8800400182584134 0.5345997101341632
Ni 5.380276190358488 0.6778873194980084 1.8704419858998054 1.764720877722948 -0.2348425058693246 1.7455471330079744
Ni 5.476643699933298 2.9153378074946965 1.218272797777093 1.1687365938337164 1.5857864958751529 0.10665450133646148
Ni 7.083629753747275 7.949664579020948 3.054784092920119 0.10920400723119257 1.3166495875993325 -2.001173151281554
Ni 7.777869728249003 6.284698227582718 6.892494511436446 -1.0243290421181972 -0.8788735087541382 -0.01670805678330026
Ni 4.494155897457249 5.083583547364066 0.30964043033602173 -1.5472729131809868 -1.8458127000989566 -2.2081816656577455
Ni 4.617465061111588 0.22289759442548446 8.37707534054158 -2.2478154779992834 -0.6200456957138095 -0.6370561142288771
P 1.1670381329208201 5.999181725918527 1.8883767663137812 -0.10785263540962071 1.4344253956599362 -0.23299439691699228
P 4.165792875581064 5.31894212131261 4.780470429495726 0.1186209296697183 0.6187704285458118 0.9737824395188973
P 7.719564272730685 9.397156040684116 1.2727906283408508 -0.09184031914176441 -1.1040265552498405 0.11041756792331953
P 4.75677199315384 8.15807220866442 2.772275766287291 -0.6977315777320628 -0.7210687097961066 1.7963950688977772
P 7.671784642754473 4.1963298469463775 0.7031976099718937 -0.6846055818730661 0.7324396706372096 -0.29645256537163783
P 0.5035738885809041 1.5737177561385314 11.657654649234564 0.5296814468969394 0.27199494654990575 -0.45989039424573047
P 7.358239530622028 2.21357275030179 7.338726340888014 -1.155717555866229 0.04827529006662009 0.73912273908434
P 1.455666860142473 7.049190887653202 12.595819714659571 -2.878821015158706 0.32739450636613293 0.2743858153795855
Ni 3.2751854037417516 6.409503117549747 1.7807281358600842 0.06040292656808952 1.6638364461010442 0.5879153908381682
Ni 9.023688973788582 5.380006773817692 12.973018665156397 0.4135809696562297 0.956562733206501 -0.20176732058191058
Ni 0.9652451438651511 3.7888048132041017 10.875789267395556 -4.523195238770081 -0.5228068312642932 1.0085522388999146
Ni 7.329746408876541 4.029393784134292 3.258864335504884 -0.3293236050680457 -0.3593216940920328 -0.9507744086594979
Ni 0.0729124771421945 3.9439515798000078 2.146900517657947 1.2788443438261008 0.1429934449768118 0.7656346693319396
Ni 0.4480861584702833 0.30262538102724523 2.883948922446937 -0.378782888140438 1.311925956871418 -0.7856846460042791
Ni 2.7102839492728505 4.729709566142231 10.049107837529084 1.4362693908472104 -0.2934243200682753 -2.7230327324100716
Ni 2.7400591221435016 2.4330821994711354 8.914898574615446 0.9004679470954621 1.678136150553168 -0.45221770819182117
Ni 6.7390181273934715 7.873837758125393 5.23964725922123 0.020658813900932164 -0.5592409057216111 1.4269892510968651
Ni 0.7211305323407606 0.9434316942862777 0.10554346534527591 2.0777249196953638 -0.6398894699126141 1.398021145999289
Ni 6.969954553982753 0.14278333444106564 8.566756662554669 0.7066283660010604 1.0699656090103895 0.23994331743099967
Ni 6.210487905931934 6.048308438598715 1.2016906742024205 1.1702915970256618 -0.6422880520517777 1.2033073898300501
Ni 3.3004548172232404 6.793338076153127 12.012731714664433 1.5464902693786913 0.07747505155902787 -1.523529289707144
Ni 2.207998614974991 4.4042729653126145 1.1879207019001181 1.0973547996566198 -1.768572133148238 -1.3460979747674366
Ni 6.762364464187215 6.9746554081083545 10.951063319871205 -0.32057876899588017 -0.026271017881387013 -0.5649914350521431
Ni 8.344759290984463 4.176012123680196 7.9925064541201705 0.6898804571187603 -0.29756996680553266 -0.45549457917088004
Ni 2.8573575098704422 8.762838020945477 1.5225444067708531 -1.499783609350772 0.8398924995052504 1.840130562112515
Ni 8.825807169687218 0.2202591703707996 10.213538326511774 -0.025040745018711712 1.6097139532250277 -1.5980365168870994
Ni 0.5527368331407169 3.1896317167009314 13.230685857705344 0.13462347574556172 0.43968923670750726 0.13818162541046525
Ni 2.965049804384199 7.820465412371291 4.256367000506221 2.0691932280752687 0.13831403722327149 -0.09712573591041983
Ni 4.713395930085799 5.272769700355624 10.66788795504427 0.8453900322847117 1.0836832157067982 1.614605219879058
Ni 6.282998116308043 5.815133067653168 3.7916699187620764 -0.8252482672295143 2.205803652343872 1.4163145449918382
Ni 6.855210978280596 4.658128378320587 11.808393203809526 0.39059427895306925 1.3759762503841078 0.007028367601691121
Ni 8.730108556351624 5.8041891819615525 4.278286358656303 -1.2119920620882416 -1.3771144777536088 0.09721032520442613
P 5.312048773958468 6.5639809879064375 12.48606313202979 1.9541178496649636 -0.19299780191939664 1.0728709555826426
P 2.569156133023844 1.8414899270124114 5.588810167069366 1.5259798081301656 -1.547253372796961 -0.34348729816293744
P 0.9403473394054489 3.544824909950109 8.846396167539304 0.0714139329666125 0.07499547967028375 -2.2605336968969003
P 5.575045768902391 7.900788702430466 9.307394810494117 0.6443012258270646 -1.4189751225431368 0.3141438120038138
P 6.805861300187336 1.0541711827786848 10.937167000501494 -0.331319552452152 0.34812865358969075 -0.009962767639666713
P 3.7826453936679894 1.1814472727405956 10.261618030773077 -1.651039551446692 -3.69055170751776 -0.21022007933495407
P 8.252841799445546 5.335655237067462 9.985636087585377 0.9215039418301548 0.18293090460169786 1.6406324971807553
P 1.217929988454495 7.6160804503886625 8.28926505771596 1.0973709976065358 1.3783308666592133 0.92067810349475
