# total energy = -381171.80656753725 ev
CRYSTAL
PRIMVEC
9.24071617896849 0.00000000000000 0.00000000000000
0.00000000000000 9.24071617896849 0.00000000000000
0.00000000000000 0.00000000000000 13.52472219382120
PRIMCOORD
 96 1
Ni 5.549826330829673 0.5918299891467041 8.063912887395903 0.3473735205912211 -0.854402263085651 0.5200881467815495
Ni 3.3846895495988782 2.2068863372674 9.006951082930573 -0.41240828950436714 0.08087353571761556 0.5621035719813867
Ni 0.2966390046918709 8.486452030693512 9.243335997286747 0.6166158440966543 -2.0915937072576556 1.624244542741035
Ni 9.259012872412047 4.529577330632794 3.4663867220025137 0.32901455846805916 0.09775025686829616 -1.2820636220943469
Ni 6.98941903464345 8.891777567752744 10.527644008877964 0.3371932376241096 0.17440306963634478 -1.1918672663139087
Ni 3.406867268609027 8.710493196277286 8.696031475339417 -0.6979370088746497 0.08707606498390165 0.4220650958678409
Ni 7.402312718314896 4.290316705378305 7.2469651892218065 -1.7807324226598558 -0.9948973671206415 -0.37513706385773454
Ni 0.20676102618836653 5.216042419010679 7.285484190855933 1.9724081633337192 0.9032138852717155 -0.34207447697581084
Ni 7.920661455879599 3.539610157601022 13.220429384511718 -0.3990349535212547 1.230969374521693 0.3612641625303843
Ni 8.827582311934618 2.4345683450553404 1.6193957884736818 -0.07280181445307463 -0.006645273230659524 0.13701151636176404
Ni 5.8428309618187555 8.890252849570796 12.893429082494952 0.5950440314631493 0.39372202594877354 -1.1559368709658866
Ni 5.1705965764723825 -0.03932848837799723 1.7386573965223824 -0.5891492632452692 -0.16850238788119368 -0.0796715449897144
Ni 7.5004491249348035 0.7122319015811767 2.7929769175486028 0.9203112070736343 0.29458054515990556 -0.47355195089322316
Ni 0.6113260522998758 1.5705521345687052 9.672570039510545 1.3083850335976952 0.9397436047666332 0.13238275934050103
Ni 1.3987117751050688 4.332500575078859 11.833794301479298 1.8788482903976869 1.1807752701658052 1.6692115943700283
Ni 4.732475737426892 6.041561805582198 4.939201648893493 -0.495025804496283 0.08277692338791551 0.30940295488471875
Ni 4.609814469868262 0.8850000289567377 10.988323284443275 -0.49532508090425664 -2.0165745734382883 0.35554268666557476
Ni 6.572533361550176 6.176716521516546 12.615441539490616 1.1976687034870344 0.4769257524614625 1.0527705852883418
Ni 5.665030340371142 4.5005799630270245 0.555609153645004 0.3883679607257118 1.1848273287479916 0.1648017991011549
Ni 7.205097352017146 8.048599172419394 1.091706534919204 -1.0118388800709863 -0.19414631370154306 0.6319043948246085
Ni 2.4688421616422747 5.222825104741283 4.582162550549107 -0.6378068763519725 -0.04348455354619608 -0.5629003568510693
Ni 2.901852884599176 4.81931074806788 1.0219317346267742 0.7887170050726997 -0.8746648699894292 -1.5813968514478893
Ni 6.8734480456528795 5.324528427835324 4.478320001642213 -1.7176462928326481 -1.977522601742149 -1.6225355304697282
Ni 8.52641812849305 6.338669314588158 5.000008334061194 3.516825866454098 1.4392343870128053 1.3060435299487119
P 8.529079454774267 5.453242364540475 11.81184298001738 -0.11617221101890961 -0.7628460508432088 -0.8149353153392803
Ni 4.936658603780329 4.527507410191847 3.032891785513891 -1.171177599175041 -0.4845418742458235 -0.208388425442854
P 3.6818340214698555 4.160881992805324 10.607872831468802 -1.5599913891889199 -1.3093556250410803 0.6850416409692203
Ni 1.214572022307054 4.340706331112615 9.513681467948835 0.6651983809910479 -0.8098920964884181 -1.1596168909206352
P 5.2037430256763 5.360465573348019 6.933218846528482 0.021932795517349325 -0.287191451784686 0.2837153203106275
P 7.721505539168462 2.926516356281712 8.900173682541336 0.5810795988632572 -0.3580209730027382 0.31231164389108146
P 3.0452503194322964 1.120131902188837 3.2011393544978834 0.7679157520566322 -0.5001153032040483 0.6511321327059688
Ni 2.4473944592162096 7.0394020688625725 6.204060724984434 -0.2778902289884182 0.5207612615891741 0.1251034520702684
Ni 3.6164929168362048 3.071078121362866 4.484365278215729 0.26000614961914575 -1.5019510493157358 -0.09552599552346774
Ni 6.362464158942798 4.10300738690509 11.403342332853194 0.8585579371252374 1.1091271097011994 -0.8861561584584804
Ni -0.17766847920517842 7.923128727119478 6.894484536205631 1.0230892561738252 -1.4559241889636605 0.39208037658029243
Ni 1.5441883710953908 6.350451227812299 2.323060622015563 -2.369653629054719 -2.526412246136423 3.4743602410907193
Ni 8.234152754804306 0.6959451391830986 8.206423213468616 -1.8789053688878674 1.4610725659338193 -1.209942635758381
Ni 8.8684077963458 3.2655305135005994 11.110883828194735 -2.0639924006006196 -0.36008685439283145 -1.9808120711266985
Ni 4.227544519863329 2.8550948603527786 1.3982802336559963 0.6901774195338888 -1.5880819767775487 0.3186473563011222
Ni 5.063598322964668 4.788224978588654 9.195864589745524 1.3913856429606424 0.03372901682132901 -0.7145041692047115
Ni 3.183713211785659 4.484685931069751 7.03442409501642 -0.3534500658026042 0.24763965763399284 0.08384675941332657
Ni 1.732588094086605 2.940414393528072 5.653901745786174 -1.4793842197588134 0.8182718359116811 -2.059289338697995
Ni 0.7190922093283161 2.733607163758434 7.608061886073424 -1.2691502564667885 0.14184467608434925 0.8047545181515368
Ni 2.711789832682201 8.139749597551106 1.6860998987548312 1.0257359497680527 2.35941806736964 -0.7647676933459538
Ni 3.4612396430489087 0.2567865677022589 13.370554060777916 1.1052077200421353 0.8880960557936705 -0.6673354819387087
Ni 2.640802650417216 2.043381103865078 11.410212805388213 -0.41270756591234087 0.6478508908515359 -0.29012019539570677
Ni 7.915366525465925 5.930266619016268 1.133848821396614 0.2205137479514783 -0.83932402859629 0.19639937140177788
Ni 4.72831741511249 3.0229432303945885 12.586796243174133 -0.9288017610431488 -1.3199508840584238 -0.952025764568096
Ni 0.8223951004059638 8.347942934758878 4.442140749363657 1.6879757623514091 -0.7986898000146955 0.3854338177980523
Ni 4.390837216791804 5.484559151926056 12.276971660459102 -0.3761482787310683 -1.266003997528323 -2.15466878134127
Ni 3.3017541212171757 7.682426550129328 3.978039636569403 -0.018325794892381342 0.9779147165197158 0.3658713222850925
Ni 0.4790914027018635 1.8640280420867537 3.687663989354648 -0.18256117996710497 -0.2870461844560734 1.2696665339815747
Ni 8.372689572887703 0.4640428962818521 0.23540632250485002 0.14367478731455255 0.9602615222143269 -1.0821402966997105
Ni 6.489875154656102 1.8917501908494398 0.5386894021835114 -0.8884395551760182 -0.26528205330610444 0.6768267092585956
Ni 0.5715826557620637 4.548640928265267 1.1071366829205154 0.00937655611889353 -0.6657542534945179 -1.0586183023183704
Ni 1.512760695114759 1.1342055130440274 1.6459314292693248 0.9455093036058169 -0.009128187553513311 -0.9459502477979774
P 0.785763977102576 7.018231587924134 0.5520403890276209 -2.0971210648337886 -1.339730894898828 -1.9042191650623075
Ni 4.94852368345076 1.1265449592692718 5.84071853408304 -0.7650536000174889 0.7207835744555199 -0.7624097346367386
P 7.335705635554415 7.848482221217818 8.4751182922077 0.6895865800274253 2.4953978000327797 3.073497747442423
Ni 6.0328755323032235 8.464163423088312 3.919951570123696 -0.5341628797070607 0.15760990933840596 0.5910009717420274
P 1.7693384226296724 6.638040799076404 8.189949788602203 -0.49940053652521094 0.08047707161014528 1.0268536083122637
P 9.047021600823786 0.521154219019487 11.289464366094206 -0.4992239017380305 -0.6487363787802827 1.5545401362663616
P 8.193244103946837 8.02553434464884 3.7643221991848534 -2.5358685064533164 0.15883169756064905 -0.26667379144730846
Ni 7.10209108793126 1.9711649063382808 6.292701371581497 0.35771269773370007 0.1184970024973443 -0.06775422472683815
Ni 2.563346966774271 6.6544153482788975 13.004439655000253 -1.2580292068529626 0.43517489377692153 -1.0777629935676212
Ni 6.15246888206545 6.740594268065834 10.43480992524473 -0.5159401860514469 -0.3092651437552738 0.24386862062733483
Ni 0.7143212275262577 2.2199619507671335 12.976308142507504 -0.8409759623774162 -0.9883156001380655 -0.12968412946241537
Ni 8.714485185699113 3.713520437505606 5.443930494771089 0.49492707413488957 -0.6638943174676438 0.6020477164744922
Ni 8.413385687271326 7.675708549412505 12.070787254965 0.8010662706666719 0.30578104186141536 0.5102613904991148
Ni 5.722137966822275 2.3762317033423948 9.762766822724819 0.32962133881412264 1.24347239208471 -1.3050045471612362
Ni 6.860012044219231 1.7094123777209995 11.47465848461683 1.4534397319789099 -0.015035297066567654 2.7020319617886885
Ni 4.665175600947346 7.043551150460721 0.35909053735282453 0.8979894036479825 0.8278625649239097 1.868981424905936
Ni 3.354019612351093 6.335388860317907 9.754259819341177 -0.5741844144053209 0.5249930402823346 0.7070371714037049
Ni 5.218934763198252 7.218801334222167 8.357602255459422 -0.8042840062730212 0.038308665772211446 -0.19868251100899975
Ni 5.29984647472028 3.0370722855473042 7.576319101668522 -0.8788444552884155 -0.519023452962461 -0.3006303508984113
Ni 7.02919107740165 8.76666751038674 5.978928230811036 -0.09570982939949968 0.842960854017929 0.2822940144830687
Ni 1.2620231002725182 8.86139409270884 13.220064376219673 -1.0799882833537142 0.7021129946292102 -0.03349298955112296
Ni 4.736707985471329 8.085654444598852 6.1308104913087895 -0.7298562261807495 -0.029116714860298244 0.26162054529411716
Ni 2.3204917028968874 3.207748314762908 2.7278418808874214 -1.9947605628869902 0.7840180569351335 -0.5128342934326136
Ni 0.3221230519777827 8.29383854109037 2.110113860366616 -1.6159110831746752 2.0235651458235084 -0.07436761627829773
Ni -0.12259565847322637 0.7261364073289145 5.856380624062331 -0.043248269165673904 1.612993652417564 -0.6892410237625485
Ni 7.008353262248364 6.631452168387139 6.998110852352177 0.15481254909892692 -2.562435201198251 -3.126339573833803
Ni 5.4681846027235625 3.688718355079256 5.335300330772878 1.6437139643195562 -0.16651132559309387 0.39936816849095735
Ni 5.802744734707912 6.624456946182688 2.605862578188352 -0.04060080424049782 -0.023381612148733924 -0.7901953893904392
Ni 7.941212808829003 5.461799267791891 9.166339577241637 0.2989205672961562 0.283654385165705 1.760471615528291
Ni 7.010875977785768 3.679560805271315 2.253746009392594 0.3819517727867228 0.6883712195630854 -0.1256647238903771
Ni 0.9440315725320012 6.420329524126777 10.471827310487546 -0.6272154739893715 0.24970425347250547 0.3297974593806707
Ni 2.123609002384291 8.397020378785086 11.184146998873137 0.6917871872231699 0.6779407682583809 -1.4817596619695255
P 4.195469993744902 7.868996611302206 11.688768652442183 0.27577343975573154 -0.1798653783024967 -0.08669682726761199
Ni 2.3868954898997745 0.4143906797046306 5.459713638133311 1.7857262763300212 0.8969617337144166 -1.44100793397346
P 3.09744188483618 2.118036850482991 6.903964587010845 1.3299483615907675 -1.0955848522403906 0.42690108380390346
Ni 5.456217875174337 1.7928930083617014 3.168247024990956 -0.8003237360736927 0.6502546151970221 1.1306585560150721
P 3.5412088015130037 6.259901449237113 2.344997158331476 4.006013467002049 0.14672874364952795 1.3045926564347985
P 7.294418115330521 2.7777593060211387 4.131247939849638 0.2790773073179839 -0.8605140324103437 0.512039308335144
P 2.6196229287625235 2.7598323164879353 13.541899117850324 0.39651424398193 -0.020170818520920102 -0.010092094128679393
Ni 1.4666772431549207 0.3375180852573277 7.481781954029636 0.6244677360409052 0.6402975039843102 1.534552637400841
