# total energy = -340860.6326085429 ev
CRYSTAL
PRIMVEC
9.29067767582061 0.00000000000000 0.00000000000000

0.00000000000000 9.29067767582061 0.00000000000000

0.00000000000000 0.00000000000000 13.59784589465801

PRIMCOORD
 96 1
Ni 5.444067563086162 0.44628976976791646 8.452489264598661 1.0682077457790184 -0.28073309775385197 -0.9928276290758061
Ni 1.8094151797894582 3.238646547156375 5.059730817838106 1.7974127115290142 -0.025072883808227787 1.7203824608168887
Ni 5.958204363155833 7.873226673655855 11.54032860612409 -0.10372884304923427 0.29331761928708194 -0.14581497358600692
Ni 6.622580708463521 4.146782397034583 5.635463880413098 1.9004882372649659 0.3804656751594996 1.1324341598582564
Ni 8.083837041041956 5.869636334910578 4.18185377538589 1.2712356782409076 0.034306486591353824 -0.2135036351822323
Ni 2.5808758735241693 5.376319943033251 0.8250706898936955 -1.0650692001500366 -0.07895574986961242 -0.8963955767983013
Ni 5.726513448608453 7.544652574534729 7.802117686497192 0.27252485091144674 0.6209242416640209 -0.38511037302036255
Ni 8.756203368966965 4.426115905607103 6.919767182847023 -1.4499337757081803 1.3034289751440005 -0.37101327149734814
Ni 7.901135868751706 7.316529280132759 1.9191046341768263 0.6224723028774312 -2.018020047635563 3.1091417218982778
Ni 2.6011109690364074 0.6994997514527829 8.595279544647646 1.4016284037345732 -0.6614360857351382 0.32970232856370313
Ni 5.0103880298374195 5.03532420814543 4.158520238940074 0.12097323195197876 -1.136962643856229 -2.0251080648305964
Ni 4.434886305131232 6.643066652267233 13.197429632398265 -1.4592517106749965 1.8064694224146438 0.3509506964195182
Ni 2.6461150106623403 1.0729431773766425 4.6240835191029115 1.7206526837591398 1.5685799021888793 1.5142092978577988
Ni 1.5312615872546114 0.2634445919770067 6.767865535411053 -1.2764203077656402 0.1588401822010813 -2.1256371699956103
Ni 6.576406041477376 5.474754670743151 8.031037191957658 1.36506320301603 -1.0561528714970132 3.055178637418261
Ni 1.6785002436724026 8.5116727381671 4.187483925927862 -1.836106014334154 -1.085428480532679 -1.3126124414154814
Ni 2.52604229514344 1.9781803358867054 10.464888094645662 0.8726498964419294 1.5084168595457375 0.43182526057839826
Ni 6.307320150145443 2.5202913657944612 0.5346385380250683 -0.8824221453373448 -0.057218358192520816 2.282908465047675
Ni 2.204055286342873 6.187451829530707 9.259398538189638 0.5510982220098187 4.513597567779318 -1.0111485388721813
Ni 9.111618235275811 3.5560997053554857 4.303663847590185 -1.4425917335208123 0.8783603165631452 -0.3619089952032348
Ni 7.49868230245275 6.578784454907648 6.403986861934324 0.8958301912131346 0.8003815858948216 -0.8485308919065386
Ni 4.517805601479591 0.5881844285095646 10.435313081080874 -0.47823984328719576 -0.4758068083656708 0.7432298192741781
Ni 8.462868809459207 9.16835640253625 7.017943629723479 -0.9451650328925205 1.4459405953883873 0.7062514422776159
Ni 1.3289849575519268 7.68120695187122 -0.09225735626541569 0.7262078307948848 1.198418437168865 4.852798579862075
P 3.6028132316344266 4.664068736763872 8.597564122235552 0.14176085812129133 -1.0281502156365003 -0.44528318585551696
P 4.359046505008918 1.6169402148091843 12.249673688483355 -1.2292575340369087 1.3170841040335899 1.0018354890013714
P 0.7020054471642845 6.6292607055587 3.1466641949438348 -0.9156559676898102 0.7628941304723249 -0.4704766544020091
P 8.942685846984247 7.415772296781852 12.363814306442768 -2.854170820710194 0.07036029489111754 -0.2878594243859881
P 2.832736848841553 2.128336265027565 6.733612665744148 0.42199541897216997 -0.38490751298093706 -0.6046715272505844
P 7.003396286953477 4.139043262708736 13.17102273984802 1.201647228518808 2.0122057549466312 -1.53523809350364
P 1.5067713614647769 0.08612829634373366 10.389909540324076 0.30503259373116504 -1.4996866787615915 0.20814442775284797
P 6.906187928668562 4.262655726340658 3.4921166678101776 1.2918309858937558 -0.7002036934216392 -1.4152573073719177
Ni 6.741352729137741 6.438783236232756 13.21208846329781 1.9851976017889035 0.12704360651577473 0.34731438521851155
Ni 3.9673422525334963 6.563027465932095 2.3109129422398227 0.6771774077297951 0.7629113568635054 -0.14984337801910969
Ni 6.600552512201117 4.974228713155312 1.436381472741673 -0.7241833441656883 0.18432238563258577 1.8236886145064077
Ni 4.918335997543913 5.55971791613315 6.538198130414897 -2.135131739749607 0.09352619148461958 -0.12653555653110465
Ni 4.839764738247772 0.5942261560631039 0.740614715493122 -1.1138114025507462 -0.09666293734138837 0.3072069756746645
Ni 1.5955159125818101 6.707553244530982 11.763768470017467 1.756970801463884 -2.9601774040500115 -4.246928661428014
Ni 9.14453510552368 5.9110077216488675 0.4924458553991372 -0.28206904295645613 0.23642399142383153 0.6335527290613089
Ni 1.3854351138110446 0.4804023502051454 0.7678196772373531 0.625771028233361 0.8362448754503339 0.6075421639301601
Ni 3.5467161211188647 9.123055059231534 2.913651216993612 1.1080727002947561 0.5378094753207124 -0.9832392140564228
Ni 3.5929372414923195 7.588448828090602 4.665529231260898 1.7341977694334263 -1.2678883590352292 0.9522664198239922
Ni 8.669372697407104 5.48018042638096 11.21838619257534 -0.6893353832485676 0.5891975999847014 0.9395857390325302
Ni 1.7642346152917474 5.29125450019117 7.160653080878545 0.1231941508626975 -2.994509087452346 0.9753428420274814
Ni 6.376535697237349 0.9570977201029524 12.60403313383252 0.9595860934138571 -0.9414641870021656 -2.59014860795312
Ni 5.688951239629583 5.409069581086805 11.357790949757172 2.7498349402045803 1.1505614655865863 0.3942683853705468
Ni 7.3342466020527946 1.8438650118185576 8.71680346398611 -1.071710616725954 -0.14320607520825013 0.1043163401215881
Ni 1.7412680606056812 4.356788870385652 9.930669495241878 -0.6765909390987057 -3.6569890410709665 1.7041482583462135
Ni 1.3645310895215423 2.021112556438612 2.893336221655201 -1.2491797268821325 0.3498916590273845 -1.027827542189759
Ni 7.581248553057551 8.689533467499645 0.42290699273155247 -0.08455149878983503 2.2206546013137753 -2.6019414868229895
Ni 2.3514054308902077 7.3494554410580895 6.967196091290538 1.5521880910944172 1.4419708121073618 -1.2938742415760298
Ni 1.0578736985332768 5.636830539067757 5.041564756196656 -0.15262299764677584 0.3946851611929912 -0.4606982348590066
Ni 0.15681827394886033 1.3694551485764028 9.215803892334689 2.009501211531275 1.62401108657399 -0.08700818786044369
Ni 0.6112141598023726 4.120833534883214 12.96543677083337 1.20672567148298 0.816062229854872 -1.1207083867808956
Ni 9.055651194244717 7.951890839726618 5.145493061489837 -0.7090850550716691 -0.8755876389140146 -2.656167080935774
Ni 7.083323985159073 3.1151734436863823 11.343717431537733 0.12754111497748358 -0.26728057179337195 -0.8116638436768602
P 0.2736829185401317 7.300893069964211 6.9598945478731515 -0.46545631836928225 -1.2821034741933468 2.7104582381791706
P 0.2120727200186186 2.918768522139682 11.205100523804678 -0.6970672046751867 0.35545886870251686 -1.775336448455265
P 6.331596690353651 3.464772345904016 7.7121133195163125 -0.469880672689223 -1.9127068908183444 -0.05287370807057991
P 0.8512304504234515 4.0540800173187375 1.47690276249219 0.2029608266693795 -0.7373677040664461 1.0498554685240757
P 5.703416824437919 7.489698217346994 5.506787068496638 -1.0292269936404468 1.4071593608551314 2.802091583516452
P 6.760445071322152 0.20768287491782314 10.440833601628796 0.21146629303722933 1.524169494394304 -0.6076362663058632
P 8.51469220834225 2.315469090467188 5.986710019744744 -0.13583806487895314 -0.5783359746798492 0.8628969308202236
P 5.616075165617648 8.145805859713501 1.8330302237623721 1.2683670984438606 -0.6875214699682805 -0.09963590392678325
Ni 9.183379427992307 0.6750429721018116 11.63786585439116 -2.817640329884328 -2.302557863847486 -0.4437343533111584
Ni 3.7721451190568556 7.388281182171792 10.495945900333385 0.4447640801272534 0.04661230054190036 1.308880999397507
Ni 8.476767662942361 8.682407517886292 9.416195443580333 -0.8818014810342104 -0.8514094990059143 0.30863599481170717
Ni 4.087814467183263 9.25276220727853 6.421691176905913 0.2603635329585645 0.09497269412315901 0.4013175789078443
Ni 7.064807664977304 2.2013145364915823 4.17069009734755 -0.2747691668609332 0.8245694959949347 0.5797045728926017
Ni 1.439060904121714 1.8994139723638614 12.519196241656003 1.4860559753520344 -1.0419835219751667 -0.47839976590382777
Ni 8.326862582092975 2.829949645602953 2.1517915093481323 -0.094290837564786 1.061058793439063 -0.8468828147801544
Ni 6.905091628728046 8.997556588074826 4.420714305730695 0.2445684749078369 0.1764645801510638 0.5893660072417656
Ni 2.5539421995618286 2.8037220631277244 0.4201439452543534 1.8182913547502362 0.9594164006052122 2.3071166868627624
Ni 4.739713432659483 2.864603872536217 5.425744488995604 -1.763597819862098 -0.8950616884782263 0.35391672102637756
Ni 8.705113933603421 3.8853241518989514 9.515038032030816 -0.5837466041724592 -0.18304223336858153 -1.7720215251494191
Ni 9.036837572384165 6.469776936245991 9.040772174289323 -0.31285928886443537 -1.176332146792787 -1.210595181740715
Ni 3.605265970484395 2.373201360216062 2.6852622092162273 0.5844611137409804 -0.8713185792250154 -0.25498427092452214
Ni 6.457485369963764 1.1417685160151454 6.134273849873705 -0.10749345229798907 0.4208461358590752 2.0624823917139965
Ni 6.882886909593863 0.8574719275424237 2.3742521358370143 -1.6074521537740445 -0.9644879015908486 -1.6452640824154956
Ni 4.594035610055308 4.311431783016163 13.398052521512716 0.5077411951804224 -1.0464752391979333 -0.7902139013332004
Ni 2.8367968748924475 9.047140933689525 12.228773380464837 0.5838908430598073 0.4777533905690805 0.14992025400363213
Ni 9.055994949310811 0.8271499435096913 4.32418323783276 0.4424986811318444 0.8636199250291773 -0.021935109510194478
Ni 0.9165411257780796 2.888806087324729 7.43538398783639 0.875900027948111 -1.5701606164124378 0.5821311800562232
Ni 8.546902987103007 2.293347987430164 13.228161335307071 -1.3134045982994735 -0.4160407440506319 1.2969253696975278
Ni 4.671510569410934 3.6445097920838867 10.594965011655646 -1.6906052295544565 -2.36925176563061 -1.124263965342638
Ni 4.289589400302999 2.4501467509563537 8.372071018623073 0.34903265346119894 1.1950942578916386 -0.2250070078361415
Ni 6.212713181549886 6.982306449114736 3.6624984017858133 -0.9146673785242957 -0.7994192219815522 -3.3731629062140875
Ni 2.4283508216305 4.406568320227053 3.1577191720558697 -0.47786369089469954 1.0850548992433442 -0.37620792832441013
P 3.740984186849305 7.960382518926886 8.421349700949273 0.03279159260872417 1.0769862633025968 0.4823911464514079
P 5.046185010098509 1.3598485880806939 3.8485981038916615 0.5330930436816497 -0.9099038956973813 0.5377282284608158
P 8.922952448054957 0.7519595617419713 1.9242990519458307 0.6935401653585346 -0.5742664325961658 0.21059006107986314
P 3.254171269195379 5.479567241668467 5.000961708484473 -2.9210565267891497 -0.16187434104171478 1.7047398691836253
P 3.650186396013169 5.329225498978367 11.551914080919206 -2.6540135249278807 0.6275350621123192 0.22823502785513597
P 3.198371460358601 8.384632014551698 0.9611976960669335 -0.5794225228758085 -1.0898615766033684 -1.1098483041379401
P 4.268592469238877 4.202349938934811 1.9241634080548857 0.3930337416324973 1.3643209255333666 -0.38580097132948393
P 6.878343768314946 6.519695746249322 9.94678324623197 1.120946985154263 0.5135824844525477 -0.5588241298991665
