# total energy = -340876.9915111517 ev
CRYSTAL
PRIMVEC
9.15547273135559 0.00000000000000 0.00000000000000

0.00000000000000 9.15547273135559 0.00000000000000

0.00000000000000 0.00000000000000 13.39995979170300

PRIMCOORD
 96 1
Ni 1.7331309793209722 0.8317334938293892 7.096872891909841 1.0709531697346395 -0.1569463076124781 -0.0005658998057990254
Ni 0.9896150425504696 2.5804882872877686 12.476622232941631 0.13461781931860686 1.4065523233987518 0.8334811966622679
Ni 7.782609556110895 9.197038531257736 11.215350582610272 0.5338859718965902 -1.7485236991377953 2.626503749543386
Ni 0.2904619486764263 4.9693891531636485 12.120451456803046 0.5107198181927721 -0.5851069748550956 0.32395179923317113
Ni 1.8519781702484182 5.259068308925484 7.318870215845843 -1.8959679807971088 -0.251426892590567 -1.2346766481699512
Ni 7.832506882245598 3.48191781693375 9.867622888164671 -0.15918882378975166 1.3075324557894126 0.3338045236575348
Ni 3.68211138266979 8.837704539306392 11.338992494582993 -1.2214205544909933 0.2590514990153603 -0.8652338064835163
Ni 5.579280966092684 4.887868824374034 10.1581342763936 1.95992854280947 -0.6489528656664629 1.3559031337833163
Ni 0.6869003247793509 0.7231953651455534 4.9088742253558415 -0.014783843177393893 -1.125585512367539 -0.20691184089732753
Ni 7.993954487577589 2.120700449033679 4.086813488418437 -0.8652415197930002 0.09152021679818433 0.21297887302701385
Ni 8.25683557478965 8.62627720858553 3.3984171594023134 2.2550449058681874 0.04480121547509058 0.5323682497004832
Ni 0.5458025885849013 2.8572490710906937 6.10108248303316 -0.9322218424682912 0.8956756679131412 -0.13463093194472944
Ni 4.101248922201297 8.8349029646647 7.271019137856298 -2.055599548551234 1.4074480957401438 0.36318580503312936
Ni 6.863665607217998 8.578970881220757 0.2328895897896642 -1.2219183200630181 -1.8106623774500687 0.4865905292447361
Ni 8.339884867517704 6.839934622017787 7.516613777091306 1.6967817906788134 -1.5053114811475365 0.4437587787911906
Ni 7.7527535596842405 2.2567690840821113 11.905274960017566 -0.7905787408717869 1.103785642883628 0.999235332374363
Ni 3.998451274891123 3.4642935320146124 3.9262548794841843 0.291656172424259 0.6619888729148147 -1.073099526653681
Ni 6.059842571869644 3.140537706918214 8.330138866844237 -1.5821815521327138 -0.9907468352873775 0.11288839806131526
Ni 4.602968825353908 8.52072376399709 3.311062963417647 0.35868071807392415 -0.838430313137427 0.6235603937352874
Ni 2.0530689723076145 5.873418837052245 1.4954759659986268 -0.388026518225893 -0.1859015571942476 0.07735986613740226
Ni 0.13037026884912264 8.64126471737131 9.497676787823837 0.6721416450781005 0.1491988024565753 -1.480575411853437
Ni 6.117778403022012 0.6805226225067941 7.43697764458032 0.545298584608906 -0.2242215358203687 -1.1486099982871703
Ni 7.175162254388825 1.2033678633333895 9.419890060795273 -0.4924978958681066 0.7276332503875018 0.1243074385315343
Ni 1.1867873023003714 8.135342452256161 1.9406626564142535 -1.0093981318399776 1.5883056627525807 -0.15561601883682877
P 2.469881021777063 8.044529318691003 9.578251356285064 0.3736661357391629 -0.4290440982888353 -0.25584121960817874
P 9.232653320003422 1.622011007339891 10.484664209713635 0.587339206619724 -0.10521211246298011 -0.13179526226814722
P 2.9375517220131675 2.015559000716077 13.362171595215017 -0.5708288676695266 0.1966690801233968 -0.7828857431029034
P 5.563469464765229 5.263572801486636 8.071291680897305 -0.6074305780529603 0.9243316410869372 -1.6671305434712838
P 2.5672036964214473 4.868312734718305 11.303039868895219 -0.5609820567824338 0.4720478555438709 -1.2764200506553245
P 7.020096013518464 4.990034744068924 11.799495375253803 -0.030096305164748167 -0.5500759513928913 -0.2683879459249378
P 5.5177561896476925 2.623171100946482 10.550230211801903 0.2258744980427594 -0.5276585029296396 -0.18859478775569458
P 4.469253146785588 4.538560075013057 1.593282049600793 0.8197599904214334 1.1954616685333863 0.13165796535933455
Ni 5.6907305350904345 0.9760191656128486 12.073739319615546 -0.9822100014609602 -0.5434065097925157 -0.865037117091678
Ni 3.629485725674878 4.091708919663248 6.170453499569424 -1.0736672262316929 0.7533100863283155 1.372775226948307
Ni 2.0253187345985713 3.0875824529066316 8.011728922248766 1.4492362354205235 -0.879763367558259 -0.5332488525332235
Ni 4.9315678955008115 0.46286041488726537 9.303431532691413 -1.479633102544826 0.5043162286592734 2.1473177402928374
Ni 2.968103534363902 9.14122676976835 0.5673023850917129 0.21988022813253746 -1.422554355253963 -0.5518003902831659
Ni 7.915794217263468 6.8592526693837 12.1914576407609 -0.4793125075260842 0.6407207075646578 1.0102869622028343
Ni 5.816499263367942 5.394917212629471 3.0828353403193205 0.91932261790812 0.6941315190856304 0.11682887076630201
Ni 8.449924493721923 6.017251312937784 9.99934450478214 -3.3423888582560237 -0.24617541438364057 -0.19223675538365603
Ni 3.3239309802767893 2.3479850584454227 11.154260691117832 0.19941553252028238 0.7099165498340291 0.5355757008941873
Ni 3.6068717081422688 6.632966006494651 6.886587248632832 0.1562816774452857 -1.687821496161732 0.6559352105215671
Ni 0.7711251802001926 7.214530786935471 11.207981342645901 0.07928150864014732 1.8628480583146887 0.058753306779808494
Ni 8.585398023045814 4.484735051096374 2.7964915232567273 -1.2001691013113849 -1.0747260065135105 1.0766263088600165
Ni 6.842745352132164 7.124761377256433 4.614946014720773 -0.17908581982399477 0.43229911489102324 0.29259436796781224
Ni 6.257591626398718 7.299456951564005 7.18942648083247 -1.4735503866858557 0.3366671899173105 0.7302046106591037
Ni 8.565832777917398 5.533878977046448 5.190005831818712 0.16553790593623105 -0.7981334132905932 1.2643944869493577
Ni 5.404951610692523 2.5662515272621795 5.897670768648249 1.4696029720023336 -0.12339212580611654 -0.8318842844887931
Ni 1.1447087498388862 2.734767157507197 3.7154876583439296 0.48611616071147895 1.311338202688748 -0.774609104916408
Ni 1.328926015739136 0.4171828461132017 11.804547365081532 0.5639521951543512 -1.3172779652119508 0.23898146773836262
Ni 4.441008513551541 1.654146716465177 1.4309280524729597 0.85396003334191 -0.05408726876270684 0.41067073798797016
Ni 2.705753464567587 0.9608485473733618 3.0337638378208287 -0.7637989016747814 -0.6909808892717906 0.13920800979245057
Ni 5.086002408755889 3.229821876544934 12.858681939192344 2.985773507351561 -0.9463621385244153 -0.4756026627746648
Ni 2.6799716534858757 3.515619111888217 1.9143452501804545 -1.9209616746279692 -1.4915897606860697 0.6760610347371647
Ni 4.267658793728702 6.8879733871973805 1.6000754103332608 0.5053660100800264 -0.5291980795026177 -0.7327137502342026
Ni 8.677575322041077 9.111984190011608 7.076344491054937 -0.3416476738510374 -1.1570925818368847 -0.5766115357895747
P 2.790304254816024 7.478061912708186 3.0970254074342156 -0.9552455570569743 -0.4628757021262997 -0.057080032842443625
P 4.5741931747041145 7.847238037796192 12.972809483950535 0.24661095925916238 -0.05692319554960519 0.6553865371069487
P 9.62881062309491 1.1546241267570299 2.2383024956759288 -0.1304361771370915 -0.19839300479303898 0.9148879791755341
P 0.49108215943959976 7.764060568450545 13.29025444172498 -0.0014506164035975016 0.6044190449201462 0.04145518182099312
P 0.43656040405156854 4.482180674217185 0.9496367555229842 0.7355432492631978 -0.5083312633559375 -0.7664440526071121
P -0.10304209843087028 7.707214238547724 5.370007002547397 0.2707387055453015 0.1631928027428222 0.008662303660688308
P 6.572219445227906 1.5952312497354864 0.5252787654663391 0.5933298769855201 1.2772895977444712 0.6715011832806241
P 4.823231187216052 7.771806098342281 5.592767892905351 0.8846716034931539 -0.025130476519040587 -1.7238747902408635
Ni 7.388796054026836 4.439708436430233 6.916013853390548 0.561611977056949 -0.10211984669090154 0.30882779910753905
Ni 8.738083841018005 0.7110121776432691 0.14229710311621946 1.0654540942932813 0.6375114565987409 1.1789068494984987
Ni 5.4998938624387375 5.442241850939614 5.66672213906786 1.6928210062588522 -0.9189426088608817 1.1775544492356624
Ni 3.5950703038509606 4.80410540477653 9.162276117019047 -1.6277767242640093 -0.35349763121108796 -0.6716521070361917
Ni 4.508704078586402 5.848735682692766 12.059923711333479 -0.4330514196760155 -0.3026496953212853 -1.0367708674259757
Ni 6.120937041098429 5.999837603890407 0.2515878116547842 0.7524762775731106 0.20163028078341405 1.1254348457222876
Ni 3.77222870031087 5.897863949121907 4.387991002325699 -2.188385199757109 1.0658330748992548 -0.9074482350680372
Ni 2.2291928003540886 1.0025334145093807 9.458468476049182 -0.03501868216703002 0.38779331916916443 -0.056609520963928316
Ni 7.537599951580475 3.9372835618808564 0.23558587649547522 0.37422226535294906 -0.060695518107843856 0.5555426309344174
Ni 5.833940438833376 7.727914762289112 11.106864640120742 0.602843215792594 -0.6064196202899428 0.15144260418542949
Ni 1.1148435979395463 3.542792554818088 10.101077370619018 0.5282663117169676 0.3541092966531579 0.756652006217355
Ni 1.4124239266287675 6.089716879241669 9.44785636765969 2.4312922278021225 -0.7225985161770716 -0.9830983176031842
Ni 9.131348014740947 1.8202361464485988 8.319646695146922 0.3713976514199604 1.4588025389527197 0.008937668809262026
Ni 8.613111638864115 6.509669255842165 1.4907187823913621 -0.6837620029258482 0.09846373799555301 -0.9233183693310743
Ni 1.434955544907209 7.655897814146805 7.413741970452382 1.1156775092252076 0.07188238796259877 -0.012837518084300472
Ni 6.06383435796042 3.2066127532877826 2.21832342318214 0.9332693098961992 -1.042034172707444 0.11655684805183798
Ni 3.249103302020105 4.224957669124619 13.241303791465933 -3.2336211672313016 1.3020734895573705 -0.7060971760879389
Ni 4.56803154158693 7.060810400549845 9.108474897331346 -0.5553703670226112 0.4037480427262079 0.3446936597662128
Ni 0.6997481995985855 6.351755662966686 3.619289275745296 2.1940557677793247 0.9829705337760682 -0.31059594675155544
Ni 2.7112009708153204 8.29939021183077 5.156465673183507 -0.5978570754319124 0.12009879976682543 -0.07271671093843605
Ni 2.8157290024630095 1.9842655950778358 5.362583745294184 0.535723025105329 -0.8552484131360304 0.41716303058053317
Ni 2.378921400648939 6.849383069828982 -0.7965700698870856 1.7968956626832795 -0.15675707441980744 1.444804424901415
Ni 6.525398357915453 0.5298693194707318 2.5576499606743712 -0.5496350072007309 1.4425961043961866 -1.9615982172024087
Ni 6.077118948826743 0.35415748769509475 4.8973236810161085 1.7153297288843297 -0.10415204662958191 1.8471941538275156
P 7.041318399202912 4.09433654032392 4.617251362742923 -0.45082185628555904 0.17633628210331567 -0.6930678537078063
P 7.12145625161705 8.168695839248588 9.365727199936506 -0.6443505910077613 -0.842591129383336 -1.3775736767782147
P 1.9017930971289538 4.6227721127721395 4.73964629933591 -0.495283943253676 -0.4666256560870351 0.38453701701539583
P 7.655705549220413 1.6750669715510114 6.508186069267151 0.628734481737059 2.118308497544681 -1.6656575584701832
P 6.7962355508910095 7.4238432034660375 2.3585001188244514 -1.2984883433092733 -0.3760624038854814 -0.3901394508038378
P -0.055104958998082765 4.626443457318931 8.468118249042085 0.4909991998353931 -0.1940108165649433 -1.5358407600846453
P 4.782205514113373 1.471980276446427 3.715460191925874 -0.381580248379917 1.4893449305159512 -0.26720189603663663
P 4.017146750114437 2.1842302739967443 7.526583171298293 -0.7151166059777297 -1.0315294165213782 0.10645189840735217
