# total energy = -340893.3988358738 ev
CRYSTAL
PRIMVEC
9.06586333409341 0.00000000000000 0.00000000000000

0.00000000000000 9.06586333409341 0.00000000000000

0.00000000000000 0.00000000000000 13.26880738095851

PRIMCOORD
 96 1
Ni 6.388877126576618 2.042493695679803 11.258397139357221 0.5746693244615393 -0.19366526030006648 0.7377258587368134
Ni 4.791843695132253 0.43421315409601824 6.339796355278227 -0.9797797947529127 -0.18315021970135553 -0.503549525696578
Ni 2.819891482601586 1.6508846600661198 4.749237763477237 0.4346372761058967 -1.6694967297106151 1.0421344457307342
Ni 3.327652360151618 4.469289341069395 5.027259689911659 0.799924443752745 0.5670591162144492 -1.0175017347837185
Ni 5.203452025415902 4.616518962755806 2.4428938990366706 -0.6016592227868218 0.5352494279030201 0.5102516203071019
Ni 7.385088592625448 6.171649973545332 2.4981983855621395 -0.35457646609756355 0.20075507726731232 -0.041006010098716475
Ni 5.146944498816677 4.477357959499253 11.815833508844968 -0.07546599154879906 -0.3831704756851724 -1.098146956540612
Ni 5.574590341462594 8.016127080747637 12.519823186609166 0.2657952454970971 -0.3009828491418236 0.4008113286953871
Ni 1.9572655138156434 6.5362699338043075 0.2734436654152318 -0.5802185364145427 0.19533262070016036 0.49410509245422646
Ni 2.606970614687359 1.4706190321343093 0.10682306849328711 1.4926482838575712 0.42469019219551374 1.3247814726778475
Ni 0.24281101955832204 8.952268135879336 5.006652982393603 1.3823423018114516 1.1479502532159842 -0.46551442530072734
Ni 8.519726726995078 2.2981057143650467 1.3687042220881298 1.3073409086038967 0.37148815425123766 0.24952350492026706
Ni 6.871870065306005 0.8336949854900265 4.921347740690507 -0.5945578358553502 -0.26336169635494 0.12649904686621438
Ni 0.6559270029261107 7.592551810770265 2.7436974336198467 0.8060495828138763 -0.24288131701340104 -0.8597835820022225
Ni 7.753661269328714 4.156045628722789 3.8582238566132983 0.6797371980371713 -0.5129530783986649 -0.8260319394730742
Ni 7.675087431203337 3.7781532444398653 12.637344880505909 0.07042482958046581 0.05836249909929303 0.12716213437151003
Ni 7.865996382771837 8.70118904889626 6.957910548531194 -0.16756470655827269 0.36119885651008765 0.3928347382478138
Ni 6.7367343054009785 0.9716973714035049 0.4258607741416038 -0.11458429770649943 -2.2314113256096473 0.7620045287785199
Ni 1.76319257591903 6.6016348089495684 9.10935507084528 0.11460640919368649 -0.5189272937042289 -0.7735562381718613
Ni 0.1433956680527176 5.027338562923276 1.2250918799000485 -0.1624505252601589 -1.1049248986943938 0.30596179041365373
Ni 6.414406597923228 2.1406860622121626 7.040310181013201 1.0563174220993357 -0.8397418328599988 0.8155518658773567
Ni 3.4240950150469405 4.156643975707476 0.36116858606094543 -0.2449888502747071 -0.4867108568726843 0.07216983729603053
Ni 5.898966934069724 5.5013744286091795 4.831079845359878 -0.2893560635361726 1.0718687395703734 -0.7765178919033465
Ni 5.344689111392046 3.127351174096226 9.277138818042003 -0.19169296706504405 -1.0347903466608372 -0.22966430410249478
P 0.2208244876301272 5.43061536473834 12.364339096293106 0.796129495486687 0.43548651148006934 0.18214903213035083
P 3.919354066962393 6.0478646746225335 12.708160152729857 0.9219376869334638 1.3306173626333342 -0.3958215887902796
P 2.428744806021524 8.578591378079429 1.3688238914850668 -0.2158345973082541 -0.4731392888358367 0.39364129330950914
P 6.263088271841462 7.849967936272972 5.824820863631024 0.11626605628429654 -1.059385262391382 -1.1901883359495888
P 4.76630515792224 1.2306546936849487 12.649406105179036 -0.6441546729468712 -1.6252452160914075 -0.5866475798693381
P 3.920233455712614 6.012942968789033 8.01918952940562 0.30292891712460085 0.4851967342210031 0.383153763514624
P 4.767483720164804 1.226720108967467 3.6585817588274017 0.256413547171881 -0.8126010107791489 1.4380403667047041
P 0.4607280847946788 5.477195770909817 3.369639999922458 0.2659438552598194 0.8367830073419912 1.1721281360137685
Ni 1.6627881387160124 1.1563236796328007 2.7263018549196074 -1.2093407405083239 -0.25305902887735127 -0.8545706703427153
Ni 1.6889159570473078 6.474803379922913 5.0227874994943 0.6513984989934781 0.9618311806942919 -1.2236342743128603
Ni 5.977232532839354 5.473134264104674 9.240397593423252 -0.8710013050949129 2.3223090783324842 -0.19031408443964645
Ni 8.629813506313926 2.3613129140200755 9.936545299342697 -0.36458062849812695 0.06461953575259838 1.2980463706758483
Ni 2.131212234954632 5.129782819392269 7.053657851703404 0.3997852014237179 0.6009879077514101 0.4626252766783904
Ni 0.6247259274337492 0.02398374163616999 9.149426187092445 -0.2679734840953385 -0.17344636215003031 0.59826433817266
Ni 1.3675492310904174 1.2246530921112786 11.304321177018224 -0.5130682638202906 -1.3185612027997484 -0.478550175438763
Ni 4.1881659827643505 6.983824412486147 1.6226553745976995 0.12766581348080594 0.6489433525847662 -1.034398253428741
Ni 5.72743173259629 7.711396214137702 7.951027835400123 -0.8215649048406561 -0.041925950809824565 0.7446791501261949
Ni 5.011038140522281 2.8027660666307956 5.142446017395445 0.5532332660749505 -0.15816269651808246 -0.43429557649576167
Ni 0.8618725955370422 7.6186614973747515 7.049186567872385 0.4263259280267238 -0.3816586670263363 0.05295289804794751
Ni 5.222173033345855 4.332449198844352 7.057838121319143 -1.0253875652896984 0.9496369526209453 0.646967202695002
Ni 8.191252364129188 7.351109736585998 9.090645848537754 -0.45260003123190434 -1.1360190489960371 -0.0921712201186219
Ni 4.6472522396965035 0.17810795244157843 10.648550106942666 0.20393270366434557 -0.26325242447058533 -1.4313110184006705
Ni 8.250234871437796 6.969890180433683 4.620172505707753 -1.170183610692888 -0.5023971572596896 0.8641115199536151
Ni 7.147263797939511 5.879611315701467 6.9726525490129845 0.42950149754122807 1.0458640879764955 -0.31872886027133496
Ni 2.571622813273854 5.168756966167509 2.4190624639056937 -1.0314376281385202 0.15391600542658654 0.6608460175596231
Ni 2.320462133520139 5.063973716940197 11.477173648444309 -0.5965046751690759 -0.04627959979282997 0.3583475031042216
Ni 1.3135076193371724 3.344460470903256 3.847954046548867 -1.0727174607239138 0.6203400870257768 -0.23010987628034565
Ni 3.646145207409334 2.8631719144938845 2.7919958209064455 0.21023242063012826 0.16703454508641555 -0.4721815529082578
Ni 1.1378383841513604 3.2043022226722266 8.188724801412059 -0.940401035844974 0.9185633711445923 0.2709189398769077
Ni 3.5264758104721032 2.666687456931718 7.501825182751375 0.5907978545922857 0.29982533849861265 -1.00708285344324
Ni 4.084806074091519 6.849196340931762 5.87570664833322 -0.049258994136128074 0.9100036545000393 0.31687200956825423
Ni 0.7333095866001582 7.268882355508673 11.21707856030562 0.3172543326083375 -0.14488346291067306 0.5363388043124568
P 0.09828302516640292 5.588733088373358 7.964694624482159 -0.06011573434497389 0.2882083230849746 -0.7458361465487735
P 8.559154166940532 1.4562587045018418 7.954835498029944 -0.9254606124850578 1.2145883620605082 -0.5028450434303856
P 1.6474940271528982 3.192716049241486 10.365844755473567 0.6721061638544747 -0.6182569792445031 0.3742580036868909
P 4.099184533450796 6.214440848813797 3.663490923860849 -0.396640228036833 -0.2739620975786056 0.7421898080454379
P 6.918069705214501 4.098976018592496 10.50423788009977 0.9624225344213876 -0.8954046736399418 0.2311761127613309
P 6.297828660406877 7.62277739936032 10.210970797764618 -0.6561370421197281 0.04663209803624227 0.2981965446459381
P 2.4553168516596315 8.67758154059137 5.8127197491589175 -0.04488426210720012 -0.6181754752742903 0.08401208134659725
P 7.04825550370076 4.053039288722728 1.634571545456358 0.7494675726537738 0.1963960289676682 -0.9554221918441546
Ni 5.4466256795103964 2.8278603765339967 0.5357481044655563 -0.5415548012957576 2.0940339412680324 0.7379721704196646
Ni 1.5108623997861554 1.1617722635388066 7.199681713557039 0.5146911441356942 -1.1410686956048026 -2.036139382944093
Ni 6.915114233744687 0.6339087404760008 9.268275123391584 -0.8230278625394278 -0.23027108444855826 -0.3153913112576697
Ni 2.742967631615798 1.3779024470981687 9.34377472723655 -0.04856531050321314 0.8020851988494896 0.6792556304150624
Ni 6.55118327910444 2.1699597351447624 2.847140748235998 -0.34593575970343005 0.4820970122497568 -0.5737406419996829
Ni 3.879536794890551 6.613710539004144 10.25091045899242 1.1972017911529447 0.8729077780890064 0.6862986533047729
Ni 8.202901998603759 7.314438319115459 0.3352909855596097 0.30773610870525714 -0.20806986576117067 0.018468491117832712
Ni 7.580575805213138 3.950395583258839 8.334881024871397 0.9372344651915342 -0.6891510351519036 -0.3875035558428875
Ni 3.130506094560934 8.396104613613556 12.369925481322857 0.21285674562685275 -0.8147522527941968 -0.19604327361393978
Ni 9.29831214202283 4.910008158744364 10.033288034316705 -0.7006760050723674 -0.37892738413810223 0.6939962790593467
Ni 8.850286238443964 2.4857781526981997 5.700345652503156 -0.39916093757615767 -0.6613142154452932 0.6594506798739933
Ni 3.8153142185342372 2.527036897051331 11.248817241497859 -1.0281502156365003 0.6685300164674423 -0.060643324713669754
Ni 1.1105320035775013 3.0662744523412164 12.671844117104767 -1.2170635630738782 1.8808172411985995 0.4846622018737718
Ni 3.271235492186437 8.456782437378775 8.16610184587288 0.3106327135267618 -1.2796123323403767 -1.2578026926644532
Ni 5.491320386093771 8.102978052161172 3.557778423634593 0.6687842985700934 -0.21247570813835023 0.589208912838611
Ni 3.0314524710051627 8.351455236347203 3.6052146473114393 0.28240791435311363 -0.3684172286353978 0.16947966419279842
Ni 3.2472109541649474 4.335314011680122 9.382559397466638 0.31166963943170845 0.06433517174296018 -0.4940307875728653
Ni 7.380057038436042 6.12917640349602 11.525378657337841 -0.2481865312763984 -0.511273633813713 -0.945921708552887
Ni 0.8633884078982472 8.929703201865944 13.197527300018832 -1.33877110208872 -0.19521820660948316 0.40705756671541504
Ni 4.488572432530416 0.6792480299474238 1.6051410330868632 -0.08371229071799131 -1.181986516865087 -0.28816898520660694
Ni 6.11606716501335 5.7894603700087535 0.25406084945676216 -0.24757615138590908 0.03604815187280888 1.4139820402039198
Ni 7.867274669511849 8.59373136996467 11.45248004970358 -0.007468797573219396 0.8611033292549106 -0.12727500580029047
Ni 0.0653104799648341 4.918838309700187 5.777304860356221 -0.37542836984590827 -0.5413259731144032 0.1356236348753019
Ni 7.756435423530441 9.035719408516245 2.763680409735684 0.15585281743798318 -1.370696232932091 -0.7344831834297996
P 8.644346085351076 1.6005600523086525 3.6654944796732076 0.5949255036074141 1.4152251685824013 0.37104592450749646
P 1.8289744807808894 3.0783229848055784 1.6032299490812294 -0.27665327125752354 0.3585794166093696 -1.0297586977742008
P 4.747439096177818 1.1134149481400801 8.500197044049457 1.1177140800392622 -0.27209162002877013 -0.3522138794026579
P 8.305989931374459 1.4122258059469834 12.435393707310928 1.9796581600279128 1.1802597639819672 -0.8823828074589771
P 6.427035345645468 7.906294145604109 1.4407007763136612 -1.0318400057832615 -0.32830467688522813 -0.6426878585933576
P 1.983348002829917 3.1446307097448893 6.042216641721632 -1.2899929042437526 0.3515734176051816 0.38408733107248694
P 6.906601388008015 3.8563916456192824 5.798561590280366 0.8612218571106458 -0.07801421189194951 0.7777219395137767
P 2.4066150334515406 8.376540480387 10.196056545878147 0.2990835752365817 0.7256211050534793 1.3798249347062368
