# total energy = -340895.93998265703 ev
CRYSTAL
PRIMVEC
9.02660472748932 0.00000000000000 0.00000000000000
0.00000000000000 9.02660472748932 0.00000000000000
0.00000000000000 0.00000000000000 13.21134844187458
PRIMCOORD
 96 1
Ni 6.3099668499130575 2.0522256823681064 11.480529747047909 0.48101766314264904 -0.1389465286009478 -0.5125645847109948
Ni 4.7144873707084285 0.025706867825874873 6.044773324668786 -1.0447384590124846 0.8990633534384516 -0.481161644919681
Ni 2.656277049354208 1.3172614658863535 4.757935127619235 0.27260866887450474 -0.07818930401723308 1.3387369064166752
Ni 3.345413193237918 4.518014290509689 4.999874313563313 0.009995163539498914 -0.19444841832299414 -0.9668224632612962
Ni 4.909182209760466 4.559590832244293 2.526710066635073 -0.21177199720310624 0.09198892890448673 0.30400286691507
Ni 7.225111124919438 6.1602335293977255 2.507329043456964 0.0773827489555377 -0.6180314934972582 -0.10106492306382595
Ni 5.060116068714942 4.497009381127052 11.293536407216012 0.05994424176411612 0.69715796461678 0.24947439684988645
Ni 5.7483044190940635 7.863526776400469 12.269458617699474 -0.6193864648632559 -0.08867451981927309 0.19435945815361366
Ni 1.8088052305754283 6.542185285141984 0.43769555372125407 -0.00982084274516373 0.3777256505205172 -0.32084770638655064
Ni 2.8335144347122103 1.5996317174152055 0.6728882552336256 -0.34831531567920015 0.18593858107977007 -1.0892170010408337
Ni 0.3999165046283667 8.938974526149542 4.855104723030583 0.18470625133456575 0.3690252945330419 -0.09209125881030591
Ni 8.398425323970852 2.2362149681206986 1.5434817222219561 0.13558326855566974 0.7698669622457323 0.24495773992645556
Ni 6.8366963201343705 0.736084418138128 4.663632381894146 0.06391942436178023 -0.11829954177455757 0.4344470144719615
Ni 0.7731991091173233 7.630712585254374 2.630497968689889 1.2723538510057506 -1.106966611714771 -0.16984578928296556
Ni 7.607550317323198 3.8946550158444033 3.6946462145433085 0.4228976190714652 -0.4587040872471132 -0.25609910125525576
Ni 7.700542400030513 3.7514840370227445 12.63887422468971 0.19942324582976623 -0.08603116865915506 -0.5873800871599885
Ni 7.819115880756906 8.635843083567803 6.9631599561213395 -1.1372791466553833 0.9138451397333165 0.15596851708024106
Ni 6.712093067397835 0.7207590484991764 0.3032217086297934 -0.034275376243102264 -0.04334519975485438 0.6385180434863842
Ni 1.9218002695319583 6.422564718258141 9.157538416289032 -0.05532654048644665 1.1474139210965402 -0.4254337552297576
Ni -0.08448992364091835 4.845788364210721 1.2223909467189924 0.4489498360738268 -0.384419517600925 1.3640936400139088
Ni 6.214853515076426 1.7594026224743666 6.862516020520315 1.146417875731858 0.7832513539724381 0.08112807493058287
Ni 3.3873056661407186 4.643411884469117 0.5630236428236786 0.5131004026098066 -0.33053510887764365 -0.5981470958685053
Ni 5.911279768859214 5.568232679827103 4.756204727478001 0.31421914532643946 0.03462607471430165 0.112504018138703
Ni 5.397160465551328 2.9045718677419115 9.243108824525182 -0.9006134715343909 -0.45724781441656087 0.08297438411070227
P 0.32232742036133133 5.506499729561588 12.391465818893918 0.14579209076787147 -0.6351378141602416 -1.1480842076906872
P 3.9972243262504628 6.274013882972343 12.468236190105085 1.151652127547604 -0.25396971361707876 -0.14200768402477476
P 2.4296099760807284 8.488429600487512 1.367850169858871 -0.009198378669816416 0.5123339567574273 0.006107398449318514
P 6.363783467764059 7.738526353052488 5.6700997203792864 -0.421489425870029 -1.3978545385144376 0.39105064976419746
P 4.6566629403237405 1.2039956287856555 12.651715472686162 -0.05587058591537474 -0.9960373942623557 -0.28901487814667
P 4.21494603416159 6.022234795129678 7.966575399521705 -0.921344276323839 -0.28212046501968185 0.8000810239352673
P 4.774288627545544 0.9503299805386187 3.9460055652625137 -0.8229499581136408 -0.7853840840447248 -0.755472384086957
P 0.17618849387959074 5.6210473445446825 3.3849722887984703 0.13536138235285075 -0.5417216658909251 0.4645291785693226
Ni 1.4846237455870264 1.0817122134841606 2.642441069508181 -0.6906826413050814 0.5115808806414868 0.5861966083748485
Ni 1.6262602015917322 6.554398281443963 4.759058037257052 1.0422262341135922 0.5674319261728357 0.5843708680200195
Ni 6.1031041475830685 5.568999941235579 9.235974196086833 0.22102873991468389 -0.5634109779389006 -0.5360199875204574
Ni 8.721929813598832 2.371469614527844 10.24628596555868 -0.874264806337533 -0.25317370007834467 0.3112767748686639
Ni 2.420294519921347 5.060179254948581 7.093608838129982 -1.0754945092484187 0.4404849931359253 -0.1451148621951888
Ni 0.6248405405138849 0.10812969896631029 9.116213716828504 0.1987622152069996 -0.7628851316112604 0.6277692896103124
Ni 1.3936716755657772 1.0315965036034564 11.604888378794211 0.2021002784412971 0.4155956860934133 -0.47436030572713145
Ni 4.150812007017786 7.020297461880322 1.4448064891290338 0.22075311765579403 -0.4460763711807737 0.04817244594016865
Ni 5.608355938188006 7.6216047410055205 7.984437245111031 0.8644568191081757 1.216671984062414 -0.34077067056272276
Ni 5.040329750981062 2.8508094095197443 4.765623989592647 1.0000367452297358 0.7730582154895201 0.9271032902948033
Ni 0.6442540594692939 7.473767007499366 7.026891396690814 1.7446935267584276 -0.7338653473401425 -0.08000681684194608
Ni 5.240720377665434 4.254897787031187 7.179086272336633 0.1697812545936173 0.8178527460963916 -0.24053492826841158
Ni 8.232236502894906 7.046537802050207 9.148211225543402 0.1127269327827865 1.1998132606338627 -0.4608820687350385
Ni 4.723234150765057 0.2994043574575042 10.510948726440382 -0.8148921208061708 0.20401857850993252 -0.47630508815832817
Ni 8.167001229964818 6.923739870274793 4.844509294309767 -0.41168760928825876 0.2953423630265946 -0.32713379650557856
Ni 7.2034562999907985 5.85030505339737 6.999148126820796 0.2695174315436907 0.40131192248088954 -0.3235504500296944
Ni 2.281302859124682 5.359447310673521 2.6246063037332723 -0.21808585523627602 0.3728194714681515 0.5323163134166252
Ni 2.4987898753108646 5.380623725547464 11.267747397286406 -1.4482360762907833 -0.717770498660809 0.6546620002360983
Ni 1.1735488907763587 3.3325412547851294 4.029633448144497 -0.14364213430440426 -0.12357313146867105 -1.4084878498585678
Ni 3.4764433885960417 2.5340658468911585 2.9373185846556757 0.23052690921310617 1.0492157780575477 -0.8071986088166548
Ni 1.0835175344452812 3.270718038471559 8.256155200308791 -0.8748057664426675 0.4394634938499463 -0.8769960892257671
Ni 3.689254623492922 2.6510777249861817 6.94305229125638 -0.10607163224979796 -0.49216262401587496 0.09234065581695065
Ni 3.9676712221169206 6.757975299624713 5.898523370947937 -0.31028741437220114 0.6142753688889356 0.05073480735070617
Ni 0.759808140888212 7.428065307368601 11.294672856761036 1.1610765061852972 -0.78633410666282 -0.16994863340941696
P 0.21269118105296597 5.571355885089841 7.914892671046749 0.4335970077668403 -1.1722685182463746 -0.9107194496201412
P 8.456971882739989 1.4261674528659456 7.950193014460018 0.1879144738592183 1.6560182356082058 -0.4307484825744517
P 1.6531865637268441 3.3073660539823044 10.353310808096785 1.2500132785270213 0.15090164408029497 1.306607372871982
P 4.0867772725268425 6.2224087832987145 3.708914568759524 -0.5664636487222954 0.017220734753660663 -0.25901164691636036
P 6.964910214793146 3.8985093760963956 10.386907831183237 0.8297317569221645 0.4431447993562755 0.16506250896170926
P 6.402480522565676 7.746749590030391 10.132853136269077 -1.1171867467808825 0.039954171795434416 -0.6629630639026259
P 2.2738559101600604 8.495334953163798 5.9353437946104695 1.015860856746186 -0.8141369878077012 -0.25397177049960773
P 6.764654987180858 4.0079930657835465 1.5720184306543874 1.2263724991796299 0.3352271150366743 -0.3607589407591916
Ni 5.190731040252008 3.1125899754870177 0.39037989665124784 0.03744091845527746 -0.2704476566674439 -0.24313199957162646
Ni 1.6118988733460191 1.2044018260019074 7.1100174003456065 -0.5397012930267866 -0.5435124392427607 -0.0809439839442348
Ni 6.851265260290613 0.7895210159268133 9.207134193732934 -0.7005947582124707 -0.4082988953216839 -0.025165186411717947
Ni 2.8241448189239953 1.8069818564046967 9.367955795591467 0.55481192341598 -1.2962751377080386 -0.22844354432151626
Ni 6.030223340382636 2.118832999228646 2.514053864037138 1.193543882685383 0.7152713863880391 0.577264081771909
Ni 4.231970210824956 6.785298832371271 10.122839020897741 -0.3188376179350573 0.8103001305601142 0.6715919432222176
Ni 8.26683547911478 7.130972663401812 -0.013330489976913518 -0.8168266188247223 1.1930851978814097 1.8051267923438201
Ni 7.556513893752323 3.6065348170543823 8.16195806585993 0.6605829937062236 -0.26231448603734825 -0.292281978933716
Ni 3.173501504715222 8.30308632401408 12.39965656009452 0.16809923890550404 0.6727795357724154 0.09239439187302151
Ni 0.15070368053193367 4.946146156439407 9.969825432196055 -0.39852716064690075 -0.9477834443519741 1.3417774930152118
Ni 8.518542354119 2.306207261783339 5.786689153369408 0.6050764759984869 0.08154459364271117 0.9958934124853235
Ni 3.495661030227169 2.8530028744875056 11.726736711744074 -0.3949813522771714 -0.43811263624900676 -0.6787228978400439
Ni 1.369498427896374 3.440318916164021 12.732754525309895 -1.083692728788495 0.009641122634189847 -0.37341956694599565
Ni 3.302446554363251 8.379731225418448 8.198553727062801 -0.9414960686813655 0.03419027272846369 -0.3228516241904569
Ni 5.739440293174962 7.907423155570113 3.441833580450401 -0.7649386717061795 -0.20874555167195663 0.5788787345571966
Ni 3.1576598132813896 8.28929367187112 3.4370377453171845 0.1502493552082767 -0.5456276858135507 0.9608238224757001
Ni 3.346758157353953 4.352547597818193 9.218112350497508 0.7741661038417184 -0.48605471134592415 0.2813247085912639
Ni 7.372993991449621 6.124984637631849 11.246477105722484 -0.06678877548977528 -1.3802980176879132 0.5230287174671121
Ni 0.4959496504946893 0.23694115486321665 0.6161957610915596 0.14768647957710695 -0.9111066577562309 -0.5994591298117096
Ni 4.683029652960905 0.4591147842644679 1.7383760492401965 -0.5850208428991924 -1.1740808888647651 -0.7204351899771657
Ni 6.010807113445785 5.665765144751636 0.12873202177461707 0.021990645338478255 -0.07714157947900907 0.9562554863787273
Ni 7.946806232336956 8.713453831686373 11.228628800040367 -0.09987090275572477 1.6916462692244607 0.594327465012099
Ni 0.07217221872319342 4.820649269827118 5.663255748615678 0.048368621111374764 -0.5225623193536548 0.8848369254264247
Ni 7.960932868857723 8.782191427281035 2.4250091156113127 -1.5015147331092655 1.2294483098914764 0.42204864080760857
P 8.589365095423757 1.6158615528556786 3.726564289135918 0.21808379835374697 0.11993579182639989 -1.3430121367532613
P 1.8959209935542962 3.4671279324366604 1.6695978339239097 -0.5414247034757966 -1.3015924361558937 0.10606803270537216
P 4.642843208366363 1.092011569567353 8.128573167986408 0.31438112482560054 -0.4664847596337966 1.2251617667009804
P 8.449714492476284 1.562008828585455 12.509468818196595 0.006546285758950016 0.7557906866583243 -0.8609608901397754
P 6.380690298564951 7.746460738676612 1.2870403929971967 -0.23347262210499142 0.11542710532276895 -0.7291000647410153
P 1.8395588731481154 3.13046265300211 6.063268837915465 -0.7112159853717429 0.2589442840135347 -0.46254942913513236
P 6.8730735375009475 3.770873184145178 5.832559651010037 -0.11155656662376917 0.6914601429010543 0.038669905766372116
P 2.3915086771962812 8.504758728580848 10.276909625022165 0.7371131648534789 -0.020942406579621996 -0.36380209846088957
