# total energy = -381168.4464108898 ev
CRYSTAL
PRIMVEC
9.25809479280800 0.00000000000000 0.00000000000000

0.00000000000000 9.25809479280800 0.00000000000000

0.00000000000000 0.00000000000000 13.55015755184193

PRIMCOORD
 96 1
Ni 4.719897167335319 2.6614338170879352 5.8267579687231645 1.5984910879260148 1.5911518739521242 0.9317618721127372
Ni 9.031577153470245 1.5833008843700567 0.9923298344109566 -0.35447490752269273 0.27112179991633306 -0.19909234485290875
Ni 5.2813728525520265 4.961690833482115 6.864536717116632 -0.9756855700788809 1.019490225968657 0.12784939024652175
Ni 8.561756608386528 7.276603414202611 7.176773376217357 0.42202010156251835 0.2578268825796398 1.1197156838503233
Ni 4.50872927932589 7.045299169648812 2.7155057207189177 1.3812902063978534 0.598170492907273 -0.25282043050398395
Ni 3.1985977449319933 7.194095271892994 12.103001076943976 0.37806220792432954 -1.3530304402212117 0.8799258612780523
Ni 5.546487659910438 3.3513563118203082 0.4972596869348445 0.35080440064964097 -0.13581286806797255 -1.0243208145880809
Ni 1.6534402118092006 7.222637978663703 5.928641452171197 1.6736547177430467 1.1755621013959818 0.32019773150737757
Ni 6.168103930006328 5.531341416551088 1.9122391467839033 -0.8298112040098484 -1.7468427118909464 -1.5527218521107
Ni 1.386205300704278 4.800692562076794 2.7081205383669897 1.204886304281396 0.2806839896834714 1.0303274257934774
Ni 7.553364905024386 3.351995120372751 1.8601382915705285 0.5501661971138525 0.8855303519490232 -0.8139253860175273
Ni 9.500471889057671 6.3789014942172395 4.295237609480766 -0.9523810910249856 -0.14427256879955153 -0.8444934886123713
Ni 7.709289740390024 7.462394863918654 13.081484504528376 1.1913864700227483 -0.21530186473323565 0.16953622846234673
Ni 0.5276984515539599 5.418587077997586 6.5312573339746685 -3.3309484776295664 -0.408165197957297 3.480182247089135
Ni 0.9434646833871251 6.592495003106957 8.768794460232995 -0.34684310200904783 -0.45167032032878346 0.9782160498102186
Ni 2.6971793217398012 -0.009355304960038955 11.61877215866945 -0.5574892131378271 1.6351051396046228 0.1470082225631597
Ni 4.852574926249044 7.658620186657918 9.963349788728689 -0.03590417009577688 0.6886666393163171 -1.2091803036710596
Ni 6.570868093273557 2.4730130684024205 4.170481076617323 0.601609600495809 -0.8034291144718937 -0.05063761965120957
Ni 1.1837677962448898 9.079858118701916 1.874203189438209 2.0325910034712025 0.17877420212084694 0.4602763168302395
Ni 3.6086572870300095 1.937913695735096 8.279417115349586 0.9496863178016419 -0.3827688693713795 -0.16623313223104275
Ni 4.218497260333053 1.2010619176356396 1.3524808381828193 0.20171821251153 -0.5613713218010525 -0.6666554251525487
Ni 5.005444590276914 4.722091335841533 12.09541314231236 -1.3263565304744511 -1.4274877879998382 0.6623881652357624
Ni 2.533024039952121 9.021670991859912 4.103732989363099 -0.07735086727633776 -0.6061236863160787 1.1938413593211439
Ni 3.6703161994831115 6.79703409512293 8.1487529920903 -1.2410601830987917 -0.6487209521613151 -0.6550147555898267
P 9.308921904274685 5.58294603787445 12.859207828372929 -0.5956405273965677 -0.4751540052730204 0.09024854917461232
Ni 3.8464607142477836 8.772544914502477 6.681623609124563 -2.493756664884931 1.1021324235509213 -1.145852490146691
P 7.876361322091026 2.1437952115206933 6.852626177946825 0.6351074751429385 -1.8889666097786113 0.6395649966936597
Ni 2.574426240626336 4.309087719545306 12.459939521763701 1.0880034403487069 0.34428125481914257 0.6268863727847269
P 3.098628835522294 1.6119176559004678 5.465361751178787 -2.9178884134738134 -1.7553294092057188 -0.14432656196593854
P 1.6619669172700577 8.367836551293033 7.939484865167263 -1.8384236067237372 -0.21963494489095076 -2.731982485404192
P 0.15057273066756813 2.269038720179186 10.532822616374373 -0.9766908714149436 1.1007399140787686 -0.4833738220796514
Ni 7.323079050916511 6.2917180139513444 5.68845128807198 -0.8777067421395465 -1.0148923221853294 -1.059307615075911
Ni 3.5010967397507096 3.8827987369772767 3.493380117599109 -0.7316631974825012 0.5076571201070483 0.0798756905807205
Ni 5.75465592515188 0.8429495463746136 7.0973555860063655 0.40649860888815154 0.48859007617326816 -1.6825795310365022
Ni 7.981051859931818 8.730383550041301 5.467488335591772 0.7449558008263493 -0.33305581841696835 1.4105627301097254
Ni 4.936268104713915 3.447908984188687 9.986588532895135 -1.0527461598083094 -0.9295417245329668 0.2913738652971498
Ni 7.334105442017358 9.075155006460749 11.19266093152471 -0.4289170857926678 -0.04882164948839334 0.034166618579379866
Ni 6.933016993938419 5.198281450259746 13.063639526487332 1.7132826165473138 0.11268219558778014 1.443212654934263
Ni 9.278833095645169 4.092142780279009 8.816668069286296 -2.421680158633655 -1.0891362684015693 0.17585779980500038
Ni 3.0877413158458906 5.620691291038308 1.0573883193344455 -0.0658552079319124 -0.6248474879778272 -0.11463571976972516
Ni 5.579400187503649 4.4591336646094835 4.493476567874466 0.2540090514954464 1.9739960766461295 -0.6785547476932959
Ni 4.009329120835616 2.3454920683830474 12.536890955476569 -1.1276416235656193 -0.5265647556448286 -0.23755270571163606
Ni 8.773072625915363 1.3663929774836117 3.981050269771352 0.24373595170421247 -0.05149456833486616 -0.6851830516430909
Ni 6.5696089923585985 1.343377353405772 1.8970762388536195 -0.24182690760695771 -1.3652228685223458 -0.24403677077408295
Ni 3.496791725592948 8.146956921667492 0.8972482733321875 -0.7918123561685718 -0.10376046761811808 0.033510473052619706
Ni 5.970878733011068 1.6823995328532402 11.628772752848407 2.3667395407317176 2.1306487642775886 1.6616414953322542
Ni 7.234654985925584 3.978018243670993 10.722645966446771 -2.1945679315290527 -4.025899921513331 -0.8033463249501004
Ni 7.291138623294408 1.940450413754938 9.398795786936809 2.181956670522945 -1.4638362447218853 2.01808998164155
Ni 0.37575922606986356 9.368266292987055 10.478242443329925 0.42595003274454385 -0.06658848655351113 -0.7087042746934826
Ni 2.0863487322757237 4.478001662143931 8.748388693125206 3.0750069849980974 0.4668868801682217 0.3145053091082906
Ni 3.8118169228965058 6.151763392396759 4.6446149681442686 -0.425248635802145 0.07991837089319784 1.543157862571349
Ni 0.14814433235879204 9.124667298322489 12.903842029998701 0.7569589959348124 0.026731502457573317 -0.06874589921614613
Ni 4.772020241976605 0.7594952267597861 10.131778607151254 -0.016389497101616936 0.25438006168162 -0.9741807033985804
Ni 1.0286947056158422 1.8272702028331407 8.581436540849223 0.2876179977991434 -0.6549414791497301 0.19788315503615597
Ni 4.384235676359395 1.2631374443620733 3.6756970042755652 2.155720362534236 -0.1006129231280719 0.8852963815613463
Ni 8.12424681472343 5.7371396094820195 10.744177517902054 0.5389536162274847 3.655676750017446 0.17668775190546343
P 2.3653321658886024 0.8311075171075321 0.24762256273545566 -0.19037990468057536 -0.30720569012308385 -0.5357032276109871
Ni 6.0128271612880955 2.945509202930425 8.074498441440134 -0.9689670204081249 1.7367094801116865 -2.3395508961320677
P 4.81060798178209 6.382410312208189 0.10392396757786174 1.0554974973012017 0.5389029654952073 0.24782092040686352
Ni 3.4646661360715867 5.5343873297938915 10.494610755224382 -1.7414277115229622 0.15120220603984927 -0.972152617224958
P 0.23192731434480346 8.520150729623127 4.014966374858544 1.2323526280224646 -0.0771580345392413 -0.9405938685820705
P 0.35775408298596073 3.0003726736807375 2.7342320694004325 -0.8824450281554803 -0.7137770612306997 0.1711447106000472
P 4.856981779451397 8.174731206556277 4.577528034614402 -1.1767584356969283 -0.3576435350586615 0.7933527040724981
Ni 1.1082772899171731 3.6022321691257373 0.6729524066653257 -4.636682703867976 1.5919355461956841 -1.2645688077436932
Ni 7.859187555934794 7.7079473166204 9.4546628351811 0.3264051458696701 -0.7759445358983798 -0.6185567698731089
Ni 8.46805542926673 0.2912031931544476 7.878793423637787 -0.8756421463010339 0.44461701302642775 0.5037698692375002
Ni 0.9216776085108661 0.33175827813955466 6.311514598410574 1.1624235071314948 0.8481601388306812 -1.0061963370732283
Ni 2.9555449778702387 8.987156813838116 9.240083339177833 0.4823844615831886 0.7933012820092725 1.605768081203402
Ni 3.0141672351755 3.1806740730837637 1.0622358578570348 3.7645773670756073 -0.412773900373902 1.0310581333119146
Ni 7.3702212704677414 5.244905216493053 8.236395673866356 -0.8296122006251648 1.105683117016657 0.4418970429921035
Ni 2.2257756424174224 6.9792611782782465 2.8115899334821717 -1.0942972437772187 0.3613492660450229 0.3987464757465584
Ni 7.28029739409282 3.944503939905193 6.156690550536029 -1.659703397769277 1.2611728946882668 -0.149760074276684
Ni 1.0504234544938347 4.618252542737331 10.892281114643009 -0.9226843352915013 -0.6901861612846372 -0.16478997202661297
Ni 2.721481821017488 2.4528859699530146 10.460749272897473 -0.15217871102050565 0.29478186253743427 -0.6798295006406614
Ni 2.1589507129750065 3.1180800930394064 6.942179730523229 -0.22820957393383925 -0.9935421386443276 -1.9218348212615421
Ni 5.860124142969558 6.8977436521296625 11.750032503244352 0.7480429243921053 0.7734397671986551 1.2286152724672197
Ni 4.8255042565774415 9.161533032464868 12.738665580336612 0.5037248749321777 0.03066554740465687 -0.6088290010623838
Ni 8.12608917562105 3.2098741045968398 12.690155940159357 0.8345320065242854 -1.0627927454110342 0.6917707321629376
Ni 8.010233375254968 4.476566657424677 3.7930822419295245 0.4010141887348126 0.8336488325883836 0.866048846185644
Ni 0.047023715935704966 3.3697428884166842 5.55190642289224 0.9642066229050039 -2.0789886168991356 -0.5750583323698418
Ni 0.6976511524074256 6.950940665786648 11.159300312135295 1.1093181426660832 1.6132304510187183 1.0761372850387403
Ni 6.073754684239126 8.313852599564198 1.0908387422450014 -0.8649245027732135 -0.47028382166491267 0.14853262962748615
Ni 1.3284255300406431 2.1199278427062644 12.302351006733227 -0.24974487690245373 -0.268366348658383 1.0370498321189754
Ni 7.138991090673646 6.948783529660286 3.209571364891552 0.7839144414777338 1.2197017720276735 1.5109262562311527
Ni 8.745372405786282 5.474913327752041 1.672360054675441 -0.8350732237397361 1.1988082164081162 -1.142183525935536
Ni 5.656214601411064 7.597692663706887 7.034415353210394 2.220193602516957 -0.7507729217287586 0.2590173033433152
Ni 1.9036217119924097 4.7101576514343195 5.185144213507351 1.8448673054665519 -0.7695473741227843 -4.165705198570148
Ni 1.2488059133594605 7.029393762502502 0.447970515161711 -0.7389723295494048 0.10452614213954903 -0.3091373599281579
P 3.0269711805092303 5.144362305195652 6.8217865378158145 1.4069878682742736 0.7229582135093355 0.9183486840306248
Ni 6.4871934309986115 0.08431532244637979 4.12740501237381 -0.6360793521379046 0.4466438136484695 -1.941201912934244
P 7.220601197771859 9.883849601472528 13.240116406861175 0.00969717268310588 -0.010779607114007241 1.0047302940506633
Ni 8.306381316929116 8.561812156956304 1.6964662823399133 -0.7050684777131083 -0.38058008925017683 0.5569616227691311
P 5.51879669787632 5.50472439353267 10.105667076117815 1.9450210295700179 -0.007909998875696055 -1.3682688544375208
P 6.3739298972221485 -0.11878043256487264 8.754472187325344 -0.0793226462907279 -1.2330527394132829 2.0622440504509454
P 5.2501082658622185 3.317777201389768 2.5303567827933016 0.9253644532268257 -0.5225024126499969 0.615299953498708
Ni 2.337937462893298 1.8544241953594094 3.0825521536191696 -2.436454745839668 0.6092645459379056 -0.39160857915019653
