# total energy = -381175.61525473115 ev
CRYSTAL
PRIMVEC
9.16158150164169 0.00000000000000 0.00000000000000
0.00000000000000 9.16158150164169 0.00000000000000
0.00000000000000 0.00000000000000 13.40890059451260
PRIMCOORD
 96 1
Ni 4.774878857704874 3.3199372601660855 6.400242362119828 -0.5397290609409285 -0.959384261815696 1.6896796324163932
Ni 0.7257841516139628 3.3976457945081195 4.5376387884239975 -0.7490019458712649 0.6914971667865768 1.8435413875662767
Ni 4.866119047932687 4.06273080400587 11.558861390508921 1.2892357143627537 -1.0171831751020353 -0.021362524836176112
Ni 4.1977083843479095 6.308353531921322 1.32537576339291 -0.7473446127735 -0.17045616917345482 -0.6654256665105056
Ni 6.752479518634216 7.02657571415944 9.528713562688262 0.38448636628311844 1.0344471043888057 -0.9058929747657753
Ni 6.713689382533747 4.859018822264793 9.870921535926978 -1.5469301851295876 -0.43785449749161365 0.17371272843753954
Ni 6.640323437826013 5.537067469594892 0.8287245975843145 -0.7001540711306266 1.0456838536448894 -0.47011978528322257
Ni 2.7197528940636384 8.132644287913196 0.3408593884408936 0.43004759985268515 0.4577841465360052 0.4133768240652235
Ni -0.4283763119442784 5.218931551765712 8.58294334824548 0.6843286740625957 -0.7027251742919124 0.40751933684318203
Ni 4.553782411197412 6.062933086512881 9.894508027516649 0.09346139968495516 -1.5542863683843426 -1.0032249131497302
Ni 5.604203538877894 3.194469401428271 13.894704624630462 0.5322350665567286 0.25648142429533893 -0.9150131918994886
Ni 1.318040085080287 6.366831906680248 6.813062308665289 -0.05212063195463927 -1.4022596095606688 0.9462364115798284
Ni 8.40478906657744 2.002565970535807 6.220308901323136 -0.5207849157382579 0.5383360372481438 0.26157683654037533
Ni 7.349329069068129 0.44538662032825077 12.808906049960854 -1.300009150829174 1.4424966027038448 -0.6473024745472336
Ni 5.754196951309842 5.9893106175229525 4.870112581311571 0.39113832438199736 0.0832219813451341 0.12524563407508754
Ni 2.6143214140815445 -0.028082079635133362 4.386480022824366 -0.1698056800736495 0.2997764875385482 -0.08854622177152494
Ni 5.322008505300517 4.583484258442976 2.5014974539814845 0.7849503389414159 0.3707037106767293 1.5001654181702226
Ni 2.881042536493667 2.239255428768115 5.0957311844508695 1.9272230821566485 0.7209113582826359 -0.24496133947088136
Ni 8.989490359933125 5.951803102833458 1.022611147016106 -2.20939471212924 0.20633128580350918 -0.32966016247185803
Ni 4.53989345363286 3.82960520097977 8.893024403613742 0.7701307574300801 -0.6113797925086955 0.19165774295173443
Ni 5.228807736630214 8.329700744546397 10.839231989351333 0.4477414175880224 1.4976732478759884 -0.7990633813040303
Ni 5.703652506135943 6.217718006072968 11.903362507598832 0.06188953841594503 -0.3668691674219875 -0.021095901438350766
Ni 8.000809130028044 3.5518352112702534 0.7379617257530139 1.2112610974594882 -0.7262831641175105 0.44649674654764393
Ni 5.936484938553821 7.088178188212238 2.7240982321723894 1.6290689607128719 0.05548054956580767 -0.030675317596669752
P 5.6394756276796905 1.6891299440196963 7.846647198010432 -1.0056366079150165 1.4747840019826408 -0.14959320968151657
Ni 0.2641357241108583 8.486400434641437 0.14370765136002164 1.8466359673312003 -0.9918799204505562 -1.0403256746567697
P 1.283629184940146 7.197539986660819 3.8330417102030303 0.2928154828396828 0.7754665678206967 0.2668979916429726
Ni 7.4035656315893315 4.73414646632493 12.093513880250237 0.9947315309667384 -0.43375307372873034 0.46428106711425843
P 3.6248988237882585 4.952036359304956 13.167111060668875 0.4695816533915655 0.46561212722085615 0.4069140991590154
P 4.29697411997582 3.9159805914273873 4.269648786973161 0.1417685714307752 -0.26758447618703596 -0.037212861604871396
P 6.970708390129999 2.4545159478556435 12.01169271196973 -0.15994138568506003 0.49904649561990183 0.3411995305700253
Ni 0.6278065343459314 8.28885841418837 5.754336207348747 -0.34809780035175536 -0.41896228857280104 -0.8784009399930935
Ni 9.361487215441723 1.638750407312924 11.944031684066376 0.4163130238754121 0.8103135002965528 0.17703613638381768
Ni 2.128904179516783 6.723620536887292 9.698818478844286 -0.20966677793464536 -0.5321250233414254 -0.48011906258777964
Ni 3.522334918817843 2.1765169186084536 10.765818404419763 -1.7874226901958379 0.5056442034420775 -3.065398001153424
Ni 1.560015775842111 6.326850764983874 12.899134801590298 0.21162004500627427 -0.6807394140494406 -0.5336640856937712
Ni 2.326537815784921 4.364559106752663 8.945520265648621 -0.5880853407571291 0.22694047741342852 -1.7283163709519849
Ni 7.66433172602193 7.700309256599762 11.709630788894508 0.048897239921335135 -1.7865348882742458 -0.550039184617685
Ni 2.6977650984469346 4.8236184713219 11.157653748523533 -0.5819853985069783 0.44484069900145967 -0.5528146904802932
Ni 7.9218912669270924 0.67761530452482 10.506410056366496 -0.7996557634723906 -0.9053635846248665 -1.3263896977052316
Ni 2.084552963441591 2.2258611966049395 2.9626291682875965 0.39741387297806396 -0.7104461970852539 -0.502448065102283
Ni 1.4952067482618767 1.142760707689131 6.383280610117843 -0.3762650068145907 0.29936459681211025 0.3864296060524184
Ni 9.19328057897394 7.7081149240436915 9.027636436853653 -1.6276648812764933 -0.4636568032666983 0.12445501985299211
Ni 0.4986648814238251 2.7355932684891724 8.334516987944607 -0.5658787227531028 -0.15843703322539165 -1.0658094207501707
Ni 8.240283709038469 3.2606709893975623 10.376974316678018 0.8332482547158553 -0.8199926752575297 -0.16340466164331213
Ni 3.6644218864092837 5.228771090304186 5.855760411579697 -0.7923900830489128 1.3516523289267623 -0.20430885605684168
Ni 2.420673065768934 4.989608005064999 3.6254585964183343 -0.3755502401357532 -1.6964501183710075 0.5869789950668278
Ni 3.443994235351829 7.032017693574574 11.634903433174838 -0.43703920067916985 1.2921323191842584 1.4401574130477068
Ni 2.359675256095595 0.7351143062206508 12.133620535613256 0.47657299710773404 -0.7972489538031108 0.8715288954636088
Ni -0.1210556410840634 5.817530964267455 4.841619146666775 -0.07146226970604468 -0.16720835166011846 0.5225216959237066
Ni 1.0047139975422599 1.8622563497567166 0.7206206842766403 0.4465612812369922 0.17329929504920477 0.33424546784969533
Ni 6.57231701829985 3.5110570119827753 5.0869617186324065 2.1626482000023204 2.465386084162038 -0.8505206686430578
Ni 5.328760590871147 8.018591759733054 13.1487146050029 0.1564472564888725 0.5513010820492441 1.7698931659525068
Ni 1.410764451512228 4.255737841612993 1.4718144822001562 -0.8339128848830477 -0.9180638058003544 -0.9237382304773123
Ni 6.848593670223732 2.635145688846864 2.809594110795339 1.329613346848852 1.456121906796763 -0.6757172782445008
Ni 8.019883542725536 6.820595877138461 7.094662755602864 0.47149558258482666 -0.09110292675510762 -0.9307550281147777
P 3.149202027202382 -0.2148125177518385 10.23560378476042 -0.38947122109221954 -0.1225248927098148 -0.041227124970587066
Ni 7.687134902392753 4.943983329160339 3.0508872637348943 0.23060892740395122 0.06895338724126189 -0.2341326242864935
P 0.09373122423955561 6.104114395386667 11.165792897534317 -0.11149845969232412 -0.41077358211442155 -0.42860829630299735
Ni 1.9663594004203013 3.6454940590159044 6.606471394157796 -0.7818084508783245 1.2086465426547766 0.44197649007978723
P 1.3316358720366155 2.9913663010004776 10.228456835026842 -0.04888566995710936 -0.8481953629439908 2.264997903315841
P 3.3681729868002295 1.052848946779827 0.921557986836188 -1.9424010754486674 0.9314600246016024 -0.05186429296945906
P 9.080803842812994 0.24084148697126218 7.621874208844226 -0.3265352436896312 0.4769625192366689 0.11563407912725247
Ni 6.079039146802117 7.874580860025152 6.819766754012082 -1.6661915765967819 -2.7739490596439644 -1.5848321023816834
Ni 0.9095544827457692 8.145241462485266 11.278669078648965 0.25328528595554445 0.14986111863092255 0.2735134400769612
Ni 3.553145317425749 3.4700131268315952 1.624903593023305 0.008379482312946858 -0.5331346955528625 -0.6978704173027723
Ni 5.817595095338003 2.040449110067086 9.994122819399973 0.5893485237402689 -0.04682724476618386 0.3947430110141201
Ni 4.359309520549175 7.8903479417986295 8.579417055523452 0.18094858406434644 0.3015790879649258 -0.4557352344267764
Ni 5.424407501803807 0.8412613057184384 1.0316838611824484 1.9032606578037803 1.217672914523103 0.496495447063274
Ni 4.554387075576871 1.9676145370867548 3.3165034994172773 -0.2581842659190586 -0.21346172620070336 -0.3510941639759179
Ni 5.852812214650758 5.378599594269008 7.605113095477243 0.028112184855183846 0.8422797687905041 -0.5392845172043422
Ni 6.929893544516493 0.053977289764555396 8.249034851693917 1.6432303398149184 0.7882359516712232 1.4549515406377458
Ni 1.3623913011554798 9.210687583837164 2.361776922893292 0.06637482788080827 -1.6569834277349529 -0.5859420691618812
Ni 7.501466291572704 9.014116691023833 5.345337556449839 1.1539627779586514 0.1069442646627384 1.4386684872070061
Ni 4.9638364762859215 1.3067438550822057 12.197701217463685 0.9004406934019525 -0.4155128965716199 0.4934299207640727
Ni 1.7753404260001886 6.41871394275416 1.9192157343017875 1.2415494640303844 2.2168650523643563 -0.013000526024725997
Ni -0.1645621593443144 1.1415422173487053 3.964958406163595 0.06096779793262403 -0.02580873353298781 -0.28787587944622034
Ni 0.7018870824112087 4.145065937008918 12.384045036840796 -2.2363740689315614 0.39640188677378185 -0.6468201355941764
Ni 2.615970498752797 3.1351481611707057 12.684296631410241 1.0691773087811391 -2.048147206038247 1.7615103412054502
Ni 6.470101253426699 0.5668545325801273 3.1756973209205097 0.2055213883077041 -2.6046118345663016 -0.18542384622688066
Ni 4.207575407630905 8.571612304237672 2.2729022530105754 -0.957588346257538 0.9394962646425175 0.4811691011188487
Ni 5.885775584912799 1.4726784193362625 5.390284275322985 -0.396248391915053 -0.9608163662765323 -0.16804781684227832
Ni 7.082113221254631 3.2642806525113044 8.17444125506425 0.3810634566444986 0.08360918948122376 -1.2056954304462524
Ni 2.0531379004542254 8.483972615542093 8.021780906255627 1.025006527801196 -0.10878543163653523 -1.1920930091714697
Ni 3.282273998590974 7.67400635609328 6.0865278235259055 0.09965313031796386 -1.0181334548304466 0.07368498838897632
Ni 1.0880752276740877 0.6545949986722819 9.544535613950782 0.24797055861085038 2.040791537004124 1.3868152499811406
Ni 8.292752086328829 7.898116962916532 3.5783259241976286 0.8310638454700269 -0.6076905165825663 -1.3120961639006952
Ni 4.534570574777317 0.2840191044554133 6.789275178440618 -1.923331460411726 0.962649305720213 -0.45921342278336397
P 3.2312806359232353 6.064948634444413 7.790772544715784 0.7526444277198586 0.439734745233462 0.8835143499602591
Ni 3.1413597134324243 1.9918560817541708 7.821800988963556 0.36653389556975585 -0.005570552109242019 0.9775367643550067
P 5.62916884848436 8.38351587431828 4.587037119751375 -1.5444148749069015 -1.4109861908003893 0.4322669761015071
Ni 3.5709004623862373 6.943095383468022 3.7647100545333703 0.6207496637593696 0.2065557431094894 0.5980020856502088
P 7.4356769747712255 7.646686520039526 0.6329361038316782 -0.25390852136184017 -0.4614235430608053 0.5577905464283298
P 8.18452632398711 4.512766010790752 6.46939214701806 0.0071944608659101905 -0.1534264673846777 0.26257185346379297
P 9.269138473851568 2.9609498503973706 2.6338035171560947 -2.4013494174961028 -0.13857294731161296 -1.6362338538924273
Ni 8.16304241535329 0.4879238432650654 1.422523341376411 -0.86648876193654 1.4821373570239182 3.39738938286162
