# total energy = -381168.9925810518 ev
CRYSTAL
PRIMVEC
9.22647365787484 0.00000000000000 0.00000000000000

0.00000000000000 9.22647365787484 0.00000000000000

0.00000000000000 0.00000000000000 13.50387682454648

PRIMCOORD
 96 1
Ni 3.965501382772578 1.8056393070465033 8.927425914862612 -0.5082232770231635 0.0493896061767214 -1.478295614680325
Ni 6.546616556790045 7.3002256816853 9.652827865127549 2.1126093902773744 1.7447518908001889 -2.5473309985669617
Ni 0.273012272022957 8.883571563909005 2.2541077340723756 -0.36691596149952294 -0.12991424319535044 -0.8050013440550201
Ni 0.7264353152913 2.66083190462258 1.371035501673444 -0.9717450973738941 -1.0596577993264784 -0.5312045684096852
Ni 6.5246021911391425 4.501541037251263 3.0834348359796593 -0.1318014329157343 -0.31508946374653474 0.19392854126378212
Ni 3.2220598316188536 2.9354578868518835 0.6976524087177225 -0.6850886921570717 -0.31320638779120896 2.779015161312962
Ni 0.8316364882117349 4.920607461335085 4.274057721113027 1.8036196116706742 2.455706909201061 -0.13013458673627262
Ni 5.88796629663875 3.6874800583137968 12.381272289836625 -1.494365266548678 1.063112333533982 0.9690176711404022
Ni 7.842567017530108 7.5324929243071885 11.957007670611262 0.14491894413429882 -0.11657844531839277 -0.5742533199700434
Ni 2.8559072327688644 4.240948521138901 8.32933914908227 -1.1510360912301596 0.264623336676183 1.823257183395944
Ni 4.871439584321816 4.808994812014478 1.2018745695052355 -0.550569088979226 -0.3593726019346262 -1.075806641172199
Ni 6.353340390966444 1.2342438063086982 13.012767193330863 -1.30889076958952 -0.15882089892737164 0.8483388305003905
Ni 3.2479031837513674 0.1289445796958049 6.827451955650973 -2.3609422173236503 1.1141240486951587 -0.3073987799704964
Ni 8.34201447830742 1.1548223228539747 8.48765897494712 1.2917481963719626 -0.6738786823738652 -1.1005941325295236
Ni 0.6566490380600625 8.314694890422958 6.723134678887017 -0.06957559420629308 0.1366065676138615 0.5744896043505655
Ni 2.6539120495353306 4.608946414678823 2.300425553437043 -1.0927751507057373 -1.1887942838155396 -0.46938444977909477
Ni 6.4303722177977045 3.0078857034317608 1.3517650892264719 -0.5578879912381425 -3.8022836233771287 0.2662701282509866
Ni 1.0437540354668973 8.222457835346649 11.082280783447551 -0.43482368108508984 0.17758918067381027 -0.3632958482484324
Ni 0.41464509800674243 1.3177526175016236 10.949131699800734 1.5785938347814554 -1.1286140147812176 0.19301657097247404
Ni 5.870602073606479 6.4279917876476915 2.5296812751249598 -0.0973584207465162 2.2266306163915526 -1.1118457941839432
Ni 4.596481449048325 3.644899883343589 7.156487374460301 2.1031757556683006 0.1843280420595406 -1.180133522816748
Ni 6.2248156158126 0.26338167903619586 4.646670696672472 -0.7157822645861867 -0.5501600264662655 -0.7337776727223427
Ni 5.449533504784078 7.392970192801342 4.541501816409111 -2.290903567438009 0.8518509574187071 0.54261923800453
Ni 2.993510857797181 3.6232084442634247 4.841153685223288 0.06722560591687778 -0.46183491956661105 0.06033093567957352
P 3.6682059552774446 8.593002235558679 2.876879006919955 0.25424405032438796 -0.6039287355472889 -0.5521148361997911
Ni 6.407232222385942 2.742467741705223 8.459962946945913 0.0030220746557754405 -0.36833598177550114 1.4673589131631632
P 8.513202466692519 2.737347048940659 9.982065343705425 -0.24576892297384126 2.160800348160304 -2.197561209829422
Ni 8.823830148322418 3.4347115916867517 7.768185956520937 -0.5046157621775632 -0.14882933493229852 0.9909270696189837
P 8.077703693394842 1.2489231255671167 1.3191061411566896 -0.9839958897167893 -0.22991755776388145 0.2738474263776122
P 4.620590224172302 3.810681158287185 9.94957524009977 0.04543370685276692 0.8814073309195852 -0.6414640134885855
P 8.597449395761418 6.20461886543128 2.8390689187232248 0.42299840631538765 -0.18518370519161653 0.6295127546639804
Ni 7.832039611324039 2.6349700995431666 11.924611677034795 -0.07469903147578746 0.4798776360009348 0.7924163083011578
Ni 7.915336213627623 4.94948632323254 11.702500013738954 0.4295508627219247 0.058564330697453974 0.6613877489957061
Ni 8.627878305198415 3.809278734322836 3.0927249720961276 -0.2827997504748936 -0.8310093380830076 -2.053726499898237
Ni 0.6895118911930823 6.180583902094901 12.183643073839473 -0.28763342441811107 -0.8441451041340172 -0.2953102242370785
Ni 8.616585101696025 5.573786422730729 6.189150682692916 1.3140761704452013 -0.4283725261431074 2.3603171821451414
Ni 1.6183326695448372 9.020409391641 8.870467203668444 -0.6067518068183809 0.2781864200725983 0.2823150975289912
Ni 0.6438085549601625 3.368677721207493 12.492976281244385 0.9801189232598861 0.18587738882453148 0.40055061883483273
Ni 7.650960843400897 4.670782239738484 0.8323939816819524 1.2970107303224825 -0.9809933554450394 0.32623905260545105
Ni 4.508682327701305 7.183815266170867 0.7013291583874143 0.055332454023717614 -0.9491476716893523 0.15414611915952162
Ni 1.3604619631001267 4.118181065417648 10.387046633420987 -1.3726713543805908 1.3994635348727706 -0.6214119799337169
Ni 3.2166069858101007 4.210205911604615 12.39408786145821 0.24176520113108685 1.1413959970372343 -1.4671234001135893
Ni 6.7493314049526525 8.297063099660647 0.4956396951846339 -1.0620481539355258 0.3824451674833736 -0.10710598705158328
Ni 5.434743467844264 0.7093884829456973 2.10378264745166 0.6045460574163136 -0.11817047239586101 0.9469537493618272
Ni 1.2693044054174283 8.182378034681301 -0.004933395353536323 0.27405465729241185 -0.1906737817719103 0.07066857016015572
Ni 8.637529196426765 0.5470652902510363 12.845049281610184 0.38074386852155073 -0.728015830537901 0.8351925229264195
Ni 9.06345089028369 6.11379346079277 9.949264307944517 -0.8792141799230084 1.1285142559785597 0.034749230555727255
Ni 6.14528341467648 5.942365584097979 6.5711211476250115 0.6275908550509192 0.5717148698189057 1.2180051010515411
Ni 2.5293085255975933 6.279971474094702 10.179856945635292 -0.061757126603138805 -0.2300250298760232 -0.17233436003277416
Ni 3.5585308653812673 0.14657729310546128 10.889161467672595 -0.7888280767292672 2.0368937446116147 -1.975240747686508
Ni 1.953751885333989 1.2246205945006967 12.93665985913926 -0.455580454016467 -0.47168250178465215 -0.04550415507938615
Ni 2.142331776171709 0.7822923855555769 1.8512466879555465 1.805114451048646 -0.6080103618158303 0.19828758956342626
Ni 0.2536505174888333 7.785814979341214 4.466595769060654 -0.06777427933149618 -0.8669603022563198 -0.7367516677490021
Ni 5.596751115146947 8.438883223055461 11.538913716829034 0.36757107858501853 0.014155208454459493 0.8826676856892477
Ni 0.7066602147466312 4.872168475724339 0.8589856008112343 1.095565311856365 1.343651827219789 0.1087383804486837
Ni 2.685328191631443 2.4136915867998305 10.98428271834927 1.0512433500105378 -0.563551617281823 -0.44662093083033405
P 3.1561274523475413 2.250373780267296 6.672913138605796 -1.2113749973295331 -0.365976223294073 -0.13753165053129215
Ni 4.048401246717825 0.14759128253757955 0.32472665570833403 -0.446291058294741 0.6567181114341786 -0.6220411288772836
P 7.841238405353356 1.013445070184745 5.758539172381528 1.3380838462137083 0.7525981478629555 1.252919910650855
Ni 1.2094338192025467 6.156262918081583 8.152641110753027 -1.7146054491237954 -1.3426308421544426 -0.4826847664324268
P 4.308154153746267 7.564121275292643 9.788839000838452 -0.08464534405522196 0.38659698486821803 0.40712518672855685
P 2.41869233540955 5.948252074158866 13.25693105081875 1.3852137098219757 1.2898352956199657 1.9433552118318211
P 5.580401804194138 4.750489743870147 4.905877396472693 -1.0885382298062543 -0.6551528238295878 0.25625413877588127
Ni 1.317881788129919 2.167326292746854 8.968194933094649 1.1052694265180063 0.6753511531543336 -0.9440152355587936
Ni 2.991693242527597 7.334723465913601 7.8756365436684 0.6863091948277341 0.042812467179835945 0.4060034144192879
Ni 8.488503197267763 6.825532849173443 0.7782687204841777 1.003918082562013 0.9475139927406713 0.196685535183629
Ni 1.1523865338632628 0.9512309597136482 4.343198145202788 0.727993719050714 -0.06365254385363876 -0.4286358071068231
Ni 3.932489060769673 5.739659962408822 5.99923203055765 -1.3070303193420134 0.12354202112041948 0.4611219526599865
Ni 0.9372436259639549 1.5263078233578702 6.636332016672561 0.361147691557178 -0.024989580065802125 0.5891076113740564
Ni 8.146210258758611 1.2848141072863164 3.6257503376988076 0.693835070891134 -0.04082320466394905 -1.4598813738391954
Ni 4.39999447046424 3.016890741518634 2.9286662797455842 -0.28478515633603857 -0.20442789813320922 -0.5346241356141954
Ni 4.804501519444491 5.855295354153483 8.461190990562063 0.04007321387180195 -0.7849223139169579 1.284029744681782
Ni 7.397841770782765 8.205130518208176 2.8709648374387196 -0.4052248843820505 -0.07813016864452352 0.4908557322789933
Ni 6.853120004787943 3.6432852504898974 6.337220819202533 0.580656909503542 -0.50741260819641 -0.501106206362408
Ni 4.985128190168599 8.024153241492982 7.053209921254122 0.7854781864204279 -2.1579484805338063 0.14798215644065482
Ni 7.1671983874880185 0.8582437923458811 10.636193709219038 2.759109166417655 -1.9369590784974897 0.7720310597765865
Ni 7.370494503477956 5.12728969308105 8.385691680970792 -0.3211369554921953 0.44002836521448085 0.7352843391748562
Ni 1.2710297559525159 4.281821798520921 6.491597250314997 2.2665621624791674 -0.07342839229348 0.5777549053653985
Ni 3.7047427901381216 1.0041540114209315 4.3816568544830305 0.05618374628041937 0.23002168744191354 0.09713602032306497
Ni 7.365438396027538 6.406171177939231 4.750772073957706 0.5714071087704998 0.26617705431654803 -3.3209101195569577
Ni 3.590841975401997 6.030072440710502 3.647653985668314 1.5276973050419045 -0.04871906247225803 0.08166954925634967
Ni 2.1638479122563297 6.910767010901456 1.9507292926318784 -0.31198459956896596 0.8416539622810473 -0.2944039103727253
Ni 2.8762608331988275 7.82151220511797 4.917031280225995 0.45387298440705703 2.0418426039764577 -0.4528126614633427
Ni 6.258344620328685 2.4879739245430907 4.174750419432239 -0.2534506078888151 0.6087261569359323 0.6983041624060812
Ni 5.937226438386516 5.8119955142542015 10.88660942511642 -2.254732773944407 -2.980538227094551 2.2398229467121107
Ni 7.231986684051572 8.261781065189124 6.579250593381513 1.2221990845282307 -0.06612568798447965 -0.0850898877918083
Ni 5.359049479663206 1.9460293270566187 10.787990418354976 -1.5920201354896903 0.5002587707604482 0.6329001830789746
Ni 6.382053176341804 0.1331989066034458 8.731863428918183 -2.374300640908427 0.0034974716302972027 -1.5330642257807727
P 1.721604586866947 6.523467334904834 5.976342995223719 -1.6999879563209368 -1.6181610555511166 0.4828909689059619
Ni 8.98617917514274 3.0834597474579732 5.248254295890239 -1.2188674490518363 -1.222915908089597 0.09376967495399335
P 2.0295289117760946 2.5967632729881003 3.0457179351647703 0.9619538223150851 0.258691030352148 1.3577322165722554
Ni 3.4097078486381576 7.6416236522698355 12.053398484034611 -1.024176832811049 -2.486184251854312 1.729814552764066
P 8.555524300406136 8.303733839964755 9.318714195331525 0.819891373792975 -0.29176570141892977 0.3245750346394668
P 4.14654324480192 2.030396200280363 12.686270900014884 1.4393115201076436 -1.0253366574471052 -1.737743834913472
P 6.483461346027083 5.955974632436236 13.379397723505544 -1.9250013919149818 2.203025832488419 -1.9579503360371764
Ni 5.354122542841084 0.9077013806254699 6.686633827272794 0.8429366856482128 2.980806136043957 0.06952982857002218
