# total energy = -340863.4593409767 ev
CRYSTAL
PRIMVEC
9.26825650764567 0.00000000000000 0.00000000000000

0.00000000000000 9.26825650764567 0.00000000000000

0.00000000000000 0.00000000000000 13.56503024866634

PRIMCOORD
 96 1
Ni 5.2695504902809915 5.239984752927442 2.3333205773370933 1.1254955237568938 -0.3467903943942415 -0.8203780836214065
Ni 6.620658346057054 2.3340342330663173 0.49417137311368753 0.8425741601024715 0.7280847361026236 -1.3244989084404222
Ni 2.2413053295483687 7.727306675677252 3.378302564173018 1.3920495017968866 -0.4848462928601198 0.9257537182454443
Ni 0.673729008237588 8.447311160414067 6.724374767328178 0.2070239409951596 -2.464640464245265 -1.9842277816764666
Ni 2.059406532902366 4.549722102412426 5.105741476132372 -0.31847097862425794 1.3952065593686294 -0.08425376504375812
Ni 1.451093803917155 7.539207415617605 1.461917273535172 -0.4513250211742227 -0.4268504330716262 -3.9475015868090852
Ni 0.3031683683791609 6.470707228614086 3.540635145105204 0.8154762754444149 0.1168736079613084 3.2723748909607315
Ni 0.6451799985917773 0.6589424322583242 13.240120160235628 0.6737884366529041 -0.2011695390969116 0.4239175756955473
Ni 5.209343897851946 7.63559728034391 8.357943853428448 -0.06497023422379779 1.3327413509548725 -3.377398798672306
Ni 2.7628393755112355 2.861101427994723 7.478007266121383 0.11914054961861416 0.24070487818737252 -0.14733346711306242
Ni 3.7454042908087666 6.314907841493974 9.146926408284402 -0.6898521749839861 -2.308080079217296 0.532527915206799
Ni 3.9444678979810304 6.469567233098573 4.304048434691261 -0.13332635420069294 -0.3373421044971481 -0.9323005182250267
Ni 7.576039465850522 0.14752561478922963 8.753757711019546 0.4684223429761416 1.1039651058842859 -0.00680442451634312
Ni 8.815965319967283 5.95008147176114 8.462571344286362 1.199734327766811 -0.6958564721965371 0.7474281736262417
Ni 7.63429045621637 0.17491053145334584 12.373490935214528 -0.38251304460683155 0.4749799415890013 -0.16227080514918504
Ni 7.6633000981964985 0.5430382540530563 6.33769014211741 -0.04633205029732021 0.7865835036694647 -1.0645801763287601
Ni 3.316515734057835 8.708342328697876 5.149854668454615 0.5394503533582452 0.9548786606358586 0.8510881111107537
Ni 7.7801264678960225 4.058004036721147 1.8761925706982223 0.03854623570431426 -1.5827741914113904 -2.8412104038947845
Ni 2.9011959044183757 6.824856567177238 11.28744779283082 1.1835047532818261 -0.697311973696141 0.6737092466755364
Ni 4.412088497490733 0.5395385605029935 3.1744611709174455 -0.840793671163281 0.48483729399905534 -0.6813392524169686
Ni 4.571196652082699 3.1012790197752444 10.564458929589978 0.458311736904701 0.744467291225705 0.5568847467846086
Ni 1.349485910936918 2.505506241460677 2.263501876378467 0.06485222058869476 -1.0763740836398947 0.4402579647267837
Ni 3.6668650875692768 3.5275539282710975 1.2026563421900869 -0.13065009292011048 -0.028463397547015497 0.035935023333712304
Ni 3.3512068171030807 0.28576258319108416 7.53196890750691 -2.81520549519059 -0.4405279305587187 1.1198457816702845
P 8.264782122344855 8.414584947688242 4.397416847888643 0.8045562860978015 1.3191705542489731 -0.5600006667057711
P 6.831492638633395 1.4477664999328528 10.663565320215444 2.8295324533362236 0.5695569429356384 -2.825665771291966
P 4.879746170025331 4.325995665428942 8.726396891821611 -0.9218430703371285 -0.14647266177466386 -1.203936795883933
P 4.748934001684269 7.859323717327394 11.779058346749903 1.2391562812078594 -0.8078565541156281 -0.7429128022543915
P 0.7366975410212905 9.045910756876859 9.061480500507024 0.9294291102145026 -2.0493466256629866 1.5984468649516408
P 8.312124375135427 5.239938411646324 10.820254459933027 -0.8178584025233463 -0.4485957951685178 0.325723032200981
P 8.563405337871922 1.8223894164941201 1.2132675687405816 1.3942794195686699 -0.23661836682282475 0.7817788831919698
P 2.0987224758032292 4.9322786463011665 8.686108708842882 -0.7064386185877576 -2.507778947305952 0.8976163365792799
Ni 4.876956424902002 3.940704985954215 4.0932753126059955 0.920454417519718 0.36185217382337037 2.0728963879584685
Ni 2.6293579493777526 4.215675611598443 11.31913596085959 2.0278838278035205 2.0939125851988196 -1.0941077534742316
Ni 8.281715226465524 5.147126093822362 13.317644489418626 0.8430660121372254 -0.667493861893444 -0.25006395080476934
Ni 0.38468175504083063 1.0470534421019175 7.538792197738785 0.46301762702080257 4.635718540182494 0.09512053255493295
Ni 7.511949474063754 3.238421407117082 6.051197220335899 1.6243342742413638 -0.06832115297390169 0.5851704811031793
Ni 6.811621497289818 5.061357650728399 7.65235892172444 -0.9593770627268445 0.7739647864641898 -0.9651548457508862
Ni 1.9419869948045256 5.086919501393317 2.2501806117081675 0.10333649270682203 -0.06632083471442127 0.2992393840881556
Ni 1.0305281412550906 3.6750026165336704 0.30177534946874135 0.7965686399066345 0.8898806584979191 0.09583761322661559
Ni 5.4011875334259605 1.059148516473824 11.930213410676327 -0.9672590365780824 -2.3189666442228125 1.1798033931708392
Ni 8.70349503069289 7.884320204362667 10.854234667725917 0.5696387040161673 -0.331681563777261 -0.7733554350149648
Ni 3.23147021494932 1.0218530534297234 12.457296361640314 -2.375315969546819 1.749952975385154 -0.6685503281824163
Ni 6.201399507522528 8.177558563023773 10.246887691039214 0.4223443176711565 0.9097228900348268 2.427002856398149
Ni 5.377590553080464 7.784260110171784 2.4310163393653137 -0.8363564613275337 -0.222256698784514 -0.20279653317737334
Ni 7.538428882094816 4.4607561109212925 3.9113542721450556 0.5016358536136329 -0.1490738468429368 2.29942626019704
Ni 6.148588983559982 6.06704686530402 4.615731550063119 0.34128411986403157 0.4771077865652816 0.6965383287549101
Ni 0.49486278502797426 3.9803175130542363 7.144619748324903 0.4585994433484489 0.9192555121156105 -0.6145077966147159
Ni 6.304861051747502 5.3208595567353 10.152800987984495 -0.9005162838348943 2.7837997271857993 -1.9658983872396596
Ni 6.78331624278269 3.285995366313247 9.148377817209031 -0.24552158284972558 -2.141106726386119 0.9061976504903878
Ni 9.288831752499592 1.0881581584539517 10.662167667176911 -0.46696555592495703 1.216939121680872 0.02704800525672761
Ni 5.229650647238036 0.7176197624104613 6.777699679511138 2.705204960200031 -0.36533653282754497 -1.1203684869429738
Ni 6.17105523664619 2.5433485316219744 2.7521549297365735 -0.677916856998981 -0.7905455736410063 0.8903755958564665
Ni 8.285987892584641 7.818107781900674 0.44259538088013634 1.9164802418178482 -1.5156953954850219 -0.9416207671846879
Ni 8.599950072161903 2.6821777415965222 12.598914389912567 0.12766915591491562 -1.0254554424131566 0.020250008498287703
Ni 4.753253009084505 5.460439495463966 11.848130953082524 -0.0353971485523713 -0.8397829705105795 0.4287885306346034
P 2.070723073751483 1.0544031692872982 5.9599317744756695 -1.8062593632863666 0.27966403305938936 0.6194815956802235
P 0.9443982361684045 7.449917035158644 12.752932418186488 0.33537598190971274 0.11591921446783908 -0.6300840537864181
P 8.461778908379237 2.657514911785302 8.139967442606137 -0.09075814182117918 0.06364688742668394 -0.43312829566053795
P 2.6324072056753445 0.4019920771898034 1.6809382168338922 -0.163216456891906 0.37731504534565985 0.15889391825715216
P 6.13667927431255 4.7194702151491805 0.21242843264681469 0.6380393040777528 -0.9371398485951989 -0.02039810404037777
P 4.859810150888189 7.603093505767453 6.164180044179463 0.6604030164849337 -0.7497051425858766 0.26595876765815485
P 2.9931184696448634 3.442137678913635 3.543131086506241 -2.1492735784676276 -0.4198508618253414 -1.4863146283300597
P 1.9731932135096664 6.992398834932755 5.546401645113003 -0.33363508795920604 -1.2475200797915222 -1.1334266056785125
Ni 9.054224382709503 -0.26623436732778405 2.3391401154199443 1.968893208201925 0.956764564804662 -0.7274111070743666
Ni 3.7849982813963403 5.428603035335615 6.358472353047774 0.9135947142854072 -0.03345853676876173 1.9538478838330287
Ni 2.8698877348947742 5.674953285761109 13.572897826772591 -0.4093810726422692 0.10457627865119408 -0.1236507787841419
Ni 1.7467326409401955 8.691696540520141 11.04038759397859 -1.512342419852389 1.3285584232217764 0.8504754172274193
Ni 7.543952762804132 7.450871665549683 6.0756681972432895 -0.5315370120484395 -0.8391764472748322 1.8671569701026878
Ni 6.963806264482693 0.10074409150018963 2.731875058293533 -2.4498800181066387 2.0717442766318963 -2.4479984848132097
Ni 0.9785702968651236 5.8514023477475865 10.882192362624657 -0.20844704659493132 0.5322623202502382 -0.33569916957708634
Ni 1.3187338367867376 0.4385395919566526 3.878974692201997 0.37846252868654173 1.3835219239418495 0.9972771802067276
Ni 7.59543792612669 7.171443008661864 2.6538493164488353 -1.5787311316902681 -1.5928441740528825 0.47749036671568096
Ni 3.3644233504780527 8.169485911852945 -0.3456929815846633 -1.6887213822681821 0.11615215641425157 2.333287688831175
Ni 6.817757082909896 3.705680544634061 11.63326126174639 -0.4734511636493008 -0.6301365042909084 1.1958843578931018
Ni 5.2613202787543605 6.615199343141304 0.28473102627338825 -0.08989605093120002 1.8799440945650268 -0.37623055403222944
Ni 7.096815009548767 6.575614620809954 12.100874446651115 -1.489668118183325 1.2818247666106632 -0.60256322265833
Ni 0.8425641977363098 2.6069658423413347 4.8925539733008385 0.08590775570741334 -0.33393642124970874 0.5142162613818047
Ni 1.7469087378084458 6.6207417603630665 7.651707363311916 0.5506832459595871 0.9931364185654766 -0.2241120068256979
Ni 8.165583975982775 1.5210413336372905 3.8537566938429775 1.092954099485763 1.5234017629903442 1.2384772528629637
Ni 3.475151207582394 8.64533672288928 9.688985007654615 1.377366702973731 -0.3266046634749859 0.3894205703599422
Ni 5.896510950788253 8.659869348648014 4.546794260271365 0.10368127764075047 -0.12366723384437411 2.2653172343284727
Ni 4.981493086848923 1.3190118844734482 9.225223710036454 0.8565992707369698 -1.130218640264176 -0.7942847289684642
Ni 3.746034532231977 1.9501152555126957 5.036614187088033 -0.3083200062331852 0.4542169980100371 -0.6083489761021716
Ni 0.43314361318322436 3.6552519625210023 9.84636648611211 0.19664619730526134 -0.2019958916529489 -0.35697993333273365
Ni 5.201104418069091 3.127165259407991 6.4621359452584235 -1.0604823521103026 2.2601865979701268 2.8784944850572236
Ni 2.61983945023603 1.5776611109077703 9.709264879097656 -0.9883148288071172 0.39556550691541553 0.5297840339130747
Ni 4.686234248331053 1.3060641305289629 0.8764962105968356 -1.2568809521811322 -1.642061773428114 0.5309677698085308
P 8.967593991786737 5.762371478462888 1.7438928472332593 1.2345280384072288 0.02254266118720634 -1.6776324714438722
P 3.7155605057685075 6.673061066745758 1.8838027358834883 -2.41114017833428 -0.8424186083612136 -0.39693796178290996
P 1.3657795053781525 2.887043277164812 11.875518650223508 -1.8832924422119695 -3.6938224078492317 0.4277086673068634
P 7.2696216468393375 7.272911877798745 8.582594335557435 -0.0008240385631921291 0.1060675184847399 0.09935848189568049
P 6.086065327075017 2.008153075985399 4.99910648097641 0.7008325852548898 -1.7768130330007916 -1.5513547965598444
P 6.436989312472328 8.735507587689492 0.6341229689169234 -1.5277312436036334 0.342826524650487 -0.14904813581132395
P 8.165148367940262 5.387146125247081 5.873386651510163 0.6471188977815178 -0.9206860739145498 -0.21108551265904293
P 4.762159803315464 2.830840571424398 12.808386248824027 -1.6915398255535836 1.5777944788086118 0.7892453667723439
