# total energy = -340868.27407289686 ev
CRYSTAL
PRIMVEC
9.24725201971149 0.00000000000000 0.00000000000000

0.00000000000000 9.24725201971149 0.00000000000000

0.00000000000000 0.00000000000000 13.53428805740211

PRIMCOORD
 96 1
Ni 2.6255815422314357 5.914209556109428 0.6891523891119743 -0.6200022440703838 -0.005127293924236331 0.10005679351428574
Ni 5.9436065706050405 1.2769068092565725 2.0877992725537426 1.681163881635898 -0.3966212018734395 -0.44533640769095556
Ni 2.0997827865785506 0.7758194854491177 10.010352012084452 0.40212464819017196 0.08822329121446743 1.339558630987022
Ni 8.862557186404675 8.398779750733569 5.714148955352342 -2.421555717240649 0.04471379796760686 -0.38140104248957546
Ni 4.3831142805252705 7.174536042311382 12.749109748310964 -0.2881892969215811 -1.5315133363538849 1.669144745687835
Ni 3.9465884968574882 6.440100784283533 9.529708513268156 -0.13418150311213667 -0.7308419871327865 -0.1091376727696314
Ni 8.74680933159449 0.02789895965185993 2.0997504211961235 -0.6557441775566835 0.8182209280690876 -0.9597897247842309
Ni 9.123070773183661 4.397114620237871 6.4819492237613225 -0.3970248650697614 -0.3783604558910387 -0.9354727453054212
Ni 6.800651144517547 6.280271278608112 0.14907587618283033 -1.6845399971969828 1.7056958053389917 -0.4700588501383002
Ni 1.263267112376727 3.0136424775281885 4.94561815402573 0.06300616851889149 0.81814173809172 0.9946392283632483
Ni 7.576837745875905 4.17463498143638 10.703402117965817 1.5924333117677092 -0.9818068524852703 -0.3097228001179827
Ni 4.183429118204335 6.993188180948231 5.213786616111247 0.030854780597327505 0.8474322595257212 -0.7314904193500628
Ni 1.8349044967980148 -0.14095308991892785 3.7771353758987747 -0.9105651834304641 -0.47095565092095665 1.1212367484805401
Ni 7.375737753980315 1.5799022722836995 13.178918328037376 0.83177424127349 0.2683516933703637 -0.03427023403677969
Ni 0.5661778067685009 2.4049883428628185 0.7881580939554077 -0.72221542180604 -0.8575976300944972 0.35238897152794146
Ni 3.5545419958961837 2.8285772208120226 4.797417992618845 1.8064010310705534 1.3165616558712163 -1.4532710676115292
Ni 0.6383304161750645 0.7436224030109853 8.12318482046893 -0.8971329691849582 -0.2394087850837683 -0.9726814931452343
Ni 0.3612078398598827 8.97168400869556 12.696962644144982 -0.26228286146846447 1.7486337423530982 0.3049336062594555
Ni 2.4877142603455957 1.1641180751254037 12.829964021964262 -0.6080746393948624 -1.3972217900264454 0.005656941175461226
Ni 6.105914339849139 5.925315505907865 11.480757571992388 -0.9877540712076408 -0.6232490331424556 1.0978163126740708
Ni 1.141776713998823 4.930477628126495 8.139317576520847 1.4494748337938907 0.9470578790398594 -0.49141571854752136
Ni 5.083667606778372 3.758360679915622 2.34925422959874 -0.4797066576407093 0.10020874571111774 0.9825113347514629
Ni 2.621614471071128 3.4199667357657506 -0.08451526076837051 0.17863999053582785 0.24501353286505548 1.2963329875291674
Ni 7.608269155838342 7.390524110123279 2.1961141861083218 0.31459349794672276 -1.1942707335490788 -0.8520635876501456
P 2.178578621909508 8.053394883979518 13.502184692440984 0.2169823377594521 0.47262455398294734 0.9919331422859948
P 1.134499126578865 6.169442961926792 6.115806125443967 0.7409767615739432 0.7416146522682583 -0.05163700745000139
P 4.925160458156385 6.156912935301579 1.4928995006945298 0.5862274616127839 0.8033360405374552 0.7153420917249744
P 5.4273417318898645 6.7309730997788115 7.780158927731184 -0.7680903299612837 0.8357118857649994 -1.540027287362167
P 8.732420607292768 5.840712396244336 11.509220614023686 -0.09933945573228697 0.30011253072172833 0.2800304152598726
P 2.0608056188846193 2.406366183428986 8.417420361560954 0.4426922851998892 -0.7214952558105638 -0.6763752235434738
P 7.637999071410344 4.698769231707318 5.0874173675138135 -0.9843018509929822 -0.6995385490338146 -0.7015455521615144
P 7.489996801198869 0.29026199685523085 7.301220622206173 1.2506187733215042 0.8634903414298484 0.7348925030530763
Ni 6.825239587909756 2.5455003388555304 8.273889137750432 2.5233138097167576 -0.15374811239015457 0.23719763636506247
Ni 1.821995332835802 8.504753260050876 6.083229905668835 1.7490710870008328 -0.4323991308039972 0.21341261813032278
Ni -0.4323913372440681 6.390701963448189 4.274642163684619 1.4697965760703784 -0.4238011047223411 0.1885325670591914
Ni 2.1629785075798136 5.0716831680283505 3.597901436370697 0.14570261637785875 0.9780581840761154 0.16635834495499738
Ni 1.64418916903535 0.3877002924639972 1.5375359866870815 1.7016375761092177 -0.38446451190624753 -0.916697521580447
Ni 8.018763924782894 2.3898968273998302 5.753967622989369 -0.9015377831208732 0.4113770200263754 0.39954943126382797
Ni 7.472047884830205 0.6312054084151182 4.19920215614871 0.3251154805239691 -0.4724006108975994 -0.7723215944338119
Ni -0.16416646692060638 6.765400619428753 -0.2127496801187972 1.0822958484409684 -0.06899606755373923 2.066902118048247
Ni 5.613868054441295 0.14189538491015244 8.41759605935127 1.175360012687505 -1.4139236761621585 3.457217410762846
Ni 7.660275701772071 8.134280598290031 9.140232748396748 -0.7590230775526928 0.9519568590033733 -0.38281952010365683
Ni 8.58900497413377 0.8624828828854123 10.458242668610085 0.8635566758914095 0.5621156561662449 0.38925267732351027
Ni 8.682827594162863 6.051429530346733 9.441641382959752 0.47285852437062437 -0.9356177555237176 -0.878181624893436
Ni 0.3869975013027306 1.797998713579396 3.277652450334475 -0.7606426154339867 -0.5741152517302822 0.20056764384685458
Ni 2.9168237478115913 3.8959782859941705 6.713291428996471 0.13940855583903086 -0.625313114760336 0.9765965119289245
Ni 8.633031141486276 4.097152255906736 13.046390409526738 0.2925876830995929 -0.05404973065655207 -0.5754182868124219
Ni 3.302591364582105 6.073327023371461 7.18099524791855 -0.5945249257348857 0.12842300336180465 0.06465373142464349
Ni 7.59258581623955 6.391654430416747 6.9091731965196574 -0.545488332022209 -0.6464285565827125 -0.10676608721366128
Ni 5.178294737742071 8.022730995943203 10.506586377978318 1.1431363767671088 1.1511181094210046 -0.0489067530030319
Ni -0.17145422631789864 4.19682838652901 3.232285431424291 -0.7343664553462772 -0.08152351059678863 0.10662776186358411
Ni 4.129203231761343 9.05351294272251 1.0542829133219793 -0.005571066329874276 1.0930116921965758 -1.8783656943343134
Ni 3.331821928539523 7.494370751452542 2.3470617061206305 -1.7297286779184793 -1.3265496203218639 1.2425113137230215
Ni 0.8969242734135371 3.2329503088518576 10.173738010925966 -1.064366260545741 -0.637571877523031 0.926122928659405
Ni 5.4322612700187305 1.2345451472860154 6.663444116433212 0.40677217426451234 2.9356609069658863 -2.3801079916188232
Ni 3.898456549562847 8.36437072558787 7.474147935787095 -1.4814611568925 -0.3097605953344536 -0.17704899189962411
P 7.7770869905762785 2.4734272558172155 2.3821568773737756 -0.479951940882296 0.20843007731406685 -0.10383143006536956
P 1.2094850940355877 4.3509061013845916 1.5412173177568214 0.6810173503011756 0.7209041591937843 -0.58028512798642
P 0.47913064836914626 1.1170218200684192 5.537120485455344 1.2991396037400271 -0.651644039345381 -0.30493026382534577
P 4.372923808686905 0.5160919151004967 5.023900766863919 0.12535644862133896 -1.245283734261836 0.6462226112194935
P 4.334760399179704 5.071803382305936 4.312295124874689 -1.2794212993754934 -0.7725997877958629 -1.258702578770903
P 0.26581873532133576 2.150439233702478 12.110846837076389 0.4575422057285281 -0.5582183779943677 -0.05282562844146385
P 3.651222016830952 5.387301130201911 11.714847135832962 -0.04452867853999428 -0.9997858055611943 -0.9704358916441673
P 7.397736966778383 8.715590608430857 0.32224454304413463 0.8844869982861735 -1.1144037847191066 0.13764914994576297
Ni 1.4611768022902525 5.119066087901115 12.244050729717141 0.10668895411882272 -0.2861352426060298 0.13425529377286557
Ni 1.7488310740470994 5.791701959998112 10.075885438422137 -1.0813946767829377 1.6850431620856465 0.3037460137092575
Ni 6.424741098509009 5.839334555678169 9.301290289153963 -0.25050746610009117 -0.30539923304196437 -0.7783009519456984
Ni 6.394123446733302 1.3910086531890549 10.1989654394398 -0.7812206966956545 -0.5163998992966848 2.1040854119667634
Ni 3.7446562522709232 1.0071089813471705 3.1517834780768377 0.32379470483001654 -0.9715005854632558 -0.521838553813753
Ni 2.421124797815585 2.857946493551269 2.743413727669904 -0.07562385728290202 0.17188467408986527 -1.571515330668119
Ni 5.440879708996368 8.258101304202661 2.948336533592701 0.600097791836973 -0.03607489134568626 1.0964759965960922
Ni 6.391885611719795 5.658310348139286 3.35164433818809 -0.8517576263739525 0.030602812487521492 0.7447665676336787
Ni 3.2221402711213227 2.6539151227330264 11.239576290499507 -0.6660756413896787 1.5323245194012707 0.07530941136627675
Ni 5.618833828830771 8.97579903588982 12.624635261673314 1.9177125715630523 0.7822015725516851 0.5637372509300679
Ni 0.35378414585639806 7.51885747507141 7.7093878577916355 1.0767852030353842 -0.36729699898802554 1.7299320521785368
Ni 4.689965847687242 4.54298077520918 13.680999731447939 0.7111072277080205 -0.27515740343828743 -1.6523487571764186
Ni 7.57015198259175 7.838914118263496 11.73376793839964 -0.013531715937847664 0.27097164749171404 -0.4277516047296569
Ni 5.377600762726008 3.8037461933300496 10.412117375025902 -1.459278450147874 0.25430241436614914 0.3334111448738581
Ni 7.402379087343591 4.640613263112506 1.4224668801826452 -0.06268812305784043 -2.161955287700354 1.3101711789638402
Ni 4.231172680909855 2.0682311623385283 9.28885273504997 -0.21948350691475105 -1.4537649765288125 -1.2742166152461023
Ni 5.87505669062518 2.3795768940317577 4.264613518758386 0.07391433079096303 0.006768943292717376 0.18828985492076605
Ni 0.44335210518419055 8.011699024161741 10.506708441706326 -0.1453650305327819 -0.21696408292700697 -0.9418963894435777
Ni 2.9746190735736477 1.4180291238893317 6.4306408453628 -1.4750369985337113 -0.7026313290265254 1.599023563390717
Ni 2.4969060289547933 7.44642374920034 11.48296396634868 0.5330166819177594 0.9202816393872796 -0.29855264243377616
Ni 5.610076681071304 4.318892114538474 5.802068129626795 0.36402398466370856 -0.12621931084226648 0.8042924909134535
Ni 6.154148006917121 8.240919909760118 6.178416495385912 -0.48140692816126773 -0.3446329817316065 -0.5064217050380504
Ni 2.9025182487789674 4.0948774318847425 9.339781976111492 3.2334838703224893 0.042413689079520506 -0.3729629390245512
Ni 4.880866120492345 1.9817416132421262 12.848532504225096 0.7157920347781995 1.2286749220605615 0.6602824317466692
P 4.1152028920487425 2.006006402810068 1.2950563909962824 -1.7464488188866376 1.330632789252302 -0.5288658929741794
P 2.2444283042697646 8.039200351972358 9.20993391126579 0.12757685331142543 -0.9235834500670029 -1.241134745090469
P 6.465900617703715 3.5746640165135015 12.690411890741807 0.2575800566761564 0.7875993465284887 -0.7287128566049257
P 7.143594736711408 7.69037550742895 4.315868263094602 -0.7415927978913873 0.5240180779635749 0.06924777855322913
P 4.290660253810223 0.6733691791902658 11.267376304553663 -1.0645655210407408 0.16440276389052333 -2.041622517545852
P 8.6819583524634 3.8363242625556055 8.642996905098078 -2.0407007770625305 -0.2487341762497523 0.19158780894574748
P 5.043099911719469 3.2132721563363926 7.637398924747631 -2.455405833020875 1.1142312636969844 -0.5461280224887368
P 0.8612909120868958 7.460701506476599 2.5523229614710896 0.3457048746395466 0.09450243935495982 0.6211476705287368
