# total energy = -340859.67107946385 ev
CRYSTAL
PRIMVEC
9.35133255436723 0.00000000000000 0.00000000000000
0.00000000000000 9.35133255436723 0.00000000000000
0.00000000000000 0.00000000000000 13.68662044050006
PRIMCOORD
 96 1
Ni 2.7508907689634547 1.6574768904648234 6.272537047339822 0.9271675678738355 -0.4804234812020759 1.5729299516274589
Ni 8.498715210583105 1.7288275557825847 9.063786296169383 0.6898172079809926 1.4688285557301544 0.9002105796690174
Ni 5.227983880018819 5.755183940126214 6.050662661931977 0.6675031178648246 -2.297458594947708 -1.0263866959781742
Ni 0.1942533552441405 9.044767556572625 2.0898918465537615 -1.3463543137526166 1.782888292660594 0.8213448184100499
Ni 5.732263824701072 2.8853161705286996 3.5864416597638855 1.5523868373687846 1.3292986438219108 0.10488943901623873
Ni 1.4470158061081344 3.3204991209733468 8.758013627786715 -0.5207885152826838 1.3179377102831367 -0.9126734880227184
Ni 5.630755112771282 7.017847581611237 10.363412948768628 -1.5996208306550839 1.5055986733706521 -1.1523455540702026
Ni 0.33833681279106087 1.786693599948549 3.232231895556001 0.7161938982023085 -0.4022837994758556 2.730726244399588
Ni 4.401101674244543 1.0869988645526307 0.6359018168291153 0.5123126166011885 -1.9523764414938245 -4.194970780303485
Ni 6.0274666822044916 2.7190494825405223 1.264158919517042 0.510797722618559 0.25339301517800233 -2.4022179361439853
Ni 1.6572898638191673 4.66637091711072 10.712107297196116 0.5746132744126233 0.5892137979346175 -0.5697721442702381
Ni 0.4047004126024051 3.2147262015226 12.350285843228926 1.7944883387933677 0.5213698417074505 0.451695517139764
Ni 9.079676079984317 0.1574680194432915 13.141262673570164 -0.6829855297711398 0.8585551089117602 0.9430672698232274
Ni 6.894484806136543 2.408968655375168 11.254219926894892 0.6272473556685714 -0.2814614912794443 -0.22269430054256484
Ni 5.480778445619741 4.137534373853835 12.437962064446001 0.2803654300017881 -0.6494989679779202 -0.4149128010937757
Ni 6.390447996093642 9.27398741348861 5.469720495195331 -0.7997588647091581 -0.37829797808421944 0.8120291974360788
Ni 4.037297443114505 3.7900201635604343 0.5808701614780677 -0.9345736305299195 0.642392438840126 0.9011107228857836
Ni 3.5477364954453785 2.576638043205766 9.724713213320499 1.418273725600738 0.0695542540500544 0.55140495461696
Ni 6.76447323340878 5.112971844272666 10.580373209061863 0.6037608425108569 -1.021149873059267 0.2909594034675505
Ni 6.066097035864737 3.3406886473719113 9.004126666471578 0.9360733550038977 1.1120489113336849 0.8098329611157086
Ni 4.023111472041498 1.296328437703101 4.236911917156375 -2.801462434572885 0.7760995734190053 2.4633014337188675
Ni 7.456340903683994 6.890744273223423 8.583577615916283 0.6501628268141642 -0.11592024290910358 -0.30040280826863747
Ni 0.8826526163756647 7.081380533140577 1.591083366390174 -0.4020061203344367 -4.244522365979368 -1.2756307219848098
Ni 1.888295825201167 0.31271790286910295 12.018426698310162 0.7003101370925165 -0.6022765446558466 -0.8024965753552954
P 0.7175473638570107 6.9360608294658705 4.656722212461327 -1.127410995612052 -0.8798646690228138 -1.1809796728671276
P 6.759339351985523 0.7689170374861141 13.525693138316374 -0.6022125241871307 0.37786140476743313 -0.3552290120798979
P 6.851945595582088 8.695682322455715 7.575571325422919 0.5378806948782802 0.9669705588033861 -0.03991200570358933
P 7.386355532879522 1.12410495105078 4.0866332019720994 0.4832642930849806 0.145155228514821 -0.4249737848742036
P 0.6094169735377701 1.9720183031290723 7.254059429675071 -0.19083858948454877 -0.12190448551699651 -0.30600035696107303
P 9.453916397941958 1.5516291603558139 11.250661744961288 -0.5117230626463057 -1.4193967834615877 -1.7227447904014785
P 1.8080894482115943 8.471287752997654 9.282470942135566 0.6437227276157752 -1.0587558563374992 0.18967079442869267
P 4.825951402516695 7.697895167880993 6.282815096651848 -1.2753221896054552 1.2545618171296522 0.24246994050759527
Ni 3.1260568688170935 6.039903954140615 5.09870358147557 -0.43511550129389576 0.9321976740985751 0.6282372303856665
Ni 0.2758540158770785 6.2107060382859505 9.652530279429568 0.018614529777393748 1.0127595921130428 -0.47572736127798715
Ni 3.662617612539572 5.596753668591022 2.8197998014221772 0.611598850498037 0.005125237041707302 -0.8575600919883424
Ni 6.357147901834593 7.160576966243607 4.2635052359022 -1.3892097183552463 1.4216539549268807 0.7375479383980524
Ni 1.7642129971406983 1.2137374709814144 9.42034979071285 -0.8384675941332657 -0.9878435455976534 1.0196131246997664
Ni 3.7113006484038267 7.227579262049868 8.36894396709501 -0.8721960967339624 0.472439948775967 -0.4890302490344804
Ni 5.6539183628357765 1.0468535950625721 9.37781245042485 1.3117817179840698 1.6151078705470896 0.5456575106102216
Ni 2.4684337773614913 4.203966238390843 6.701639761534193 -0.2723482161242664 0.37817276536026484 1.556274859569281
Ni 0.9046413391054398 6.08524856437991 6.6640427300911975 -0.744965313908046 -1.6562473208998767 1.2147421140295531
Ni 2.726147143743167 7.080669831887085 10.916530226297803 -1.1034287737648416 0.15295904082995593 -3.522687467441197
Ni 7.097146879369377 4.043142025791255 6.818072264654102 -0.3707307072599228 -0.3246166865106797 1.3259135293997615
Ni 2.3514766645005163 7.70640488025834 3.2899483184054406 0.3249607001136597 0.758943373354693 0.7882752895495908
Ni 7.862300940744892 7.346313128044574 12.960393880222396 0.15614618030868593 0.6844633998682471 1.0892262570122144
Ni 5.599587122272711 2.47237068825255 5.760219632560502 -0.3255265999194587 -0.6263150736622891 0.8814494970114304
Ni 0.031577578852557846 8.569280363989112 10.948393020784986 1.254345330243472 -0.16428783557921384 -0.9172220266253494
Ni 0.1935333026583649 0.33557442923472186 5.480094863229869 0.034442497948585844 1.6321177748415245 0.011043402298355175
Ni 7.629256388925243 5.825094500272424 5.583470101083306 1.1860879406279703 -0.5093208809627163 0.9262620253404306
Ni 6.035387260648022 6.348217379504519 2.226949648156615 0.14682438868712777 -1.001779181842139 -1.4194042396607554
Ni 7.747073824356236 1.4717407286638566 2.0410030813792854 -3.0876688967364827 -4.114392150118468 -0.6981185287578364
Ni 8.231594403924934 2.333138701893946 5.557109630511322 0.04008349828444709 1.0259496084407558 0.22459434577875514
Ni 6.115939636932059 -0.18474679084544637 11.400927368280367 0.3525128987003155 0.8059523951143798 1.779521175960574
Ni 4.593617551950539 0.2119273732586318 7.537878910390638 0.13840916804023906 -0.6168251318939828 -1.3654408980704227
Ni 1.9869617321169861 7.900407619797302 6.024384483084081 1.3640198493531799 3.127412495183007 0.4743078552226412
Ni 7.8732607021803345 3.659821564187015 2.1853698842943743 0.9714360507739076 3.5645949063082605 1.6463717136573774
P 1.9961914970801091 0.4264403898934577 4.486172614287628 1.1175927239700496 0.30397484189061197 -1.1197185120638005
P 6.332965356551273 4.877729729366558 0.6022650746078849 -0.35037322664949333 -0.6787576077327214 -0.16903537756652823
P 0.06044420647633207 2.167405039845888 1.2664051095313702 3.5176051678222837 1.6897865903079028 -3.3707411841464725
P 6.6459825020534256 4.816618772898462 3.9888696986215706 0.12593648949452507 0.7492999367276579 -0.6095774491926341
P 4.532674919463534 7.87291470288587 3.071277699437682 0.5414591562581579 -0.37109400413661253 -1.04155826151229
P 0.534646526004189 4.991039822637241 0.40540737332298477 -0.1943586868226653 0.20721497396004313 0.24821661318338545
P 4.253575056151096 2.2126093801009414 2.243483738765833 -3.3406898732870465 3.0091661752438883 1.0348505104748114
P 4.639560647455934 2.5278801966832485 7.729737389437154 -0.8749944854147059 -0.8059035441543153 -0.5176173166435537
Ni 6.940848711594664 1.608709692610023 7.350769037877328 -0.05145137380175656 -1.1343357477563432 1.2373554805536946
Ni 4.242409565405432 8.161580979123613 12.22223337461441 -2.0824315811424134 2.735328261947973 0.8628349672340366
Ni 7.928218482006348 3.43521191408645 13.529401876699731 -1.2256798439879797 0.5663577192720504 0.07426245815900114
Ni 8.85836745017958 3.852907873162262 10.166763782193636 -0.7704254058523634 0.09497552233663643 -0.20919832293865906
Ni 3.850008960154594 3.7859523340174164 5.044053460481661 0.9307853671320808 -0.5350046588820657 -0.9256403325960317
Ni 3.365853082544925 6.694684240582246 0.663627581914388 0.009266512903590492 1.3829786498438699 2.460292985909847
Ni 1.1952872923874507 2.787744369489968 5.119849749166665 0.43176021166841766 0.6778435805588842 0.058193320511280414
Ni 1.8789257902538017 3.5867876590583494 2.156422835212968 -0.23498905874951784 -0.7927670067723573 -2.0682671167165734
Ni 5.59848366506334 6.6152446728398635 12.640168727796661 1.4211081097257396 -2.429717684226151 1.618682475272225
Ni 0.19766098072799265 9.279888104159056 8.009751813046849 -0.10751402112327937 -1.3301841317506573 -0.7226540520053555
Ni 7.579198707215417 9.087035578490879 9.666106543637738 -0.5666837351529014 -0.27232019109980843 -1.4274386799294578
Ni 5.64136887491226 8.348401895469385 0.8740344285438366 0.5313770894318075 0.1682499055507554 -0.2967497848970825
Ni 8.459196480355994 6.271424238798169 3.2274421431607507 -0.9578192313214214 2.2699313360617164 -1.6825296516351735
Ni 8.546463113219081 7.857110951327939 6.084509809129569 -0.8030786731110104 -0.7067965161478086 0.8953614791068321
Ni 9.247111684507844 4.645302365477573 4.398605803658263 1.7154731964407295 -1.7742650697679572 0.9892103440381932
Ni 4.142453174634587 4.767589737739744 10.550933344769152 0.2967986358571469 1.3341130344914185 -0.6655243968718989
Ni 2.630230528518491 0.7152375847831592 2.162020542717452 -1.244030064360393 -0.8522885591767579 1.168187920419098
Ni 9.180277712682676 5.497910086361831 12.071502990080875 -1.3648893964423268 -0.5096060163033029 -0.15208126621069293
Ni 2.1383598017755125 1.8790286549089126 13.735480926748702 -0.7213394469589899 0.23638696753830907 1.0352762851583202
Ni 5.5115349774978695 5.783920584231257 8.245011695484294 -0.20330741137552083 -1.3709286606578712 1.0561960660301228
Ni 4.066277221858901 9.023764464265458 9.851656613926277 -2.1115176998750926 -0.33005765502059287 1.5115430638795453
Ni 1.1787634882437439 7.242503988373215 12.643398677967141 0.5247665260938252 0.2547790968922515 1.511559261829461
Ni 5.467415391787621 0.6281168327036846 2.916878787249605 3.0298123907393304 -3.5464688861315112 -1.5932964310989528
Ni 2.7931120342202953 3.4433756271693343 12.147819212840803 2.0098915049911583 -0.2997438345283999 0.19816829037674258
P 7.734206391135103 7.188125991148735 10.839898863639945 -0.037623466779728755 -0.9837634619910091 -0.2437763180238447
P 1.6268512772386545 8.724372209899343 0.5360464204469241 1.5244268618207488 1.3552670428612144 -1.0828797459688964
P 7.75336727098256 7.828056361925281 1.5263590551280046 0.5145453625864493 -0.533821694317558 0.09107001663464316
P 2.2032393451535763 4.517320031855177 3.9414313250841566 -1.7342144816039744 -0.28134476319592194 1.1315239893391609
P 3.813809952887876 1.3983140675793138 11.952361405998639 -0.05487711165385387 -0.08254243877960624 -0.2370199731366176
P 3.3680225916345345 6.032862400931667 12.506066882328401 0.7760759192699215 -2.9098241484084406 -1.027526208899256
P 8.6562197002223 5.193374599240177 7.870476810559744 -0.2561250693971847 -0.4391580467943856 0.10797939079547209
P 2.5523152279382044 5.382121890036205 8.729737069229985 -0.23315971885026296 -0.7193170172123224 0.28692020040117033
