# total energy = -340858.7289678841 ev
CRYSTAL
PRIMVEC
9.31903715893055 0.00000000000000 0.00000000000000
0.00000000000000 9.31903715893055 0.00000000000000
0.00000000000000 0.00000000000000 13.63935286480794
PRIMCOORD
 96 1
Ni 5.739734752046048 4.369547404233311 4.114352095837745 -0.7414249048549554 0.25318861247668006 0.6701523825622135
Ni 2.9176880150399738 5.821658407429075 5.379742211639356 0.8468054245749996 0.28681375673029313 -0.15124154391821693
Ni 2.7746967093640365 5.500794640111024 7.910047172349102 0.5247433861653737 -1.1922868703498304 -0.2562184004419394
Ni 2.99074926611527 8.133087143138122 13.357072832045043 -0.41018042861511295 -1.8702104122170307 -1.2285947036419291
Ni 1.6720961936145708 4.168423944959453 3.892780805299932 -0.6203161757663769 0.7190866463690713 -0.9315384432480215
Ni 8.231486856161599 9.143075067919948 10.302348376053255 1.0404688851028532 1.7538096301270827 -1.2418819076691388
Ni 6.17029290538544 9.175579869418753 0.771139139410646 -0.7761579374607666 -1.0366965625446147 0.8558099420664552
Ni 6.9401572005171195 5.914578526621904 6.044456083252795 0.23900126523270457 -1.8608564818059565 -0.38453058925749256
Ni 1.8245929171599975 1.8620927225588486 4.250690540908751 -1.0711269763083424 -0.7721313327998767 -0.13018960834392415
Ni 5.885689511528356 0.48455172254923345 11.927804652654862 0.13860354343923226 -1.7203258965473402 0.8723655324322912
Ni 5.480702796065317 5.130707718688417 0.6612210964982586 1.4793834484278652 -2.1246202986953215 1.6006279317633596
Ni 7.9562677326913525 2.583544619816017 1.1855091933568114 -2.0992856765852745 -0.034094370580547734 -0.9458995970656999
Ni 4.259880975323351 7.468611838875132 3.737046648256602 0.16480616997652908 -2.1409342053639966 0.19905943473244428
Ni 8.084274026667153 6.2107002503679 0.6009632705316804 0.17169389823529785 -0.8732083400485606 -1.5717138198321705
Ni 3.866077104412654 2.9038585639435786 3.424200048578867 -1.3190767089835864 -1.0609091552350762 0.5141031328427081
Ni 2.3666813068347397 8.66608015257696 1.964039261112842 -1.307873384068599 -1.560487354988732 0.34475099536670945
Ni 4.855786804406235 6.593321276726256 7.181269580006436 -0.15018224941576716 0.9497652506686933 -1.4772509754658945
Ni 3.7805469816614967 0.7989676480791473 13.656675216157955 0.7185410582782464 1.9081041019390106 0.05852782103256372
Ni 8.612905726730578 2.894586122002262 9.232641265650788 -1.1868055355202851 0.7754148886471549 1.3246678299181187
Ni 4.488952226940934 0.018815135959314146 2.458016257812274 0.8435041281159085 1.59567418730251 -0.13463196038599395
Ni 1.5496160886550532 2.618183480816894 0.20992342603283715 -0.20383860128864253 0.5890299640585855 -1.3502443928356422
Ni 3.5582040748495722 5.903712529331879 13.508797007412644 -1.2404860557628767 0.6541292676610798 0.24040817288256017
Ni 8.548716199000138 5.811640442517604 3.3621548312913396 1.2123718140251638 0.003256045043452457 0.5318172622930195
Ni 0.7245066776273831 5.130828866171068 5.875151544345199 -1.3448854425165742 0.39315046971601963 0.6759185956220295
P 2.7752372135174 1.3649034537617568 1.8741152123563283 -0.4864897420008138 2.200221530270404 0.5677330023530223
P 7.686928921648214 0.601355601994725 2.5953369293964608 -0.5834478419851178 -0.02402104550494573 0.4830015263418972
P 4.993699234847983 7.446861206220828 12.292357929831484 0.9110295246613923 0.5699675481104958 2.5590508581070512
P 5.436539879120697 3.297448097000355 2.133003655165304 1.2595790678385854 0.5872841850120725 -1.2875763243824598
P 1.9553296890139937 6.759526303885428 3.613746468029913 0.9432277066604916 -0.004009378269709224 -0.8113627674966737
P 4.726485164269789 2.413733125288715 5.384216281364004 -0.598228342728402 -0.39588560925899563 1.2152486213523264
P 7.605955808052136 0.8259108482205881 13.323519638869456 1.3573799754391591 0.07367907485170537 -1.7767253583829918
P 8.046364183634715 6.464112826961079 10.344494653363602 0.6296256260927607 3.995482485563738 -0.8908700189943818
Ni 2.636253093806052 3.362774547260282 6.064164914872585 -0.14995444967567725 0.6206581324868278 -0.16426109610633646
Ni 4.1760189602179185 2.6731005666060166 7.805106427166218 -1.2990401020476854 -0.3585855872569566 0.13861434207250967
Ni 4.936182137700442 6.037822792625831 9.299965717470734 -0.6267475332140173 -0.43979696592996514 0.9371043673715732
Ni 2.2210713517261294 8.120879204501817 6.971673252176755 0.7772388292297712 -2.2354860098996534 -0.36848304887632666
Ni 0.4300922014830443 7.079048129857198 1.9768603923921013 2.497850889558963 -1.504532436889667 -1.1964985944383328
Ni 0.4118371396550599 1.523028875731862 1.735471237500114 2.191776741937161 -1.6113504603871862 2.4736264697939596
Ni 4.190370277393423 8.878451689663047 8.444301047511216 -2.567294329062766 -1.6201798857533583 -1.371975870975463
Ni 0.4801205203953683 2.4564795485900395 7.526549224597099 2.79542651279145 -0.6669613864287416 0.955594712866277
Ni 0.9882652492389037 0.05720584130750164 8.490919530738788 0.3520763253835291 1.656534256012676 0.6586155855672077
Ni 4.7861735970679105 7.131942984589772 1.188144617056313 0.40011713084184 2.931693694788022 1.0779583974078788
Ni 9.013531132818201 7.8084584848207825 7.8970760045720985 -0.45263319846268496 0.2832874887445895 -2.1281694494991608
Ni 1.1324027964814554 5.736389217717473 10.421188465110985 0.4171272922465913 0.7555415467619956 2.30548840723072
Ni 6.089040220675555 5.817530073981836 11.292210908255718 -0.3819589718755745 1.6399251867010853 -0.3554053897567621
Ni 4.0108669842540925 5.352649906903884 2.6579142637039372 -0.7357278544701781 -0.4394760922554367 -0.2023771862517676
Ni 6.207885901155561 1.7195487306650055 3.9287476290913994 -2.0421238826623025 2.2579448531238016 -1.513828260369296
Ni 8.727185079018378 8.801196871880624 0.9318878703319879 -0.4120995000146967 0.18389326851496715 -1.6356466139303896
Ni 8.069372886301156 4.614414423781076 10.929212978375583 0.3014273928784099 -2.4843078607672053 0.7782145628794791
Ni 3.7915900406569336 7.764882667215159 10.668497072386012 -0.9396865262764527 0.8655094287424062 -0.4749069222592209
Ni 6.177459244936066 8.767825399929011 4.077034011662869 0.19078639609037465 -0.959441597416193 0.09177707000399678
Ni 0.7296992451145201 3.4477362087466945 11.040838268889626 0.8521132099411582 0.7429711662961527 -0.07289463127719704
Ni 1.0734412485792362 8.456476369517578 10.856856246507085 0.853974431519613 -0.13806129778251708 0.40079178831136136
Ni 5.967864780913811 4.115724790006545 7.929046825243529 1.4636878920694791 1.8916945502327356 -0.2964006290877798
Ni 3.4266192706170235 3.484984400143118 1.001086380518163 2.0447093840012918 -0.04222959809317243 -0.026528385307831734
Ni 7.598556492573337 3.1048422376605314 6.664460942345975 -0.7007557092703673 -0.7870951531985606 -0.5160435443985306
P 6.586788631700264 6.440349282287355 3.9560263145694106 -1.280320414150995 0.28852405455318053 -0.026492904084205987
P 8.010019938839607 4.924831550479815 7.697219002443793 0.9589592584631355 -0.049227112456928124 0.5021138216913159
P 0.6724803571550408 7.5863485539370314 12.963918498022094 -0.3716326502489019 -0.8559685791315066 0.1887678229984491
P -0.0009225846755681527 2.508983003763282 5.617394432643435 1.1478947173877005 0.013695495209221573 -4.018212323061086
P 4.628905526513485 0.6864514576157658 10.090175334457971 -1.3585421140680602 1.7407219437051893 0.8699846909049405
P 4.645745026601886 8.402891906037608 6.0170143146250625 -0.6731986255877052 0.8115350314084798 -0.5920924050339932
P 4.661028247490085 4.604293949461208 6.33223354115532 -1.0631755826717495 0.14687838185351476 -1.2260940487072627
P 9.033371362861482 3.9012564695668934 2.200109109612766 2.8433446766289676 2.2503685834384406 0.9790819973549395
Ni 0.5635613150226625 0.18720640922846862 5.863721745308994 -0.4935818729609048 -0.7653014543622368 0.09208817348651237
Ni 2.4517082015810407 1.5205034166704583 9.442755731944727 0.6546982527906725 -0.26946523814951656 0.17592490559750992
Ni 1.1943930314499338 0.3072719516683931 13.207258127384753 0.3109055075721742 1.5680862503819122 -0.3132974048431185
Ni 1.7227824365480575 5.024815499814872 1.5660837591620886 -0.9054952251067244 -0.06527362439682952 -0.23356595314974612
Ni 7.774490594493046 7.91467686999377 12.103670725603541 -0.3021071925542539 -0.9066231680635805 1.384388899927835
Ni 2.7403281004398417 2.351724252245983 11.73422122632042 0.10560986212203101 -0.24054212735726316 0.9886986945090971
Ni 7.4918721555440015 2.5745610680256363 12.077824376131943 1.3558851360611872 0.49908146262289527 -1.1752499694722018
Ni 7.964822608773893 3.8779122815638813 4.186421801362734 1.0737189054052347 -2.102546349614417 1.151714605354423
Ni 6.4112832054883935 2.1083948738241647 9.322279219967504 0.18111262044603646 -1.2514296992585738 -0.557920901358607
Ni 6.044923898916569 2.2356836019411888 0.15974973014133276 -3.8950665089378202 1.2725417986468408 0.3547718699378213
Ni -0.0009589289203632618 4.367040583246161 13.290294475800737 -0.2398201615895741 -0.09304308120061396 0.06096265572630146
Ni 4.548519512256405 4.303866830562559 12.223274043801972 0.2744254103682693 0.3958807241629892 1.7767454129876497
Ni 0.09294155297822078 8.784152352975429 3.276404779263987 0.1997289499956431 0.9459142523537193 2.4415185335158207
Ni 3.2719791685323982 4.390012009764095 10.401015545442274 -4.186358613154442 1.5515103483011021 0.522176653879462
Ni 0.5414053042533363 5.7822481994191985 8.375981322526112 -0.7886087616296097 -0.9268209831676941 -1.5551554012528572
Ni 2.911323112682266 9.059464666816943 4.569933727670426 -0.6366532223635035 -0.21097444100247537 0.3275762833596359
Ni 2.491360704556217 1.0286539561471093 6.543847440522986 1.7794003341119935 1.4152686202258271 1.3677908863598378
Ni 7.340484397416683 7.428195174855546 2.204815223361876 -1.9918711571543375 1.587154579867273 1.3643093555691408
Ni 6.059433639723231 8.560896180525063 9.808140267233073 1.1576512825538319 -1.3104822824463558 0.020275205309268306
Ni 5.044991215194721 2.4797957794816714 11.243791055151505 0.3620804877840926 -1.5104601152280117 0.7091750436823141
Ni 7.070176406512341 6.9145112103437505 8.446087506928452 -1.0780756397120337 -1.6420877415700428 0.20135028764914997
Ni 5.516842022043633 0.8819937455542921 7.202941932748874 1.6933730221075802 0.36999280065263374 -1.6238923016079387
Ni 6.873852251358863 8.153430601186257 6.3510831575520035 0.6297842631578121 1.7466707050894563 0.321956108959381
Ni 7.971755972396346 0.9504951917633712 4.856591969214004 1.0876149466610365 -0.19558150348617284 0.47129555075887863
P 6.976613273757752 4.844995359413225 12.894385434403063 1.9815456068586133 -1.9296622877257603 0.08391309387488775
P 0.6991449180863858 1.4247130340425285 11.322981436945199 0.05860469701708616 -2.2559113676335407 -0.21827997352495312
P 4.907973412317161 3.7546121013371923 9.632452187893517 2.950752511191686 0.2624710662198706 -0.6752539654548371
P 7.603281244396702 0.26342681388980116 8.237596416902027 -0.7325394294398674 -0.3180248922257749 -0.1631696628143706
P 2.3895222668328966 7.300608237550459 9.079539736595821 -1.0264669143968064 0.49165354558994034 -0.1386675639079483
P 2.19805333002256 4.720865784882237 12.600334400706673 -1.6362760199842723 -2.2165840307888276 -0.8996729619979925
P 9.324348978113399 7.4015893238581 5.534399087990809 -0.28072666999594875 -0.1619779564991146 0.47409239677772536
P 1.9316313776001572 3.5276469521102998 8.940186583014247 -1.037822705729258 0.7405088207985892 -1.0507946925088936
