# total energy = -340858.505742698 ev
CRYSTAL
PRIMVEC
9.43584935791273 0.00000000000000 0.00000000000000
0.00000000000000 9.43584935791273 0.00000000000000
0.00000000000000 0.00000000000000 13.81031932557589
PRIMCOORD
 96 1
Ni 2.3480922244799007 2.4355342398638102 4.995123477532233 -2.4737244288244042 1.9128858395983699 -0.0008245527838243865
Ni 8.955319230438006 3.98113578965337 4.693409365683184 -0.8437707515137339 -0.35342641165352034 -0.7084739038502315
Ni 8.18802427360479 8.378175508526184 12.202797922397268 2.4091576006866124 -1.353287036316708 -0.7209663798902873
Ni 3.8856638665224317 4.872002628807476 4.824124185917705 0.7623223171292549 -0.7430706679884944 -1.2118347105747709
Ni 3.66834682149094 7.954864437612947 11.165311195442966 -0.9722953134504093 0.13934736358379227 -0.336094348132976
Ni 1.0368111201450343 3.7428428516469747 7.97295956579917 -1.731800215735527 -2.3878614103119973 0.16282616343202277
Ni 8.299678678270574 5.096972147614336 6.719231480632602 -0.23062229714038993 1.203492509257663 0.6015417233723511
Ni 6.109636929422537 5.889847691876685 1.3697031652229077 -0.4994465592717979 -0.3615557256288741 -0.5190651048336737
Ni 1.5978761548642175 8.84668429754549 8.318549433268554 0.6670670587686706 0.5856201670460882 -2.2831432067663
Ni 6.827233268037663 5.873391570712388 9.517077800080113 0.47473774367120825 0.9191894347643654 1.2317052242464528
Ni 1.8043419732105364 7.469069172691698 13.258334485461194 -0.505437229637594 -1.8897567097800745 -0.9127681046190539
Ni 5.964400337128469 8.759591408585363 10.780735229456077 1.267143767559721 -0.7870319040607929 0.09832052754946938
Ni 5.902831420501727 5.099614185415944 7.663415586208072 -1.2261326152546819 0.0056636260436805684 1.361068994254972
Ni 1.087764706318889 5.819465692011725 7.765901176117349 -0.03977470879477666 3.039937909209107 0.05744770059450751
Ni 0.43452369062627294 7.514323505893514 9.78758000964289 0.5287797610182764 -1.898651441166543 -0.1759606439314518
Ni 1.8743937183502954 0.42504726718286506 3.084064879590133 -0.13395344626173059 1.245255452127062 1.2701946385709029
Ni 6.169847083751311 3.7351620703237303 6.182631715956302 0.7740326635876477 -0.6687822416875644 -3.2803879910731957
Ni 5.008558239753406 8.168142939147696 1.693655686682057 -0.2935898991118621 0.5326148184936504 -1.463125848918422
Ni 6.764711330632484 4.824200616296967 3.257606189003779 0.16713790343349927 -0.7008696091404123 1.2926660802005414
Ni 7.150269568530612 7.391902797186181 3.308261602340024 -0.5789196150974611 -1.499326210098379 0.256011683747772
Ni 8.146931149940507 8.620695707015152 5.040269298467198 -0.051989505693413686 -0.05638789187142547 0.48853865411004255
Ni 2.1351156701224783 0.2312877634924192 10.310604417943573 0.10442201246151693 0.6112337538491344 0.13421055657785919
Ni 0.3752590083965047 5.505487806838573 11.29065418667586 0.34102520977569006 0.3500767784549971 1.6309538364404104
Ni 6.557207568864105 3.181551356544796 0.7426843747112437 -0.6903687096090885 1.205864351923949 0.482553125950569
P 2.5448485539053123 8.162283276737703 4.24993199766425 0.24358297106611598 -1.016330854404069 -0.6414843252035597
P 1.4461665699562103 4.715999732471856 4.93267325258167 1.9233702840694618 0.1751036952477952 0.8789575838275121
P 8.508107153269515 6.031819480315911 2.710882701622677 1.8289485773537661 -2.6682270974241016 0.2357416206448263
P 4.294217269143834 5.244152524862445 2.6098323043906313 1.765734663699443 -1.8566720114109636 0.7147414820264981
P 6.924214927055234 1.0126553459589103 5.097651528763321 -0.19302582694385467 0.9705896436132123 -0.011305140600174079
P 6.90519225488366 6.58877048474402 11.708001800836898 0.8175143889203662 -1.1087190756295036 -0.5513802720266118
P 3.9116501954710974 0.8974002212035087 1.8497821926433944 -0.4731593434404949 -0.23288461081200537 0.4848954009305004
P -0.43095882676396136 5.497863640611078 9.390658178443061 -0.08676367594980541 0.15327605784974246 -2.2040979825066755
Ni 8.416645466087445 1.9585143147836135 0.33970661543616193 1.0770721381481838 -0.7330269105992473 0.5753828055887962
Ni 2.575203681075922 5.091980583339156 12.154544876290627 0.4983700383781675 0.46528096913368255 0.26878209603956293
Ni 8.55859838282809 7.270689877188155 1.064014673652298 0.05785881998999713 0.9012850436801189 -1.8417357018161054
Ni 5.244737547518516 2.433411173773233 12.768399713455784 -0.9337357080096564 0.07139182147942542 -0.3505010104766093
Ni 9.70845097748475 6.551536623439942 5.202305476839774 -0.10998973635728154 -0.16344245685978304 -0.4051783474148312
Ni 4.607270441086424 9.358569685757612 12.88738954736074 0.07791368175834323 -0.09912605416990025 0.7071161042707563
Ni -0.2568353254490326 1.4766066197704426 8.468487909264555 0.9111485667377598 -0.5920520387143611 2.569140638242885
Ni 9.165663182843113 9.483122896404812 10.369160467891552 -1.4671874205823052 0.7488433088062136 0.06896135766106189
Ni 4.003696905309237 1.0501156676459853 4.39404289313785 1.036881424861911 -1.5345433814294602 -0.940875147267915
Ni 2.4271646415422903 8.682358982134808 1.2841124634699812 0.5180685452483593 0.10483004653321301 -0.6100309917902849
Ni 6.583090103470565 7.295090983455856 7.360665418106821 -0.2564947940317776 0.07460132955565861 -0.12883746519140393
Ni 4.8208508897985 5.989499696243738 11.532624275151136 -0.43921898193930814 0.9389522192135893 -0.6577205845567641
Ni 6.349590576904229 4.341736206175599 11.436338981811273 0.8787043301661254 -1.2002212947055588 -0.15990719001301493
Ni 2.0951265408252935 3.6676863120405385 10.326763309855187 -1.1551251736978687 0.38775860927648703 0.8288534680822692
Ni 8.128134938151929 2.7477098778222953 7.034189750547137 -0.6451679447027341 0.8264263466980154 -1.0120975330490118
Ni 2.3300320089360564 0.1420529367431328 12.561037489426775 0.3219152284191166 0.016861808752345154 -0.8989381407144971
Ni 4.566951057064038 4.712187649358108 13.445602124839118 0.2156008840308932 -0.369955262546479 1.241632510662494
Ni 0.7640027890154273 2.8807176094346394 12.749548773741315 -0.8351696401082842 1.9828604690152947 -2.4966563550302294
Ni 3.2282965539346624 6.371255286877409 1.2208243351023367 -1.2426534957278403 -1.0979968041159929 -0.5703884376979983
Ni 8.554371122345517 3.5735920229061526 10.402194432676005 0.5625712556464247 -0.8249533616969148 0.6249264208448786
Ni 4.315089367776531 6.721051655960923 8.56116870817508 -0.29857295414875035 0.4840003999200568 -0.5135364617059608
Ni 1.7929717748143335 1.556952876487179 0.3320286648677053 0.4325495403389325 -0.65881201784873 2.6936241973409674
Ni 8.709600279039236 3.864131258439332 1.7410529012579627 0.45168600405806725 1.2839418129536662 0.7949089928160246
Ni 2.331003901413076 5.904643103565686 3.2154147324819684 -1.325500353121743 0.4104197983194287 1.9170695386624146
P 3.5473509260266174 8.453284868886163 7.129052117813846 -0.10165961922503136 -1.3460236698860755 -0.12626044849284707
P 3.1217846871327226 3.01843382984342 12.85688250301654 -0.28161498613817304 -0.012978671647855067 0.2984405423359441
P 0.7521032394739738 1.9570706298420208 10.368663198633891 0.8005528213653632 0.6336514594227023 0.5472004296173092
P 0.8759223410462997 1.7068602141805185 6.783145205808269 0.7615386448856949 0.16352550349189257 -1.612953800318564
P 6.936189019806089 3.196922355040576 9.083861918165635 -1.609810369593576 0.07924448475462481 -1.766892688563286
P 4.1256835649491626 2.94597594313434 6.237458718264299 1.040322846443292 -1.0263905526329162 -0.8365732053240302
P 4.226628280669145 0.7369417168324645 10.259078075717724 0.4767339481656306 0.5684480261421758 1.2375467706288945
P 0.4119314366677431 9.113077194741837 13.560628902041667 -0.36370568209234133 0.6574436767462936 0.8879402469420966
Ni 5.4116482856350565 2.9348133334225492 4.036300595366001 -0.16951823074021774 -0.4250861420823518 0.14863727352615047
Ni 2.659597917138692 2.304866598875747 8.585060278581045 1.0147681379026394 -0.946925210116737 0.36761067357370236
Ni 3.229523214342551 2.9421732958698836 2.8056903409634963 0.45438669081868194 -0.2720234857949961 -0.20436799142955125
Ni 7.5776003112420085 0.3920850148530266 7.315188398861726 -0.8293810584509652 -1.5527164527940613 -0.8536761835529039
Ni 6.483230510419101 1.7486232831444968 10.776274903496006 -0.6077488806243275 0.8886215892798374 -2.508150471712758
Ni 1.0736203682309986 9.056169587665075 5.65915155613484 0.44850606366818885 0.417216766636604 -0.2314116258109047
Ni 6.555556295238101 7.54685831425045 13.550588214810631 -1.8557402436253136 0.5839355802548136 0.8888123651344048
Ni 0.5561366906342566 7.640631784508926 2.9462382597446424 0.3862879382682315 0.6308235030556039 0.7375481955083685
Ni 9.046073228923218 0.46926648771740886 1.8878152703824607 0.8653585049868386 -1.6306715293133016 0.6796958032762745
Ni 7.58396950951374 2.3639727588374186 3.0980412595606355 -1.9617334572286929 0.1741189627370227 -0.8537931687467424
Ni 1.6481786674369623 3.7454471460514163 1.1660020507189852 0.09848919191684974 1.6414012570259797 -0.7506299683929911
Ni 6.8448028194183514 0.5989697849078858 12.6443003671595 -0.16539443837983128 -0.15094715260624972 2.2677199302326945
Ni 4.782239394497868 7.121820482916876 3.842169319213472 -0.7303264809489487 -0.22693019300078335 0.40259516006868723
Ni 4.070672563579983 4.566696289133169 9.391665927147388 0.5324415261405797 -0.5875706059042397 -0.013313686389770618
Ni 2.6366121882647082 6.725269480594204 6.016134268038726 0.0638723731739287 1.031492392635856 -0.3371083912197872
Ni 3.0009869445035204 1.0112022251680264 6.669748943363285 0.6225368375667795 -0.8434694182232312 0.31480227152341916
Ni 4.922842984789832 8.989448697325198 8.678142101086456 1.1228413739634986 0.5153359768085448 -1.4291114396461904
Ni 9.179552753000134 1.4132637634769079 4.20547688089742 0.861370209763052 -1.451722749287803 3.168427247032472
Ni 5.386096005753798 8.710374018681136 5.599546239745651 0.04858845043166471 0.6418000566717657 0.7261895759624397
Ni 6.285153162092886 9.327016205726986 3.2361311396013575 -0.47776624608488677 3.4124480769669554 0.25536093753765055
Ni 9.202198791299626 7.849352770835901 7.189348138371171 -1.3099017273525375 -0.3411385954251028 0.9465488006139247
Ni 3.0583569081955644 4.559911913492614 6.912478617706522 -1.015227079816929 0.2613955737675046 2.0062402813918156
Ni 5.6818060866986935 1.8872170375373822 7.461839424964585 -0.4028810667402223 -0.5067811452599982 0.9562189767138372
Ni 7.979822258988845 4.906981322130898 13.403370094165354 0.41183236239623916 0.48685381020845186 -0.5076596912102096
P 2.765326608449441 6.2424087648025965 10.008365672873918 -0.7018170606553461 -0.57166344775568 0.6391662185933444
P 7.434864219010175 8.190194518941825 8.986430169136861 1.1437542128567655 1.4316491184663795 1.7944747119466127
P 7.042238529992748 0.0674257482819473 1.0265335930967818 -0.2818780099915726 -0.6552690376924779 0.43037747238827817
P 6.457697102236424 6.662426724313116 5.393288953668673 0.1395635933596564 -0.41500793191074337 -1.7288835563093645
P 7.7041822294868725 2.5599081693744736 12.369212334841079 -0.5682083993275441 2.351724555380124 -0.8569661671580854
P 0.8345301009594757 2.3890343745555223 2.7701294557387914 0.538444280691234 1.1742973757509454 -1.5002788038196355
P 4.167871247131257 7.201326949046672 13.502570121351345 1.4934800357302473 1.083596569530263 -2.7437267704243133
P 0.8947997011387838 5.474528785313311 13.47213195870697 -1.2730848156345043 -0.7563434738380007 1.0947469297201275
