# total energy = -340887.9548221981 ev
CRYSTAL
PRIMVEC
9.13675613850341 0.00000000000000 0.00000000000000

0.00000000000000 9.13675613850341 0.00000000000000

0.00000000000000 0.00000000000000 13.37256616616647

PRIMCOORD
 96 1
Ni 6.495347404638477 2.1677776431905906 11.147706007695398 1.1009273474992265 -0.10780532711145305 0.3367710624850265
Ni 4.667795152684839 0.7806435374693468 5.778553346961866 -0.3700784183879046 -1.422722248290395 -0.41813130803107346
Ni 2.8907600258526953 1.9099201092461466 4.420141548083076 -0.49061250591993577 -0.9993152936826789 0.42782205295627607
Ni 3.4100749756909177 4.2660611185978405 4.544706600286258 0.11635630200525766 1.0229365326460447 0.6476506019152717
Ni 3.847378401729079 3.0708729011502225 2.380103066205308 0.4106550542586863 -1.9541553877711184 -0.47211264734353525
Ni 5.528925289341698 4.624413834168497 2.6781376582609386 0.530676463820357 0.7318750563829911 -0.3895758649908839
Ni 5.433108126898379 4.891024380568428 11.693131979449372 0.45895708379818373 -1.099950328297938 -1.6626267420636593
Ni 5.960737524893693 8.228535238387233 12.224518411600947 -1.3201347179344554 -0.1511052754506688 -0.03589105746965432
Ni 2.004723091749426 6.354787547002544 0.4559579412055614 -0.25397537004403353 0.5851861648324631 -1.3616927438819
Ni 2.664378617074384 1.5318045899790191 0.15864972126914934 1.0729761137019391 0.9019018513285113 1.1675970809126344
Ni 7.85952906506804 8.998992206350708 6.828152836151942 0.1463245662325738 0.8376111596702412 0.4254802921969769
Ni 8.838514220162622 2.361677883618944 1.462103017829562 0.20481562048993115 0.11553174922143329 0.2619277921218908
Ni 6.974223071462097 0.6666807771798899 4.683527733214175 -0.4992192737523402 0.9625336060779551 -0.36925617959692536
Ni 0.7778778413625866 7.220056634225515 2.4457488322702234 0.5829472481996154 0.9508862516470139 -0.5110165234975844
Ni 7.896249688302492 4.162304115002309 3.5721866138905307 -0.306180334182363 -0.14386659161038448 0.7763021763481147
Ni 7.6300046121512235 4.032123612428414 12.423555336374266 0.575394632663338 0.18392797840764452 -0.4987387345714959
Ni 8.452906560797896 7.629090936529565 8.792488724397199 -0.304710691615372 -0.2946412231945119 0.8858591960433518
Ni 6.910494196851421 0.8110853818317625 0.16000835691855542 0.6634343471120896 0.26208694340757444 0.8005317383194407
Ni 2.144643376450199 6.708443969877875 9.011491288854996 -0.10041777639813028 0.63548259909417 0.7358972901685068
Ni 0.1776185408504001 4.935776212517258 1.5339937567685127 0.11015223007707481 -0.6152037942404759 -0.30925151690851904
Ni 6.467873178695208 2.094765824263865 6.956221834364183 0.15033394450228305 0.41173440336579414 -0.10615365044064298
Ni 3.295280770585751 4.200148559251401 -0.0015029963976281285 -0.7951445058655984 0.5168601267625551 -0.17293548395188282
Ni 6.225877053542754 5.938069232720347 4.775223304928194 -0.7448694117601301 -0.41173774579990374 -1.05978121227822
Ni 5.438663274678062 3.23555379519794 9.04599259400444 1.347106618537609 -0.8692154168390837 -0.14944357147752974
P 0.13118189105523173 5.716100877194646 12.665879471074893 0.6184205014055608 -0.5685506131583112 -0.23806589790262872
P 4.300817339245728 6.297929513066739 12.640913284713076 -1.1471953773278307 0.857983038458374 0.930112252324456
P 2.267413969732443 8.417784869901345 1.2798631056848133 1.5190733108183194 -0.9750224825735853 -0.5402692497151147
P 6.18303480364319 8.01794214435118 5.871867038201841 0.03793251337971531 0.08591572612721333 -0.9860936527860825
P 4.877492844611666 1.25676081759118 12.593975027001617 -0.4324762638988358 -1.8376368491563837 -0.9211568429033813
P 4.298487466410498 6.127373684771759 8.180226467243285 -0.013618362114382998 0.8930989083249006 0.6665433250547166
P 4.735242687075664 1.1405504152724433 3.401927730172589 1.2201221473945438 0.6067788034015744 -0.26425772580664814
P 0.3059451955879492 5.8357649733632515 3.9201681974797413 -1.0539052131134172 -0.6771444976093306 -0.5761705915974141
Ni 0.8732564395075109 8.76902005237928 4.3867905605413 0.4187622567468531 0.36561292641738324 0.9939365458692689
Ni 2.0620196899836265 6.393536530117078 5.019606864480041 0.4571794230724707 0.7319100233859847 -1.10297394561561
Ni 6.388657502297422 6.048898085627515 9.261317614085064 -0.8035216741857 -0.34110568530463836 -0.25005083817864676
Ni 9.031720067118515 2.282580985051973 9.999831568639738 -0.22010057167345964 1.202599050909116 0.6411053445975862
Ni 2.590992191142779 5.291214302854823 7.127324040680914 -0.34162967612890843 -0.5868936344418731 -0.9202052776233896
Ni 0.8132105913277401 0.29262380502416924 9.021641311336001 -0.6225913449537986 -1.8158140968543373 0.013464610145338103
Ni 1.5427412871702706 1.1058946989429388 11.587061549179802 -0.673878425263549 0.14688146717730832 -0.8921141758141281
Ni 4.6678042894410545 6.693002851871847 1.4823491559298911 -1.6874144905313004 0.9433053539759625 0.8318408328453674
Ni 5.651056309688782 8.200841730294766 8.035682070221299 -0.2089610101168724 -0.30235427556805344 0.08717402401434664
Ni 5.309387310969609 2.950550958534023 4.475169489748699 1.0657965652343646 -0.23889327889993048 1.3335468775753034
Ni 0.6346482235601668 7.6715494426680335 6.690802720974894 0.44228656512103826 -0.532889669421592 0.3332715339722002
Ni 5.529235939053063 4.660732440129419 7.058361632109379 -1.9432809069504597 -0.20216609868222601 0.3240387025200226
Ni 0.8637094429368019 7.3824350657066535 11.313190936290173 1.0658986380298674 0.3645778002846495 0.1557438026639447
Ni 4.564330525288237 0.43427276400111997 9.956089348252842 1.8073428261585325 0.07623912226939773 0.842934885876
Ni 8.091063604352504 7.534324501051152 4.6986518057794875 0.10923434624849575 -0.43715387188016325 0.19424607250420095
Ni 7.228489860213423 6.422838107303663 6.933488671221699 1.0666249746729308 0.04878642537508372 0.030385811380708963
Ni 2.7646179695265314 5.16276978396208 2.240921031406835 -0.4081078623568004 0.15976706489072484 1.0606160494746895
Ni 2.4980531069076823 5.509756374799305 11.388866119654033 0.19121602742862553 -0.35546401090883945 0.30441372920024345
Ni 1.1593904065910403 3.659298275010689 3.672119885009422 -0.645635885478088 -0.1906241594808975 0.5012417034990077
Ni 1.6617566736474987 0.7344197740940248 2.540666937901832 -0.9370588588456183 2.972844457994719 -0.08532925749612401
Ni 1.2691685325333015 3.542037145727045 8.35090015969346 -0.7771634959071455 0.14939034964209108 -0.5407356478285721
Ni 3.5566102718924975 2.886657622311449 6.914018243724157 2.3275279035292624 0.8245077895190639 0.8875998328835423
Ni 4.245530827379175 6.892339462249068 5.851086399862842 0.06617402472391183 0.9355509068415243 0.8167517997227288
Ni 0.5491482862366136 0.2132025516115096 0.3261684917977371 -0.5324554100976507 0.5050081125199755 -0.5544424558917032
P 0.3057021578725881 5.876725051482199 7.974850461006902 0.6648623378078679 -0.18133270687664255 0.2086573628335245
P 8.79566283350684 1.6645525210497736 7.765234999886023 -0.32901147314426565 0.6040238663642565 1.0291984543953565
P 2.0078295888630646 3.40758064124379 10.858095504871457 0.38039599826382875 -0.6556364483342256 -1.1572345067313876
P 4.1229429692212625 6.124660068175433 3.7198201481893443 0.3550899153988723 1.1160230654900845 -0.2903467095842161
P 7.4900569171818 4.324728230264529 10.062696106112327 -1.5890404840360763 -0.8815160885833077 1.2910791953293959
P 6.710280457877408 8.107372714199107 10.104418189699738 -1.6402835984817685 -0.1353788658543475 -0.1730036181856569
P 2.420893200658627 8.584539807610225 5.900296968845365 0.8843674419891736 -0.0528672803126767 -1.02612598611762
P 7.087025463712048 3.9832419666696883 1.1566000412424953 0.1391956684972764 0.10752533397718902 1.1993859432884568
Ni 5.196639739256958 3.040054622431684 0.16180921156884417 1.8359772020657736 0.5815017740023405 0.9308771555149388
Ni 1.7616853763882818 1.3945796483621384 6.931950955150448 -1.089864919037478 -0.603821006324831 -0.5594031423310882
Ni 7.192025066153035 0.846164129974095 9.202158031258302 -0.29053028634993194 0.20725816849315273 -0.8459687876063172
Ni 2.5596622540761107 1.6319708483814335 9.400419245428829 1.2309066396045576 2.2068621755153734 -0.16197924205069525
Ni 6.587336266227049 2.305404602081001 2.493207885086028 -0.38604265502664487 -1.0812473525717958 -0.259712786748443
Ni 4.27502427644631 7.045270487802257 10.477111044152322 0.18000370365257387 0.28170908851387616 -0.2921698788358839
Ni 8.376852202051047 7.434094285355221 0.22461801482851013 -0.16734899100304082 0.4375688479303948 0.46981433822766183
Ni 7.855655080432208 4.24359383506126 7.917763094490062 0.7091776147854754 -0.98906841914369 0.12429098347130206
Ni 3.00012699776521 8.334676935355292 12.631164365829981 0.9435694062706266 -0.27780666813567645 -1.1108338079796611
Ni 0.3169951885562864 5.3305206280985695 10.109820753650604 -0.01766810670372441 -0.963160955249309 0.11765702309455223
Ni 8.554562110463612 2.3108866558109513 5.737847270665738 0.4777863006895449 1.5859482182639977 -0.1690420624347476
Ni 4.232849009750557 2.7735902641312173 11.102319171189514 -1.77997369011696 0.033341294464607096 0.37521471117320543
Ni 0.9044548072846599 3.4704872077949735 12.791100542374425 0.25822386090774235 0.12016796244186402 -0.008184849803637517
Ni 3.2376004285904547 8.755333191566837 7.92107882332106 -0.5258589878270556 -0.6594051713480386 -0.09382649633385777
Ni 5.787102609753724 8.054845502709963 3.49450591253713 -0.7630733363626665 0.01946762180630841 0.8044634692736791
Ni 3.4369735859925417 8.618217891024555 3.5121974135993024 -0.906939927973051 -1.4552965826819904 0.5869183170322214
Ni 3.4094536762681895 4.294832763923865 9.236177829355132 -0.24695574419309083 0.5241247787447684 0.7136050544292097
Ni 7.616600990781494 6.622859974397129 11.377806989929478 -0.07414521585484649 -2.0887181854820738 0.0291010311310144
Ni 8.171192956371948 9.088651195104053 2.5427400678873746 0.14173720397220751 -0.03617285037613125 -0.7708889757523433
Ni 4.571557699455556 0.23531807003375205 1.2345950470097462 0.21920325667017085 -0.21467502978251415 0.5068122556082498
Ni 6.427561810267638 5.969444853568098 0.2849279152629402 0.7687906984624179 -0.6069937476258578 -0.4922114749759394
Ni 8.30772350451637 8.935455203620581 11.300420492126252 0.08987188256148393 1.4769984931354563 0.29833358444443464
Ni 0.25771408687184366 4.998253351526262 5.9961388005304705 -0.5945118131087632 -0.9218286721594252 -0.5636398061202551
Ni 7.610945338683429 6.4658630923275595 2.509816680536535 -0.12935605669903527 -1.3750871629109351 0.5537618848849108
P 8.917209101456063 1.5522252401230852 3.7805850590833603 -0.15331693839000693 0.20892270067976923 -1.0755605865996638
P 1.8490144923063951 3.132664783442983 1.6634268726838901 -0.3329354907890202 -0.14368738572004286 -1.6965681320061106
P 4.6596268926272115 1.250511276339036 7.885186903875451 0.7936805197255621 1.0541623234295459 1.598461777349976
P 8.518809983388117 1.7665918144765875 12.223394590586308 0.18827442830179833 0.39185849037747356 0.9107505599683927
P 6.544941717382097 7.963085060026806 1.542499163130531 -0.44690220951617876 1.2299085373573464 -2.751792063930951
P 1.86253689150694 3.3706133255914894 5.841069774022601 -1.2473925530747227 0.2831656184547445 0.029463042456123453
P 7.0913380126462755 4.240359423360589 5.7669460118643165 0.9985673597730608 -1.2787468990162882 -0.7374566642358268
P 2.606963241009368 8.679361063625938 10.252038018864226 -0.7988399524393145 -0.7259705179730981 0.4317689534191661
