# total energy = -340871.7365013536 ev
CRYSTAL
PRIMVEC
9.21277931645006 0.00000000000000 0.00000000000000

0.00000000000000 9.21277931645006 0.00000000000000

0.00000000000000 0.00000000000000 13.48383377162872

PRIMCOORD
 96 1
Ni 4.25055530931628 2.4799328105124525 11.114508964339874 2.1369932184383775 -0.1524183378351375 -0.10613153895345592
Ni 8.534368752273304 4.212248572563312 1.740722423255064 -2.4745672364406732 0.09540541078520344 0.3534544366779784
Ni 5.311978049764303 4.009779319648458 4.525053756706699 0.007137125265413514 -0.3654887421346932 0.22132030301317368
Ni -0.12573232816493457 0.7038379207439163 6.373390656154984 -0.44977387463701896 0.3856788439293229 -0.26605646957828377
Ni 2.4324132943576173 2.59897113316399 7.091121448236918 -0.6674234136668248 0.5479481064166112 0.601133689300655
Ni 1.4076021392526177 5.038699374366691 10.196084221933827 -0.036682443022698116 -0.5106807374247204 0.4181469917603573
Ni 8.939067725838564 8.356027768611941 0.8238039702812218 -0.15677327236972358 -1.0276169688408496 0.6372157797351929
Ni 8.575890749037521 5.9587243765548426 8.195865441266346 0.4490279976099299 -2.232206310707117 1.084076851600791
Ni 1.3324166465539724 8.632733597947048 7.843492290869875 0.4158065165526387 0.1865433045433045 -0.8066010844419721
Ni 5.04249503948026 7.518097843673835 10.429340741053844 0.8727717667317743 -0.8836387913532653 -0.3480114112855362
Ni 5.766674777143502 4.470234034153823 8.247913038497199 0.41072036027898295 2.731443582181586 -1.314511201100091
Ni 6.236729207785614 2.688058709980054 1.185355812795773 -0.013362023129202793 -0.4583114797943849 -1.7982655464476127
Ni 6.310744677500222 4.310991142192535 10.560201823511798 -0.672798561935809 -1.5526714584887389 0.3571573394508623
Ni 1.155439154244087 5.2650573642705885 3.717870561744388 -0.7479318527355376 -1.094432226693186 -0.3843089601649897
Ni 2.714204577922556 7.038416058556771 2.8720029060736323 -0.40764017869176244 -1.4160548635725483 -1.050891623098074
Ni 2.8900028344690023 6.820911549658067 9.450306965518786 0.12755319916234162 0.8917349380978384 -0.6759301655862553
Ni 6.884019088560864 8.342890345184877 12.089767342876046 -0.7524526234240267 -2.175009292670835 -1.1582500924800956
Ni 2.63669746481464 8.247971079007431 4.883237407071928 0.1663647727129006 1.9753353642828435 -0.08255040919940622
Ni 0.362654612208955 0.9870663978955462 3.623713192423476 -0.9174379992908973 -1.1660418206103724 1.851198132780586
Ni 7.818277834924902 8.108959450612643 8.6148350101251 -1.1958128812252178 0.957886337113931 0.7381480338758966
Ni 3.5457224083969616 2.8620328362049308 1.49524975864817 -0.08650939384715424 -0.28411975483789775 -1.2999533578905742
Ni 5.695708737410912 0.9213516424220213 12.420768687616063 -1.3238193658748942 1.2186643319020947 0.9255007216943739
Ni 3.875346442616399 4.928099957647264 10.918777017001608 -0.018584447870406702 0.5203108043153168 -0.3277919989148677
Ni 6.375694772283392 0.419270826745195 9.896069139434053 -1.2935112018096562 -0.02097274559692517 0.6855844008465676
P 1.7753394418575832 1.507846391924344 5.377716758464273 -0.009490198878622366 -0.7096869503217261 0.40874215350668963
P 0.7914496102998013 3.9599473958637534 8.44799986665873 0.2117236604636741 -0.2617838103448588 -0.16154935360212822
P 6.77525301494241 3.1453626539299813 3.071348105493313 0.9042574960448815 0.5787386094349065 1.6597303943524706
P 3.747003212768975 8.952527596544693 3.039714184861119 1.2465985964185178 -0.08267870724715438 -0.7775566175805061
P 5.2790515761820265 1.8182157171938773 5.941907369034673 -0.6786007704398829 1.1657260891421668 0.7485206353594721
P 7.481007193801914 5.392534592854237 6.33440862267186 0.23676440548238578 0.2332988155312885 0.019673567169527405
P 9.682815406951372 6.710293707379837 2.1347741876655855 0.1981207249682588 -0.6354581736141379 -0.8693521995272642
P 4.254986656208579 3.3793580379580286 9.272077456488187 -1.1859902387078411 1.3876948243726164 -1.473846834880352
Ni 3.2777963578318343 4.993013201312826 7.9019713294011735 0.0063292846521374865 -1.6272861577808362 0.40693363954304107
Ni 7.844589532896637 3.465405397571476 12.861285104939906 -0.7109601606071949 1.2564304949072749 1.3338788069934253
Ni 5.862238937879079 2.2588261048676195 8.38620330626482 0.013908382550976046 -2.2121961861337773 -1.2707764792163017
Ni 2.184644805123778 1.8022591832698418 10.922674022688597 -1.6108730065301355 -0.6255918223430194 1.783212251658916
Ni 2.686741282525587 1.803981973017991 3.4627161872640704 1.013431421369087 -1.2827408506670297 -0.2322426063526323
Ni 7.868699376591326 4.485471971284514 4.43218986161381 0.263111785127663 0.5211579828069606 -0.4791492424753426
Ni 4.374172383330546 5.935664789711967 0.9795948338006312 0.20613151108787725 0.09822411118092116 0.007471882897012938
Ni 6.076389995075502 6.854086768284194 7.359611320901439 -0.9960715899344007 -1.0089980681880817 0.7431331457953136
Ni 2.9889112341274577 4.250463181522261 13.136922251864396 -0.8779977910174039 0.7138020009313641 -1.6680060040977016
Ni 0.31806568118185374 7.557067900543737 4.135181830310805 -0.7118749591119804 0.6142152050749615 0.16064458239967172
Ni 3.350899762385658 7.191587728892229 7.149923855325221 0.7607014936963802 0.7766014527560884 -0.08095375413624768
Ni 0.8334248758105925 2.998050311294111 2.796318080731406 0.5003353896346544 -0.002804302218014525 -0.10981181601852055
Ni 7.47560850507242 1.0244979206053362 2.4690248797006413 1.1518400751886937 0.39508188241077763 1.1815190903103652
Ni 3.728153866112753 0.3129793056740824 6.65245127190521 -0.6704981959374066 1.1396445615637665 1.3950126981902684
Ni 3.651227158107155 9.180967674593413 11.344488497826648 -0.03537812238897778 -0.9246432587900849 0.37612539591293287
Ni 7.167422608521129 6.034812721634871 2.6428856887388745 0.3216272648650525 -0.5261312676518358 -0.27297762217814925
Ni 6.492641794010705 -0.007557242943352373 6.537906943045903 0.45283451584021367 0.8236068749713493 0.723071084938116
Ni 6.814084880121284 7.347081019636958 0.6833864717497093 -0.9881837025458917 -0.42322183518010337 -0.6755270166105656
Ni 4.978152988137613 9.227335593323014 4.747994726730444 0.6537322893329773 -0.9667437875045608 -0.6798842651379969
Ni 1.1904661415299893 5.001746916185798 6.651440630004823 -0.4308153312566452 0.42026918030968263 -0.4867136850861618
Ni 2.0038716477003224 7.050033373382526 11.524484096668585 -0.5289597382395664 0.27887007640318423 1.1021576203619017
Ni 1.4879744267545145 -0.08592851475916362 13.022834876863424 0.7427994166049788 0.26113229280378897 -0.6742489212290904
Ni 2.8024169406954424 5.958669099878431 5.138325449540552 0.7219207733837567 -0.6773990368222979 -0.13564523214185673
Ni 2.075362815858819 6.684304456687168 0.4110723743554726 0.16879652208284476 2.141582637581273 -0.30289806388666546
P 3.5887460882036852 1.5222643916882674 12.947446703017937 -1.6434082601536792 0.573828830838115 1.204640763929493
P 6.932119009818017 2.2575915924277687 11.365766333133202 0.5273252879599369 0.25578054157357244 -1.3825441334096127
P 7.858132318617384 1.0678440476911253 8.300769517759536 0.7802794158283077 0.5189725451198676 -0.25860721238909007
P 0.7430539588238481 4.348256834873091 12.406124974756795 0.7359068032502036 1.1536429327253874 0.6631178443129354
P 8.881183832856626 7.999087843465965 11.807133089995839 1.95436313290655 -0.7947675821421538 1.134153456542208
P 6.2914070535357 4.88482753279669 0.7474760929367448 1.6940687626230244 0.8097447722772764 0.1584293199159078
P 7.779169586363972 9.079442845584827 4.540856437214724 -0.3995810558327118 -0.5211613252410702 0.1864376322033757
P 4.649367316843747 5.551114164698593 6.134240722051592 0.4104411384756673 -0.13134429077365767 0.3789656935752054
Ni 2.958573551557106 3.488078047679473 4.997621433569641 -0.4845457309005656 1.3455801545907535 0.10396178499564677
Ni 4.9066157560821075 6.441050229360243 3.6239693076908477 -1.5354029012162784 -1.689592472019226 -0.4641550830593555
Ni 1.4980532074201582 4.74772294973809 1.2806666220977991 -0.17233770246688385 -0.802749571906366 0.9450418770510952
Ni 8.223022872387173 7.524279618652488 6.462559305429785 2.3747377284458455 0.2292734964219793 -1.5454623423348095
Ni 0.02144458661372829 2.7470481364902155 11.207304684865191 1.2735915800675937 0.2163272206739565 0.08436072293526761
Ni 8.736884069085166 0.5750110199778943 10.47503796944299 0.006394847782750277 -0.3811940686850919 -0.8149607692605771
Ni 1.3673330804870523 2.363004214343943 -0.17908169112527217 0.28290516570450636 0.39578662178728613 0.3787528062334509
Ni 6.141450643211494 8.163416189657086 2.615014267214403 -1.1633624740059965 1.0621353143326933 2.2640352822922556
Ni 1.8576003491368633 9.132554518836596 2.216849918078888 -1.2172142297191295 -0.10935878764150198 -2.053924989062289
Ni 8.471786341796413 5.8782599612589275 13.464565538512433 0.9937514264416564 0.192952550503758 0.8489862342764023
Ni 7.269371225382201 2.240363694946276 5.170267998282709 -0.6660969815459173 -1.5360806440095933 -1.501431172256524
Ni 8.344935582212093 5.463012355278528 11.195060901040108 0.6717636929133914 0.4988703750533537 -1.6057603678939183
Ni 0.20165115810396855 3.053188796014291 5.6317388823561005 1.956069831185012 -0.018360504785058702 -0.8988057289016907
Ni 5.19932418323826 3.6830573109406086 12.811705611310812 0.4822541066529114 0.19916382152079248 0.02604733190635514
Ni 8.214197029720182 0.8217753162569303 12.735616344952845 0.5255273155192498 2.0161973926045276 1.3303119155777734
Ni 0.4344120296921652 7.61956739600601 9.835660944896006 0.0781201413421945 -1.5618029884763618 0.3962738458363498
Ni 5.1209050049695595 1.5571163361655345 2.9613604173261714 -0.32078651413131204 0.2782980059497981 -0.1493759514643879
Ni 7.732248900870259 3.4027861359769784 7.15376742689168 -0.2379388854064612 0.705647747255346 -0.5862462306658613
Ni 0.9731735265575292 1.833389164868754 9.038362140953957 -1.408995642732922 -0.08683489550737303 -1.950867718158782
Ni 6.429598744563721 7.16930201551911 5.018373219172349 1.1968027559423131 0.23675437818005676 -0.5274870103487819
Ni 8.12422502608154 3.109064303086621 9.324206126177778 -0.7738786545082865 -0.11392429552499736 0.3911205837701845
Ni 4.021820422326699 8.842149286530912 0.6252685741709649 0.010250731193730732 -0.4298817636987822 0.41902219527645895
Ni 6.17210156028151 6.0084549597661265 12.203678753790445 -1.0232383801571798 0.09790940815397976 0.43849470217877384
Ni 3.257546668706529 1.40130059814174 8.842105065189783 1.8780877580825786 -0.7716693055617936 0.37944006210846265
P 3.948376144935007 6.746582845443797 12.371970437680249 0.22293264180561606 0.18204053157694455 0.36287752976409116
P 2.0594615586111944 8.981354383293137 9.836658688905228 0.4095898462189655 0.43262924453693236 0.6182870611514899
P 6.216801965939373 9.535963703285596 0.963407980391549 -0.6487985994767859 -0.5240296479278007 -1.2731231250716073
P 1.2328172884403767 7.2149605502347685 6.148021197480907 -0.5339181106861063 -0.6650369157125192 0.9157387572116036
P 6.765892831070111 6.269277957412414 9.690022564277454 0.2963443219285477 -0.01979569456968849 -0.3131338826820607
P 0.11935984865266244 1.2777572263626893 1.1962186009885156 0.8615928672968194 -0.0301613540747287 1.1800461053092643
P 3.5005245126513973 4.325611823103299 3.027147953756971 -0.18794301310430858 1.1824475156619054 0.4217524497234285
P 5.044549489286878 8.521406371654875 8.340613867394676 -0.916219553502764 0.5937610509856678 0.14322124471690173
