# total energy = -381173.51892726985 ev
CRYSTAL
PRIMVEC
9.21202233879708 0.00000000000000 0.00000000000000
0.00000000000000 9.21202233879708 0.00000000000000
0.00000000000000 0.00000000000000 13.48272585831774
PRIMCOORD
 96 1
Ni 2.201212692571151 3.149968065747947 1.2417593980723927 -2.8932001666985143 -1.3270373585915596 0.8312715906054586
Ni 0.21015938850488056 2.749392494608529 10.34276102001879 -0.037731196002186634 1.3829902198080957 -1.079494117326115
Ni 4.240229311159878 8.872789433635566 5.875246249976298 0.1433073766728048 -2.0657001273203455 0.32613209471394156
Ni 7.295378032925256 3.483645932039273 10.077447412501723 -0.8210987638375148 -0.7336429469166913 0.2174410225634255
Ni 4.013843866841251 6.89477482571939 3.3872246174049434 -0.04227433528817881 -0.46586075289655254 0.8716931889556149
Ni 7.893219846369418 7.633284217383102 6.773168763731137 1.006389426920641 0.0711928180947419 -0.8564486040917186
Ni 3.671727788261182 1.0385633771101552 9.281157454311062 0.6958395029156726 0.36164005781256425 1.5804275455560846
Ni 1.3345548607887643 7.944834806471851 6.715085121675478 0.44600566584383833 -2.249178419785081 1.550930307427916
Ni 7.348015527486258 4.60965903541257 7.9268989993471966 1.044231180358763 0.398331756806643 0.0731468564973192
Ni 7.253748904832646 9.19131352349132 0.9172797358971262 -0.877026171132754 0.7878775398905399 -0.43287247089598996
Ni 3.6621104371373305 4.497346061368513 12.986493462979473 -0.6534345555869004 -0.01810159469671721 -0.15331462439716176
Ni 6.691189136220238 8.970547412683755 12.074401016754608 0.43474294844582545 -1.1047387508255166 -0.6751850598901146
Ni 3.325853204644206 5.296977219992718 8.89458139323191 0.0775760959132664 -1.9525800728641987 1.5919622856685613
Ni 8.133358839756925 4.093288345856666 12.192091969329416 0.4156054562854261 -0.34802246702912965 0.3283476143080216
Ni 3.240393275165308 2.976625444964891 3.4799316447086817 0.3971107399153483 -0.2930144862243663 -0.46944847024781083
Ni 9.252002325410796 0.4169766553740013 7.58745809199928 -1.134181995787298 0.9264558865187915 -0.055145791934208245
Ni 0.14859636568343784 8.546499609107965 1.2793601088791207 1.0209110175755838 -0.9693963946360594 -0.9993785428204465
Ni 5.398106799147545 1.843132179606375 7.618225324775669 -2.1133316131553794 -0.32271278461974745 0.8626351925184046
Ni 6.596535608636357 0.6001862730811547 5.853565755847961 0.32373274124382956 -0.2921763065937871 -0.36084121606035274
Ni 2.0947401405697392 0.11580248803420559 13.432421661564241 -0.14172152024292367 0.36172361866530606 0.35925381696857484
Ni 0.420385103569236 6.570649826396871 2.7140864985191877 -0.4724540898433541 -0.28226213280386875 1.0542456271719713
Ni 0.616330341897773 6.857770132745721 11.152398277101545 -1.1075679927441957 0.0009304822340693653 -0.005332982177139203
Ni 4.356291578218693 6.3647427073161 5.647212774895164 -0.6679756866258689 1.0437511553985508 0.9535583991625384
Ni 8.289567099342316 7.529584484048625 9.104291235055905 1.2339148303032619 -0.5970294373242944 1.0384055748159213
P 4.018532786115236 0.7762409131849601 11.524251684381714 -0.46967549865695246 0.16658871579824858 -1.50713824994363
Ni 8.756192869292091 5.277908334143702 9.79549689298305 0.3085814874246879 -0.032426753070137704 0.3440529408584204
P 2.3640075479932787 5.993120521791878 4.431421146059385 -0.3271502515658108 -0.06596705091942832 0.5907968261510212
Ni 8.227551766233343 6.2471420325583535 13.091241524434539 1.4289651438763133 0.31935466678079194 2.3024694178987377
P 6.349155965839513 7.304000485656985 0.31220095785248736 -0.4038449733153884 0.13426532107519457 -1.4378369924446461
P 6.629459375797893 3.502530577445303 6.007322696339427 -0.11413435465327441 -1.1297275595603704 1.1405673304883517
P 3.3092439287090487 0.5817594651759441 1.7832789080958393 -0.5984661697708209 0.6161041945675583 -1.8307740605982792
Ni 4.213155178063135 1.8663556874447174 5.781338896186509 -0.65966408143638 1.404867222386845 -1.6595761281627937
Ni 7.198780768667875 6.373383584092127 2.091655955554159 0.04529589572332199 -0.2351070723846209 0.4733287791388235
Ni 0.3659088893872366 2.833682497274468 2.93706349464258 1.9295280761407412 0.5736300845637475 0.7466360167422496
Ni 5.777863200229584 2.3679595054953206 12.31586285652275 0.19970195341244965 0.45336159198827725 0.29090361052895064
Ni 2.302812084855592 5.361461375037698 6.779235801518654 0.14763402907261672 0.37470640407821915 -0.5270748625120277
Ni 3.8938296422803926 4.199576657415093 5.345928063289577 -0.0002026029291093285 -0.8803539499544063 -0.07625377755741707
Ni 6.707236478804289 5.658714905750759 5.814101452960433 1.07820805152484 0.5984499718209049 0.8707807044436745
Ni 4.749866012524656 6.042441688379139 1.164419866118088 -0.21614338679792452 -0.252600601183694 0.42132590370897116
Ni 5.4628304667684064 8.131101894330351 9.9931399069937 -0.5090226329960071 -0.6439582406653491 -0.4414890089204074
Ni 7.4227618752055395 2.1672848149953423 7.769946408372144 3.540683646908302 1.8276823090468328 -0.03488189947884961
Ni 0.355639327095216 1.6950489235566524 0.6019144484363602 -0.8810306643064569 0.17056595527844173 0.6053888650325833
Ni 5.312646869668648 1.88828951218216 1.3677955215122368 -0.025349791618698277 -0.09783433194167022 1.296298020526174
Ni 8.134040529395973 1.6636359280275976 12.178433304088674 -0.21117293016652663 -0.08483791968200229 -0.6665680076450649
Ni 5.1122853879217445 4.573649240831024 7.390663505228579 -0.6190054273747533 0.14920934397953659 -0.6691697069339702
Ni 5.851725193822534 7.007751065358196 7.519329660992042 -1.1590234803110104 0.6267948415121851 1.2006948919078677
Ni 7.619456972137029 2.0430330602458144 2.437703725187542 -0.29220613139045803 -0.4597263578640405 0.47031236091000295
Ni 2.071940385750264 5.226615794816495 11.181413383265141 0.864659164926969 -0.5801743134401685 -0.39835618228667524
Ni 4.8565688650798 0.0892515977955424 13.335561854675605 -0.5589256884740375 -0.6462092414830548 -0.5650677968160333
Ni 6.035237887058399 4.924470680342164 12.989150210167328 0.9842550569154467 -0.26703323166925624 -0.21691060398125225
Ni 2.464308045154671 5.3518900840245935 2.1786736379785006 -2.558337891200426 2.069021221273778 0.8504903296257547
Ni 8.10285783442065 8.67359787870162 3.1122853679440903 -0.35080311509806034 -0.6245811216903179 1.2910737960127572
Ni 5.848390441804494 5.596616664442443 9.642130542230714 0.22946195828370158 0.5813012279557602 -0.23528679249559478
Ni 3.5360070659357965 2.056086495631348 13.259451206476015 -0.6449645704426763 0.1377738484490853 -0.9365415528895678
Ni 6.022037059318477 1.1958862913756085 10.304968699151354 0.08546809706683345 0.7474507993340611 -0.5395012612008386
Ni 2.291435237501228 7.822268851775641 2.160916544083543 0.6038683146229987 0.20933330585462656 -0.6409958156029154
P 3.8678793758858627 4.087503195946916 1.707681369529964 5.1837329810606665 -1.2590928722307866 -0.23807952474938354
Ni 7.01321379449272 -0.004217263739941716 8.445053136391202 -1.0286703498060283 0.38065336569027347 -0.2700501641187091
P 0.6948830971691383 6.243116378879118 8.081370792757447 -0.14314539717364377 -0.2181475617121469 0.2327254595263218
Ni 8.547503719522236 2.1905359589001323 5.439645649423092 0.020930579505080083 -0.47840542233078254 -0.22209960438135942
P 6.446103286938566 0.6578793253976837 3.6258823176308455 -1.4849352314840296 -0.23865596607814385 0.3831360229028112
P 8.034209845364193 6.620201293537863 4.212097637920398 -0.3606432411169338 -0.0504301316260938 0.6864326077794758
P 1.0238425657156012 2.2515748176612806 6.729403367702108 0.680590547176402 0.9061747676722522 1.0904141066727286
Ni 8.970915893569726 4.66617479129842 1.3740781206180477 0.2774094326972577 -0.86426527192266 -0.5823677215470615
Ni 1.598359539077779 0.09491607021513646 9.292105942635486 -1.2238494756474598 -0.6498735777085194 1.034020044153716
Ni 6.058802239716265 7.629792860988524 4.51022815314207 0.48968330923744696 1.3875333590940877 -0.34276224707145486
Ni 4.957726080301076 8.241259255191476 1.867438100047258 0.9638813783551013 1.0222839866637103 0.8963135586074563
Ni 4.105945664289781 0.52291214648411 3.6917722272558064 0.8100545902082112 0.6128846591889962 0.4720234300638387
Ni 1.28039738257313 4.103854535261894 4.770511996565629 0.44307975044629505 -0.46180046678424985 -0.23231948233715474
Ni 3.203388582191639 2.9840871829058098 7.768719367021859 -0.8394291867155865 0.4595479233046472 -0.24793430605627623
Ni 1.3659217962070724 3.442458981009829 12.698085315934154 -1.0623849684496542 0.5047669430434468 -1.1580315487113861
Ni 0.061382467187316804 5.717616575373274 5.9505471614289664 -0.8812191261681791 0.5872325058385305 -0.17390504695400372
Ni 6.055799120495598 4.164193280339697 1.9750170159087987 0.8621505395725023 -0.8479721911895913 -1.2929717843664186
Ni 5.094257460575598 3.309234716686899 9.403202929755837 -0.8964721956725077 -0.1444985687674286 0.7782071066803113
Ni 1.211104551966224 0.5480425429073538 2.8929075088744223 0.24367450233865776 0.9994191662503948 -0.08262008609507707
Ni 1.9064371958162472 1.6253231279087301 4.801346477103709 -0.3788973022311152 -0.07884390688209647 1.0079593425109223
Ni 3.293841427675448 7.38203552528356 8.347034457116187 -0.27402946048143134 1.9820765396614186 -0.5030335052921079
Ni 5.716759857313391 5.266402518479247 3.8779011347820678 -1.1583135987281792 0.7650507718040115 -0.6928248844590649
Ni 9.136373023392999 8.538061396819222 12.424898193086094 -0.4257906243485442 1.1738196647835784 -0.29831712938420235
Ni 7.792689048654293 4.075297266599117 4.298737627436618 1.987758163427228 1.5998501730570704 -1.4460069298499485
Ni 2.511160389805924 0.6834565048951677 7.263871995972494 0.2837459164382468 0.26180103673603944 -1.4035191929993827
Ni -0.005312573173491453 9.002126224611498 5.281816995141642 -0.61362025180344 0.7237179744934955 -1.3940210237009605
Ni 4.735228109329446 6.620330261847954 11.763098231061676 -0.1279512059317087 0.522986551375267 0.22505534457557372
Ni 2.213317289675309 8.362894795650607 4.656852224883347 0.14479064608655062 -1.1168810426150055 -0.8270925195271046
Ni 7.170619616957518 6.660513102463126 11.347304399331641 -0.911856905658694 0.6336838553225345 -2.2928781746658773
Ni 3.237012463036521 7.432996431813394 13.467018331948088 -0.5968481745514237 -1.6584705538034408 -0.5334789662661586
Ni 1.299567600665788 1.3663087011373425 11.596006888509121 0.9494590322821842 -2.2710014291974434 0.7208262547679973
Ni 2.7550947363189353 2.923094384255408 10.671186191280592 1.023837190083443 0.5322489505137995 -0.23254651074629626
P 4.349465469806074 4.687371654263921 10.919632586242322 -0.6174913047230721 -0.4625154905734034 0.12174147757657097
Ni 2.547897934137264 8.07034860825583 10.988354271475973 1.619645610516443 0.47317682694199154 0.7124228611956505
P 1.0109273106623065 6.693188145026632 0.35641405815797067 0.6747736833843089 0.21729909766892255 0.3745367112695743
Ni 5.875252698391804 2.8572192138658856 4.0278562737325245 -1.549776653439447 -1.5715559540980675 0.6751997151781339
P 7.252339465443806 2.7657161978570586 0.5237661009373484 0.4184539814778149 0.840993702989229 -1.859701542265907
P 8.79396216010415 0.6378625224695068 9.997993721464155 -0.4008869191283289 -0.28633990241766816 0.15908829365614538
P 4.7801367173072 9.011071098118451 7.930930180239724 0.6341867631008821 -1.2601007446700103 0.37800332966193606
Ni 0.9073639152556381 3.9350718654427324 8.328724641892272 0.13981658991072696 -0.14171329271280755 -0.6852295886103102
