# total energy = -381158.92552305624 ev
CRYSTAL
PRIMVEC
9.33438700795519 0.00000000000000 0.00000000000000

0.00000000000000 9.33438700795519 0.00000000000000

0.00000000000000 0.00000000000000 13.66181892045016

PRIMCOORD
 96 1
Ni 3.8933821396714663 2.805534013386485 10.497700814856978 1.585333467498134 2.104344064944789 1.1531400249470398
Ni 1.3113693566741988 7.591152865994715 9.855212159379699 -0.023642064898972186 -0.1122538498011099 2.038898176636153
Ni 0.3143756190865935 1.100057504442047 2.7146992269017467 -1.6241267862162478 2.819345999721525 0.8072358898124935
Ni 5.425827117348682 4.382018628789263 8.681293517719585 -0.49123471288496695 -1.1907076987881686 0.35951889770450346
Ni 8.238903315407114 3.0041044274042674 3.326093172503784 0.0631897452846073 -1.1195218226719623 -1.1151697163508536
Ni 2.335071575699734 0.41033125026320233 11.573063265130575 -0.12237988249151825 1.6988800679687386 -1.1405243930655582
Ni 6.715820727861044 2.1484771801647615 8.025512695196692 -0.3917150228210738 -0.3976694406322958 1.263686919359372
Ni 2.9430855397798497 4.56999451359583 8.754685135273048 4.098762928221644 -0.2502022761548465 -1.1995944597548371
Ni 4.71693643328125 3.172702124860629 0.9556993430699882 0.19018861460537567 0.7937034025436975 -0.27569142156488646
Ni 8.495981666954323 1.8670454130122138 5.1696187306671 -2.891094433209421 -0.1934719133423378 -0.7176931084556543
Ni 6.919525054712456 4.692769705415314 10.577390343299257 0.2532914566031315 0.7067996014716021 0.19671947374535798
Ni -0.1395126810958106 7.309179704397893 2.96348117530981 0.4694744383897398 -0.5642154761180671 -0.1892545328268805
Ni 3.9005322800906654 6.232682192668716 10.837784269098293 1.7605078680828647 1.3250532382819953 -1.312537622313488
Ni 7.949023928046507 1.7264322076926126 0.631069899896593 -0.37909090629916004 0.5231004512453121 2.718066903764364
Ni 7.840735704804824 8.96348510397151 2.4080870174582962 -0.8809656153964763 1.4777050322841776 -0.22410043686147213
Ni 6.274565587004155 2.2402902104039804 2.3876073724456037 -0.11122232321280201 -0.715675306694677 0.620530348659712
Ni 4.774212231730603 0.7269237862552264 11.580536375338944 0.31395355036987865 -0.07825306737563298 0.3863517016266314
Ni 3.984737784949144 3.4725599718924185 3.209270519255217 0.268904223439724 -0.24954767328998315 1.1610466813886262
Ni 5.352402829440822 6.170795207056066 0.771754979995865 1.0235721093475145 -0.010753381861762125 0.48592641329817604
Ni 3.8283307968759073 7.860384589377166 0.9685434595410298 -1.662664280169814 -0.7325720824500158 1.3796691258546627
Ni 7.579736910730119 5.852557952079888 12.49675219496354 -0.34880691060363805 -0.7768536779762104 -0.7031126395383182
Ni 2.5642307758189724 8.308108460404428 3.0285931916206756 -0.49393951341063963 -0.32218956512642577 -0.3339824439962958
Ni 7.599395129689431 8.17838848467909 13.195172497166462 0.834635107761053 2.242611565200841 -0.9098275339334911
Ni 3.9482496662825004 7.244100358441424 8.411254369864208 1.2343313490153902 0.31254047207243596 0.19337215453967987
P 1.0892109467826356 3.3205681488561023 2.80694350581899 1.2474306054015096 -0.8973782524265449 -0.05556642441139462
Ni 7.9795380390522 7.682919224299082 10.737739242990024 0.4408493184538795 -0.30144230527674537 -0.30259518793426593
P 1.2394852426164287 2.5989826985091526 11.600646378627616 0.8075120262920158 -0.18919205502006128 -0.17981935555590967
Ni -0.18763424624345665 2.7119101120750404 7.381343850064771 0.7355684460741783 0.30886713698590673 0.06297685794285283
P 7.052754759938602 6.477308471997632 3.1745288643907044 -0.9305843068648683 0.006091200499402413 -0.6046602143966747
P 0.24738365723992287 7.375360508016851 0.7771661241225094 0.9784376789027213 1.3701473024071562 -1.661926630672841
P 4.901971986192192 4.356573089908405 12.421489966261243 -0.10034295729613688 -0.05478558038131209 -0.04119858572549679
Ni 5.6446718198658115 8.161530581810847 10.129227756084395 -0.10008867519348569 1.571641057612706 -0.2981530930025123
Ni 8.461323088133845 7.450166285196304 6.83171554304477 0.49473912649379953 -0.775927052396883 0.6976544446372243
Ni 1.1053127643062888 0.7003646550088203 4.684145665293515 1.81840731150281 -1.4418150032557877 1.258544198816168
Ni 9.089583337552398 4.86950698830972 2.51362439685985 -1.3082919596632565 1.7392564149032563 -0.9687657030305963
Ni 7.86053393956869 4.2074655924458915 8.464479977807178 -1.154905858598211 1.7692961557984561 -0.9207547223689563
Ni 6.289491271769559 1.0993107534844284 6.04658438652056 -0.5878354295298521 -0.392895159172104 -0.7576840470262951
Ni 3.4409444032242367 0.5822781257644842 0.0948700419719707 0.3735378376914147 0.397381991298864 -0.1065585991885455
Ni 2.196231903904477 4.3150910742126865 0.8627027125629435 0.49095729085386414 -3.1012738891144265 0.5534757211030596
Ni 0.18655145735490955 5.2147392904038155 -0.11449092338340204 0.45780728646445673 -0.018992739052418904 1.073093870226726
Ni 3.677729797498156 1.097089169385513 9.380750870314898 -0.2420400520590283 -1.5592611958911147 -2.2636717283052494
Ni 3.5732593385272997 9.099132415422947 5.0071929298754565 0.14952199012394896 1.0660331067252027 0.42346326176694815
Ni 4.480991133834651 9.356416123483498 7.283388793199138 0.25458240750041317 0.2806641921891296 0.30240081253527273
Ni 8.42479763191932 0.6211567809342048 6.886335708401093 1.1745403449996867 -1.160908356038549 1.1772723992188694
Ni 6.862725309998583 4.374289756377909 0.7207332208165672 0.716566965271011 -1.47385094864541 -0.08257663445165134
Ni 6.518781153306381 5.923200592670617 6.480074250856912 1.6695419811262537 -0.7567116558106968 -0.40695266570643457
Ni 6.250912250421583 2.924370093904531 11.846490795456146 -0.008968779157513587 -1.3142890577869557 0.40356935105649855
Ni 8.744808420419844 3.2472185360440053 12.521999844840629 -0.5749801708337388 1.8064218570061599 0.24938003736386732
Ni 2.728693339847521 1.9189166014058028 1.917887018522986 -0.6278453942638864 0.4117066354516522 0.2833445672347701
Ni 3.5441640543410813 5.6497590607645884 13.256035500528476 -1.3855124720093173 0.2937958444750811 -0.33114548876813293
Ni 7.957872926894288 1.210427295978091 12.238981231903143 0.19749183313500826 -2.384098086614823 -3.7024996239082553
Ni 3.100911354672562 2.8324543854086395 13.028853323569534 0.2705800684802501 -0.10558312264915365 -2.0574132047212053
Ni 0.9106347896550938 3.0081835545102598 5.166804412995574 2.046372116415695 3.213185525084769 -1.5981784417816025
Ni 1.6206549345459238 6.0702451906127095 1.7754629421311594 0.413289663668056 3.4235151334143947 0.1472571053491722
Ni 0.4366616890288377 8.843491559469156 12.243230244851993 -0.69940536589006 -1.1264856555843052 1.6219164088284903
Ni 2.9389037344171847 4.271060770874095 6.0400540493961845 1.1041741365712983 0.23808235296286093 0.3194539113628176
P 6.146357781967995 0.7593383784480601 13.288742259033478 -0.4131279412792111 -0.1510163152812883 0.5332660789244043
Ni 1.9193366488194632 6.546504282607974 7.988926565466861 -1.448215507465493 -0.05488945294902805 -1.2604046490636744
P 3.950704610055672 2.6029311441975613 7.8130163092580185 0.3145739575626969 0.6617600447334604 0.3473359824850663
Ni 3.462478833964566 7.841865165628223 12.414194209405307 -0.06455860060767592 1.3110409831633034 -0.47468657871829856
P 2.6134323295390742 8.311216811265517 6.6507096449888765 -0.861124412300833 -0.7583702744600422 1.0452729913597159
P 7.265345423185676 0.5677939575027725 9.98688488885921 -0.20501693786745984 -0.14001970706046854 0.0836978925402881
P 3.3214829187791852 2.297659352723037 5.022125148711739 0.24021945391052177 -0.37506995806522503 -1.0800746724199335
Ni 1.7134014034821663 5.3070470431524575 3.9591540971411274 -0.25808270734418776 -0.7412588115907364 0.6315446974923447
Ni 9.456014032455894 0.32437368097041086 10.056383133607387 -1.9693102411346861 -0.5296086846774749 1.0098853558890415
Ni 3.780986786162882 5.7520172700235 2.5879858572195205 0.21496993531511366 -0.13223157847461742 -0.4305867601856068
Ni 8.218657030068679 6.074492336684165 4.898035675206845 0.7513377930932932 -0.12413774572288945 -0.28455118594836154
Ni 0.10153479426871759 5.18297437154411 11.07763134229845 -0.7806666239643975 -0.21646631735498204 -0.9138070874065294
Ni 2.675337983925665 4.541898008815426 11.080445659969975 -3.084486385243443 -1.0175806676507702 1.466674485501629
Ni 4.356479746038703 0.7223322013045683 3.1471091026656426 0.4922338435734427 0.9899112267599597 -1.2586233887935356
Ni 1.460654207489147 6.597180669469374 12.114713471607116 0.804417446527092 0.8183065458043584 0.7078784363580777
Ni 6.6602997941620945 4.4112072568451834 4.05676751544365 -0.3951657003738356 0.8584885173398827 -0.7239244340773467
Ni 5.785555722407549 7.234821977793011 12.191123829906752 -0.9093549651724468 -0.2613449230352274 0.47029590584977077
Ni 1.3241854699843296 1.7681849206104683 9.111339926702618 1.9630879143740578 1.1706605503293064 -0.6392698340507441
Ni 3.468406169690664 6.789413034734367 4.699829302280902 -0.3913373277666809 -0.7187079228734138 1.3948831145909397
Ni 1.0340727229494648 2.209682755528584 0.33325815048867935 -0.7332801642606338 -0.37007404751253037 -0.4633531559833504
Ni 7.063246610893145 8.755981681623213 8.112428906031328 -1.8206493134594517 0.7295443513672855 0.8823383273742869
Ni 0.8344745929262596 8.863784516742443 7.935713092226953 1.0071083073645366 0.17599175427970334 -0.9691143446192663
Ni 6.599672950790426 6.580276094666281 8.874362244057112 0.4736589087847326 -1.7130900409205334 -0.8469494063520316
Ni 1.262186471728037 9.330709221767476 1.3033165810349783 1.3514890638760209 -2.8688574761880914 -2.90349769196978
Ni 2.0082746878718503 1.8377354379256798 6.718172059938847 1.2587012932193227 -1.1612888793064193 1.590861339294899
Ni 6.0791221926214005 8.140817577123899 5.550892967730661 -0.09378304469043204 -0.4272332703323416 -0.09776491215631551
Ni 8.373738535192143 8.838712353340396 4.794942971752796 -1.135174955828187 0.24775561438656685 -0.43633548974392594
Ni 0.9534889602354369 4.277660182462049 9.015639124290297 -2.37579008096976 1.1839030171615095 -0.7622166447893259
Ni 8.881874558690756 2.9568350917870037 10.061874553461976 -1.3109252835210454 -1.9655636296080603 1.5776085880500508
Ni 5.942121395059281 8.593245979184159 1.2281000908288346 -0.26339126404129476 0.8205356922451933 -0.8427721350458905
Ni 5.526601159079324 3.279459508639193 5.6709938576831735 -3.88555162746885 -0.23030245190712595 0.30686321918200055
Ni 0.8858333234751826 5.504039945772269 6.301527963767675 -0.8613151881554005 -0.9964171461992776 -0.33626224116940795
P 6.363933007857173 0.45983990531462515 4.000959082626016 0.3396046752790796 -0.15484777321223656 -1.0734743934945963
Ni 7.665127882733817 6.579389327904108 1.0137368274961136 -0.30781195624851504 -0.9008764953877904 2.7433930412339786
P 8.772400868303855 6.1303959802488945 8.782103963559413 0.9327653736765871 1.0634350069807235 0.5882707172950578
Ni 0.8361174450330207 7.515833697531899 4.989746960628089 2.591863533761698 -0.0732926380465641 1.2137267853911613
P 4.682725905035343 5.65981219553153 7.16718127605191 -2.788544955180268 -0.5416193359851059 -0.4088581102592636
P 3.510112210673669 8.516676002867332 10.132451853343914 -0.9319457059887692 -1.441149087537015 1.4397547782926496
P 7.365886105242063 3.6723905281511824 6.261252884307207 2.730268845147195 0.40351278678695024 0.5944544775082665
Ni 4.998676235203814 7.7451049102947795 3.169692718501426 1.025940609579691 -0.5009241722585889 0.7021641595821196
