# total energy = -340861.69849980995 ev
CRYSTAL
PRIMVEC
9.35278057622224 0.00000000000000 0.00000000000000

0.00000000000000 9.35278057622224 0.00000000000000

0.00000000000000 0.00000000000000 13.68873976685300

PRIMCOORD
 96 1
Ni 0.15643928538865748 5.116962405275871 6.7842900923391705 -1.9332978275958188 0.0628858408909433 0.557675103896388
Ni 8.335104579291405 4.191457996963636 13.379552070424813 -0.9418670788675392 -0.010996865331135898 1.6957453789944987
Ni 6.881261592579309 1.4180966591028856 12.522034895146819 1.6085862673784876 -1.3516867817091238 2.905121857836764
Ni 7.052651297822315 4.3356404633225 11.540552224143154 -0.2998150540859675 -0.5064726128806439 -1.6959778067202793
Ni 7.783047349186427 2.4892051564313897 3.6161404014049414 -0.354517330724854 1.493367678522099 0.4242860147785596
Ni 3.4463126105289517 0.7458842561053081 7.597729483013113 -0.02208680459671035 1.52536917112936 -2.225899651762799
Ni 3.4914210715596217 0.8790098651905963 4.962058846468435 2.1368741763620105 -0.3368047439364393 -0.9445405119346442
Ni 7.208983026233604 8.186086725341235 3.714453090388974 2.5192558375972998 -2.125289299737888 -1.9384850282237132
Ni 6.2627902671438775 3.1342477316673882 1.523119032918641 0.6671981850298961 -0.9258956431399473 0.466547494550932
Ni 5.190344322183736 8.172020143257445 4.828401999442749 0.30055398913452114 0.6113432828438051 -0.43492164011553475
Ni 8.176322422352222 0.778147608203877 10.49852432766115 1.8963449045205536 1.2958650467538135 -0.7430567840314235
Ni 9.121093558784544 8.091735874236655 11.192899079665212 -0.9238279619776413 -2.21930014416841 -0.7684441137562765
Ni 7.971917401447124 3.6108280220009568 9.318171611335623 0.6144036669366839 -1.2911982374057633 -0.23425835123108044
Ni 5.978390913417855 4.9150545768018725 9.221461053675364 -0.24028424571018614 -0.08119415228182791 -0.3196932810671333
Ni 6.394673826960064 0.7358823924880163 4.276307358215209 -0.7872607322421473 2.0786710856587174 0.23481936594087302
Ni 0.030597621866439065 7.422142249818507 7.816612608350198 -0.4229557260029103 -1.7008325637094193 0.09080005080270813
Ni 3.6550947327739527 4.3483976561165765 11.956867872417606 -0.462752546284874 0.11861398769118281 0.06803216097857316
Ni 2.7933949939933838 3.9412243509185254 9.531524437479794 1.0143637033753692 1.1774492911163659 0.03246249140407958
Ni 6.077268510352592 0.1490842586927175 10.111762530933621 -0.10801281513656881 0.6010370158217907 0.4613952609260312
Ni 3.773856341351071 0.3262661409865832 2.4585935053939894 0.07058346664551714 -0.8745532841122292 0.5936301818347582
Ni 5.8352746640520445 7.046787104360522 7.363391822945139 1.0711534586709037 0.2680454749838545 -1.3054640032961582
Ni 0.27964440004822905 2.803785933285334 2.0837686625983385 0.34627771642388105 0.8514071850130691 -0.9578318297269117
Ni 8.87046709595252 5.7577962292235005 9.716116527875378 0.0787282072398386 1.3696569930342992 0.15294309999035596
Ni 0.15739233373595696 0.06218757375886901 6.75677608225001 0.6656295549911956 1.1383695515060845 0.09228743398151203
P 8.796898123431838 4.239119767109249 4.618881942805188 0.14660533069778622 0.5225504922791129 -0.17117659227924711
P 6.368925621855889 5.332562704608028 1.3589169395981038 0.4265005059313751 -0.6806373412539375 -0.5723615022639691
P 3.6689368481223643 8.296505653586745 0.8399620060151772 1.049561848543057 0.9650139492976477 -1.2541139309589562
P 6.998863456356966 8.73581511306665 11.814929138134476 1.093904379214174 -1.6140159230344913 1.6126771496184098
P 4.472321999607427 6.332159841156831 5.324673634137497 -1.0607443475224376 -1.7038325268780075 0.8080725267811761
P 8.821206000317327 2.153683503722652 -0.025793098451250388 0.9814289003205613 -0.8828654035223504 0.9121451263230743
P 0.9688638993630717 -0.13835381346350598 9.909333752577929 0.44733724017106835 1.8772554919892703 -0.4329632308375834
P 2.229562613061616 4.3644189693543 1.9960236804603677 -0.25129113834365113 -0.2822094251890624 0.06899195378868117
Ni 2.7791039451742128 6.214763738553272 13.292328038168536 -0.8804436814547353 0.43500828629207017 0.23004868402510703
Ni 9.063218552179157 2.8260361984298417 11.526986951101712 -0.9951341657217958 -0.07915398192334755 1.2334391762184242
Ni 1.214430507868413 2.273399095925134 9.86134089399763 -0.5797431394400209 -2.1847715142639212 -1.5099422950513286
Ni 4.000960560871436 5.22498702167733 7.534583249238561 -0.3920425813638216 -0.023496283349727275 -0.9209748087995622
Ni 9.397954571314065 2.6676000943743694 6.167406869056549 -1.2349656401652795 -0.5716341371796414 -0.31362959137155666
Ni 3.9795052820813974 8.449348794819008 10.53729066813928 -0.18101003342990116 -2.4293942394484613 1.204744379386893
Ni 2.63745608236901 6.34995818271631 10.844411667154107 -1.6522081178334966 -0.04976884389301107 -0.34409356428836874
Ni 2.1266072037674815 7.819205199143834 8.800463403412119 0.9978273962832428 0.15307936845790412 -0.27643498459913035
Ni 6.89052084541372 5.296909904805227 5.297391573008229 0.6906232488220558 1.0440882270229954 -0.14785771504764858
Ni 6.8476383461755645 8.793231833420638 0.8702135749979061 0.6570739521117006 -1.37500514472009 -1.3005799357309795
Ni 0.5121115039880394 5.601296150760677 1.020328510117242 3.487793226667174 -1.0307040924066055 1.0605528003369218
Ni 1.3926664485404991 3.632966053777775 13.618885985911113 1.0685700142144436 -0.5868933773315569 -0.544712630198449
Ni 4.246480405473573 1.7474735349306052 0.5805027771459637 0.17084671974365412 -0.39910848707166746 -0.36873321721391983
Ni 7.169112122361793 6.574481034779808 11.710553041460999 -0.7265685565684132 0.35501072542150475 0.9779525117361868
Ni 7.702950135778455 9.032737840070729 8.312952518343625 0.23224286346294842 1.872537003467678 -3.0100295516854483
Ni 3.5495298976810297 8.119354635468992 6.499906638340239 0.18092698679779162 -0.5674347543863132 0.29880743875705956
Ni 1.6033191269136633 0.987700399573681 0.7734712178834675 0.1416166192339432 1.4074707214479631 0.0696378149027962
Ni 3.6640734021891386 3.2608843815440762 5.651313886349714 0.5217315959222434 -0.15199539136510595 0.18868760457981695
Ni 4.504121453786212 1.0884204942946598 11.405622463672252 1.2843968982132137 2.5135857837957163 1.9945826425482291
Ni 9.236534930234171 0.637955038066386 4.5166953320797285 -0.07231381907306256 -0.4460347193095609 0.7246962792463649
Ni 1.194958018574228 5.778886749568547 3.534199754932663 -0.026988869884018035 0.5217503649753208 -0.6155364949895464
Ni 6.65423219530407 1.7586314022351022 8.37292348309062 -0.5595412105708493 0.7441147929822927 0.9723840165094738
Ni 6.851014699986901 3.5898590878042405 6.727878795904071 1.7578336636848113 0.8194218903557243 1.6494794060484237
Ni 0.45795890407769796 0.48649236725670825 12.478641734085675 -0.553192385534686 1.408949877096651 -0.14119418698454395
P 1.4720809089616924 0.6480635233829831 2.8460670487282838 -0.20085946405566055 0.6818308473414064 0.8374540652670868
P 2.036306106680375 1.5844639211417724 6.1556214301710535 -1.9688158179967707 -0.1922344413908109 0.4815943615817254
P 1.2196025955627858 7.8361150265424335 12.814180221799568 0.5927007280419534 -1.0745406299755818 0.4447278275726792
P 4.5660742727509955 3.1416831922768393 7.835175072088032 -0.1395075433107404 0.3697120361874214 0.7512830285959577
P 8.889387771188897 1.8521311503013689 8.088033108380955 -0.7533715356938703 -0.3803767149901191 0.8257069520334877
P 5.91424954378312 0.8145084135011887 1.9929026575605264 -0.3652938525150677 1.558544115219432 1.2630986509560698
P 7.653698392923902 5.620693817809736 7.891038295577578 -1.2387101948093762 0.22981625629932678 -0.04388898807346635
P 7.542119719878932 8.506896454101966 5.872948599751327 -0.25989199263878465 0.5765565141819232 0.31024447694940765
Ni 8.67722929513256 0.5980336291791145 2.3665640144444597 -0.8996287390236183 -1.2064387363701803 -2.1084516593552594
Ni 1.6506441969562071 4.277643870568782 5.288877736790891 -0.03659785372869181 1.4292057991322096 -0.6952502060711059
Ni 3.950231078675634 2.6377740769107976 2.8665730202832793 -0.2754209415123192 -0.33014327275586364 0.07234595786257864
Ni 5.4899325916704464 1.9278138512468754 6.318735795103064 -0.6617451323351248 -2.149778286018188 -0.47994988399976696
Ni 8.083767305130678 5.126324538697331 2.6012982324116045 0.5581520435328065 -0.20152229445064002 0.7182759775423179
Ni 8.16190978738472 6.559170532870787 0.2655058015535031 -3.8428859702795237 1.6593920371764455 0.809509773448335
Ni 4.810537253140721 6.590820342559318 0.7734216481460712 1.4439271645027842 -0.6190509359007081 0.08347729188904979
Ni 1.4631864145722735 2.488223114464104 4.1726561020413975 0.8259038985356422 -2.014768373467485 -1.7356527567123978
Ni 4.2544676801408325 4.2364729301878965 1.0343015643946252 -1.0660989269661316 0.8594115433747843 -0.3326994635188141
Ni 5.5468536146504706 3.232087169950995 12.838614361223707 -0.869492067539238 0.4053403269139923 0.2790202288278033
Ni 2.296014119514634 8.492128413470112 4.10658057737014 -1.1615339054376899 -1.0558001161432848 1.1379810578184142
Ni 1.7364372537744388 8.055306793640666 1.5494555279251232 -1.4523938072128988 -0.336524236581543 -0.3519883936554132
Ni 7.186798230553581 7.4472638186197475 9.549716531104249 -0.8087386996102652 -2.484069519504154 0.5592154518003143
Ni 5.873957764782472 6.09345817364185 3.372084266973093 -0.840038023944179 0.5517178578716885 -0.45384547360323124
Ni 3.5502407090097314 7.049115946740086 2.8278057445270846 0.6027701964628136 -0.6007989316690556 0.28653273515476463
Ni 1.9971179557953436 3.3601360897044463 7.362461221271378 0.7748016805431882 -0.022725723732289895 1.7047277849987674
Ni 9.160478118063033 7.225051103374531 5.2096194678064 0.38791261835584806 0.0756660233747471 -0.130659091781175
Ni 2.1544504317351993 6.280915956025784 6.130022869557132 0.15952075320787365 1.2748586197054754 -0.1259935679847056
Ni 4.490877916398812 6.811545965682645 9.205349018465425 -0.3558129096078259 -0.6215204804871233 -0.5678474164436994
Ni 3.1776539866214284 0.7935927901541253 9.677911354235698 -3.0398985713307387 1.8639312640765384 0.39280105679640087
Ni 2.8824054073520573 0.04612136717407029 12.605617889899625 -0.26728494266874614 -1.0376144463731938 0.7078293282876971
Ni 5.023883532338441 8.00532553389613 12.561308156335683 0.5025293119621798 0.26209928470274857 0.7108449751855693
Ni 3.7054594565247623 4.698322591012175 3.8285214736405293 -0.23060352808731252 1.684086454599332 -0.2744092124183532
Ni 0.14398418740927896 5.921310893166938 12.259552847574492 1.9020252427347821 -0.7810826284558936 -1.2799010672253894
P 6.248920093453543 2.2857821774935783 10.81317337981377 0.42159638376153846 2.4284642714350237 -2.382989941152309
P 0.773098977213963 4.289905365988895 10.43478980398429 1.0638427839421034 0.284034137102627 0.850938987127399
P 3.066140783040945 2.250531547258332 12.458943842778046 -0.605036623899487 1.0374684077136325 0.7800223055121792
P 5.512472793014821 2.9293470133883273 4.353758669979894 0.588672837829483 0.04334185732074471 0.2191649472330677
P 9.234533435177037 7.287359328003666 2.3249918397740834 -1.939250445634828 -0.09375553388660628 1.1501184645118967
P 1.7174511090735762 5.701324139714235 8.316211027118886 0.6376361551020632 0.0007497336818309668 -0.18916120178212584
P 4.725726238289775 6.227418050760299 11.2861743609961 1.0396857270799256 -0.8977922000355119 0.35734194465784264
P 5.113688932051584 9.057943583897735 8.45627359360547 -0.8866750070764278 -1.924428807240963 -2.8713090230523775
