# total energy = -340874.04531448416 ev
CRYSTAL
PRIMVEC
9.23675143541786 0.00000000000000 0.00000000000000

0.00000000000000 9.23675143541786 0.00000000000000

0.00000000000000 0.00000000000000 13.51891939087725

PRIMCOORD
 96 1
Ni 6.024874132680223 2.451507643753515 7.539460238698409 0.030704885283024536 0.21998024404551145 0.10762406433858239
Ni 6.172514362732657 5.280364281396673 3.1189229517354744 -0.229240843411831 -0.5982160014332277 -0.19007060097027267
Ni 1.4097683778767935 2.2819301297687415 6.919713032269978 -0.7374980589967234 0.22181678303361796 0.13157106207248306
Ni 6.0229436516941774 0.6278515318693725 2.8942380568375485 1.1288155892690623 0.706031612957326 -0.1420544781023102
Ni 4.214341596800741 0.43880571752914893 8.151732142437812 -0.15948630042551243 -0.3150961486147541 -1.849360051130583
Ni 7.726736291522238 5.2910142554488795 10.643931369616814 -0.5738157182119924 -1.1817183508053648 2.1519310706951327
Ni 6.594569232088626 2.9302946385463 3.306511206747478 -0.03607720533853141 -0.10474725701141961 0.6029769131569809
Ni 4.1950737339448 3.119915902481886 2.7136928245617185 -0.6690187831784027 0.16634831765266836 -0.629284183592942
Ni 4.000242942372229 3.6495973959977004 10.295373328997531 0.04348095400177028 0.0557649135754459 -0.12530348389621646
Ni 0.047511076784328116 0.8549250506093626 8.651432065462686 1.0510710860987318 0.3448607814716964 -0.6108126071513158
Ni 9.073703998470197 8.95335836800516 5.420870044876753 0.0606194134542698 1.0581665594929324 0.376261664380481
Ni 4.572810671381878 4.566658995129693 8.04367600935045 3.6206637242773714 -0.1241392883847862 2.4281115160812954
Ni 8.221687600791483 6.401133189936597 2.4349867906834586 -0.13963301314501114 0.5617873262925486 -0.7182613222542985
Ni 6.4982761015645645 1.2345749192053408 5.358845261042788 -0.17743337182223637 0.5102680753673341 -2.469711193899953
Ni 1.3526113618880262 6.766677615882857 6.994729306567453 -1.241398797385133 0.5380092500363444 -0.014231055997717425
Ni 6.719847287656767 6.748684424682774 8.898463432367985 0.09443147690770834 0.6808977940041757 -1.0936544679868971
Ni 4.787315742860085 6.330407386538731 10.234943732083615 -1.2126440938499439 -0.5821419786895007 -0.5662713302058313
Ni 3.6064802417256305 7.51101196889495 3.0149753255504725 -1.994422462821281 0.6234205257233134 -0.9815024338709742
Ni 2.877922259642565 1.3774582224261296 0.9311411788785473 0.19358169944732467 -0.33691170182794883 -0.08399588339668115
Ni 8.130834916682643 8.190485855476348 10.238364101026834 -0.12082539352020481 -0.6517949631009485 0.36718669866240633
Ni 7.088135028688462 0.8262199991245062 8.964544073622871 -0.7133155482132489 0.48346355357998033 0.17243077640132237
Ni 8.50048046013036 8.893264065157242 1.7180791227999135 -1.909786631847756 0.5620837744870448 0.8808504299748506
Ni 3.5707524883570865 0.7146446638568406 3.4838522100565172 -0.9657976215412077 1.2671648506056434 -0.5824829069686872
Ni 3.5942877302348144 8.594861583170635 10.369335689991141 -0.334658644127714 0.3742947704620973 1.0153396941353934
P 1.8669783220312848 5.578572791609561 5.144665323204336 1.1055697313672443 -0.10964083765829505 -0.19925638123459877
P 3.7991958172895672 2.637655889264444 7.598781425476796 -1.1483932542906738 -0.2982042579554219 1.4329071592431968
P 0.4689424654390635 6.302891104924229 10.90531941880255 0.68536508574691 0.2981842033507639 0.8783906555804485
P 1.470657041321841 1.1931480903899527 4.763958770279154 -0.04831745615846518 -0.08336287779837256 -0.5657604520076837
P 5.5729568469228825 8.660673434967658 9.539530907753312 0.41040899968615124 -2.2878092447834018 -0.2463451071922854
P 7.214872490935049 8.266107136972801 4.4541461296223925 -0.26315575099172095 -0.10483081786416139 -0.2961676871413674
P 4.829398381005661 2.419428407081086 4.632432976247084 -0.47296162560739186 -1.050357862081791 -0.7225208688616008
P 1.7159943880700064 3.4535750635294358 0.3964838475293214 -0.934194649923946 0.16589708904786268 1.2176867984801738
Ni 3.165637820572448 7.155323156403765 8.421245761592086 1.2067927772754894 0.7159658413519024 -0.36509510624070024
Ni 6.312506562849942 0.24352324882635007 11.411927507997106 0.6932704566369157 0.5164968298858653 0.3048842410787588
Ni 0.6748869159705363 8.23593067103303 13.634640826275223 1.381223614825976 0.5474616536984959 -2.8706112256544047
Ni 4.964892283322924 1.4682370125259363 9.994482466256663 -0.5251848445781665 1.9379006164751527 0.2659816504762903
Ni 2.8839723316323265 2.727464820495663 12.23819091985192 -0.046955542813932036 -1.6400979648335239 -0.7402802497275509
Ni 1.8948086531841863 9.077361751917442 7.584113464683299 0.4587251702930358 0.36618705375329835 -1.92227525123307
Ni 4.21731583066441 6.010159988131079 4.520969405668084 -0.8262522830139963 -0.6500741237550998 1.6728764448161255
Ni 5.697505199151799 6.47377100081825 0.7054143784532247 -0.0017555492385260088 -1.4691296319103408 -1.1788477141257891
Ni 8.825771124654668 3.2562503491519252 8.600790653720601 -0.896182946566863 0.44204436720324514 -1.1592739057589196
Ni 5.24229039324126 6.433868235939213 6.733192545688533 -0.1715596866502787 0.5498211550696079 0.09270009603889841
Ni 2.8063282016385354 4.668919066883353 6.990322452603613 -2.7352156476295084 0.15606364789720867 -2.2687278026719184
Ni 1.2651485654436763 9.058352518093123 2.8301451644257103 1.2020670896650458 1.1060464138933468 1.2235486565775895
Ni 5.8806976843013175 7.551746041375632 2.6438546729473886 2.182561908207112 0.38585033651018064 1.3784653353545484
Ni 6.002160961653013 3.8353946449657115 1.0695308026748798 0.9714851588442881 0.695754399401034 -0.5020989092929804
Ni 5.240600067784578 4.214433964312036 5.696480843451548 0.3805872883390284 -0.46986756006310043 -0.06231762709229913
Ni 0.08591471695506143 3.5924034330044154 12.354426196064372 -0.2877766348641947 -1.4269769098016907 -1.5575290436913563
Ni 6.524711683296926 9.000096328719957 6.967664702083178 -0.5912673380295366 -1.8923864340934373 0.8968437200793133
Ni 8.705970462506267 1.6325126313624307 3.288206737034333 0.20790325827631936 -0.33843302356848165 0.6845505602654146
Ni 1.3104455929822856 8.268989003325174 9.620806004616073 -0.07428534097713659 -1.6956222231530733 1.48745491258209
Ni 2.222879579798446 3.409081633339085 4.698081337549114 0.3087041290454812 1.0986220964048177 1.1580683154865927
Ni 2.3318362961209247 7.998195170464365 5.033039185805459 0.573469133505851 0.7784601032313819 0.36605052817543415
Ni 2.388568421557739 1.4107474734965106 9.565743883783455 0.9611925186690284 0.051738051804239925 -0.5966771961911982
Ni 7.695830122243244 2.4187079404929928 10.720340545984604 0.05307553966874085 0.53681677239014 -1.3900396704557092
Ni 3.741641621002236 4.309544790691534 0.24562276235806418 0.23079816059662184 1.3025059491090987 0.7500049332144825
P 7.365265272824044 5.259637011862284 13.225531263627115 -0.88690332103715 0.4448484123109435 -1.305625725685003
P 0.6536026703430449 2.3897784359556913 10.151059253026796 -0.3752689614499085 1.479912581458458 1.9667388808630835
P 8.21414117511876 8.852705490948017 12.215871234422824 0.2174446221078513 0.5692913479790777 2.419278491170698
P 8.09539350259911 1.4102948726911697 6.804666525927881 0.6178062648603295 -0.3318880233611123 2.043937024611641
P 5.142182484500752 2.1323317084768743 12.001176809546465 0.2779246817707794 1.2083179556707642 0.8534368138485883
P 7.17811945819114 5.134118800764781 5.042948372417087 0.5906896111491956 0.028452341803421967 -0.7040819454301229
P 0.9058260150581829 7.2466192045668185 1.89807015000798 -1.0110343818918202 -1.8405797338347913 1.6721984449124945
P 2.8129417154471903 5.263710419110353 9.13524754757032 -0.10400523663907249 -0.49339315398886635 0.6939106613240759
Ni 8.624659342314102 4.268081014871629 3.420827086075238 0.33593596817824084 0.03904528682791985 1.0972542695230136
Ni 4.979467876605128 8.631762403932616 4.693660628458581 1.0682493976502312 -0.8852195055768238 1.069744494138519
Ni 5.2482388609685975 1.5512015111702655 0.7731641006371952 0.002068966713886759 0.5605999908526668 -0.9294080271685801
Ni 3.3584180533942902 1.3728675571148146 5.993518133621228 0.7343913950469416 -1.643528330671311 -1.35405862437541
Ni 6.544275122189009 8.879048705169085 0.3299265899161571 1.8695879481416833 -0.4864856282357557 0.6240980114063124
Ni 8.116508715680933 3.0283796987894673 5.53445622086529 0.27859214015144923 0.5021428751570384 -1.2302960026037522
Ni 8.58124661200589 4.175685793324176 0.9765231845275472 0.17780489622904216 -0.9270145872357389 1.885328755915708
Ni 7.432499584294995 1.9530463690550943 12.859547168327094 -0.6905743978619913 -0.41787394060462874 1.331314388700359
Ni 4.668466466078011 8.491751730313071 12.772809456846403 -3.1731192531915027 -0.5435152674562381 0.42907006643076423
Ni 1.53572071627738 4.926079455077159 2.3221580282875327 0.21974524521656993 -0.2284448298730969 -0.03665493221887236
Ni 0.3943750972464779 4.622495155706955 6.514482905096221 0.17208830546023912 -0.2726922297272465 -0.22397162459309167
Ni 7.378787876477496 4.554207854607253 7.142423109776436 -0.5118886416898926 0.9485601746169987 -0.3384985866990945
Ni 0.30901089065872905 6.799551213152416 4.487456625220371 -1.021921461117969 -0.4531276216006003 -0.9078871223776687
Ni 2.64456497910924 6.656714093687274 0.9431932917521968 1.6526022679481216 -0.09436797065962457 -0.9891360391568321
Ni 0.8602583507114819 0.7222696019141657 11.586187131129375 -0.8751574933551315 -0.12761747674137375 -0.9971758787421731
Ni 9.04222515062118 5.758375389094588 8.893191094823319 1.3505786362466095 0.6091257063671961 -1.7702657188005773
Ni 0.8173795046185512 5.550160545135507 13.232831991719799 0.2671545877384689 1.3633847868723423 -0.1484765795785701
Ni 2.4313530527891505 6.964224012287475 11.954956106894914 -0.7439684972124154 0.8155667782756921 -0.4968330329083508
Ni 1.6767751427745465 4.3592385117677415 10.728140982313386 -0.4237985336191798 0.29525803084290436 -0.3389454444285259
Ni 0.4835180587212669 1.5324047226219233 0.2533880990325562 -0.1952169210579025 0.37031573120969125 1.1200648396596258
Ni 6.46053473644981 7.0551136434008335 11.752577965974504 0.7764664698401208 -0.30988143718303407 1.1577636397619802
Ni 7.534778129550912 6.873186593156045 6.420512817481205 1.5641812589005513 0.5025748204881344 -0.5939505412886545
Ni 5.639729320837361 4.437944868141414 11.937205842249533 0.5369736096829785 -0.21482878175155906 0.5023596191535348
Ni 1.7843371096764848 2.366668084629916 2.764159661707456 -1.1385847528406843 -0.12473501298725617 -1.1376162182798277
P 8.822039477198388 8.000291912970741 8.249136454122741 0.07406654009811116 -1.4116971008244847 -2.436486370408552
P 7.629353224364905 2.108288445287029 1.47828013202894 -0.3933291613857291 -0.35181895795708445 0.37698645836164757
P 4.365464082028962 6.285877009343863 12.405730806537548 0.4016921886384437 -0.819633492145898 0.3476344875620916
P 3.987394621551225 5.331960773205537 2.4967825030894137 -0.24323458658776173 -0.024644280911241427 -1.4589881726009648
P 4.442221483914329 8.807149834377784 1.5818758379959115 0.1119031513299105 1.0344779576267409 -0.8722416052599171
P 2.5430346106948036 9.345467690199595 12.698956089516122 0.30654697349316234 -0.8009495425831497 -0.3644186489989659
P 6.493454517475015 4.524179176685553 8.974155836848132 0.25915125781801823 -0.49937122594917227 2.474074098854339
P 4.0301053587736 8.222445014384096 6.485715043703684 -1.0736983365799444 -0.08318290057708254 1.2259441533929596
