# total energy = -340867.13120756386 ev
CRYSTAL
PRIMVEC
9.27633637552220 0.00000000000000 0.00000000000000

0.00000000000000 9.27633637552220 0.00000000000000

0.00000000000000 0.00000000000000 13.57685595202501

PRIMCOORD
 96 1
Ni 1.2528248659433512 8.616269249661519 9.602217632788527 1.8133363247378063 0.6924474465149882 1.1913625587633483
Ni 2.1540673124153797 5.500932319026691 0.6942929509718168 0.9224151407905146 -0.8557325518613004 -0.4093211659386112
Ni 5.597601018884496 8.809179937910526 9.63620056293526 -1.167394992204157 0.2848664031959352 -0.16029645503163362
Ni 9.25526967089795 4.68648855066324 10.93771877301963 -0.16503139861345772 -0.892609627393308 -0.13697372114529313
Ni 6.309262981814259 6.939144764536133 5.462416970997749 0.8344070509106468 -0.49916759457879833 0.09171819174160334
Ni 3.226393227986102 4.794205366971543 3.4187065201818667 -0.18869788899246212 1.181266607979927 0.3938899189852055
Ni 4.276233304534148 7.173706202459983 6.995678468059154 2.8193107756082156 -0.7439849522726477 -1.1023633086148048
Ni 4.6499768912600805 5.219942818269302 1.335294277933164 -0.9572075658793513 -0.5628988141891725 -0.26997894456114147
Ni 3.1862637974530568 7.446949962464925 11.212120219786136 -0.5229155889280156 -0.0007013969423987921 -0.3330277933925103
Ni 8.527939976074913 5.007468336910217 5.64366823223867 1.3518148226465558 1.261115301977454 -0.5904666965051122
Ni 3.1241680027262415 5.353494230979484 8.732430314840425 -0.3308927493273785 0.23603626906710962 -0.6165479669731962
Ni 8.019299907885378 8.099280478864554 9.675681577565793 -0.4123851495759156 -1.3251738230202597 1.3527936416200572
Ni 0.7740434688124768 7.0231605417755665 1.766770070823096 -1.7922728191992876 -0.17449408668825434 0.6555096929483744
Ni 0.3027239565453984 1.6454179678896144 8.220895102113358 1.7063853752068483 0.38779974692706765 -0.7806812792524168
Ni 9.274787082326876 5.597248518107738 13.290207845038545 -1.0943975168005087 -0.9104461413540965 -0.21327454989056174
Ni 1.3585101646171798 6.462795622764889 4.454064380606891 -0.6690164691855576 -2.2950121902897442 -0.2946227112517507
Ni 6.483648826611002 8.161645287342054 7.6045057504387135 0.6144517465657998 -0.22119354762732227 -0.8420036323109821
Ni 5.81220905757659 6.689639148944982 3.0081284575519542 -0.9467274922836342 -0.7873476355289989 0.35109879196160826
Ni 8.695294358008955 3.90084780629542 8.065901438206426 0.14071313358306736 0.38671088473826304 -0.6641601695345206
Ni 2.885218857765375 7.048828164125297 2.4348193389652693 2.0389107750416438 0.6795173687168814 0.6902555810699919
Ni 6.040063704405805 2.876165153604429 8.572086987829378 0.18716653994960022 1.204007244110552 1.0865769923148254
Ni 4.625849140724609 4.091615660875187 7.005372239420002 2.347867643527879 0.3904703517806952 2.299873117926471
Ni 2.5424953393941583 9.099547814596928 0.9400425780232462 1.3831280309375404 -1.8556024324958686 0.7525477542409943
Ni 7.836787992550736 3.4006120987306976 1.2995423504672812 -0.4689321927330247 0.13638699540388768 -0.5050227678079948
P 6.787652917556207 4.219990877968764 6.314758283397193 -0.6477655302265811 -0.7576629639803726 1.0682378276860054
P 8.400176997172549 7.479723258367201 5.871338279976898 0.0406833366519751 -0.730621129371232 0.2785435463017009
P 1.5312448215648988 4.07128193185798 7.192081696898936 -0.08284377207010894 0.19464973570052282 0.7088937649964694
P 2.269910199261581 0.2878280158264978 3.1272932004022893 -1.8302593257453899 0.005629944592267723 -1.9883047799593176
P 3.6084947936556953 8.097499422308303 8.796879516068913 -0.1446176108437961 0.09308833261625259 2.0330471171720146
P 6.961973827999337 9.089167594355024 11.248384201011941 -2.3045203868904958 0.07225982590667555 0.17187593233911688
P 3.2362725260715606 3.7589476909778075 13.343171086746455 0.41754226829682284 1.4937939674262404 2.3741605157861367
P 3.7395137665749574 6.765723658707358 4.622864943359264 0.19325928311089943 0.02783861947882302 -0.7059601362894422
Ni 2.9498378159468803 0.02878354368954822 7.036178024407795 0.07352660843424111 1.5172136319017613 0.7776013547755125
Ni 1.3597624700082942 7.441022383613649 13.060596260127276 1.9955288085115828 1.3810433804943698 0.967391705501205
Ni 6.420560463907526 1.492033748318671 2.2818080281107913 0.6891944867953292 0.09937339429401595 -0.1314345364946188
Ni 1.998716509563575 3.404517436283728 9.350788105063177 -1.4189085309712595 0.04555737691482477 0.2754919039595707
Ni 9.14171803910068 8.325548872198357 3.928097043972447 1.5628769382668308 0.08444325534674489 0.3493926079037789
Ni 3.4762977260351624 2.54058441413068 11.757435210896487 1.5389947323325948 0.9911718386399381 -1.9311208745491582
Ni 7.57821012012618 5.778248390636811 9.62179534040295 -0.6125324180559 -0.6781572551445612 -0.5195284176233376
Ni 0.15965316759549983 9.106811185865391 0.7436625400240403 -0.32362758312453294 0.782933051401071 0.048149306011717075
Ni 7.714859829137342 3.2565969787525364 3.8141326152129174 0.5232822282388149 0.3603449931502246 0.6179579599468453
Ni 5.061966812264272 6.294726962941101 9.875763801354582 0.40261804288682274 0.06231119933439591 0.992019274241898
Ni 2.191135551992367 2.741036763735065 3.255526489551539 0.04547998670967006 -2.1754504939733113 -0.2507164967871037
Ni 9.161467358935365 8.566993351605223 7.892524858791559 -0.07592570479403699 0.507342674190423 -3.312158341506257
Ni 7.7762506223106405 7.737067378073103 13.122682778517863 -0.18298361221650422 -1.7694529930912948 0.30842490724216565
Ni 8.727956337876467 0.23075071900037056 12.05520282099394 2.369873458375009 0.36483696748330713 0.581128964043954
Ni 0.9215233003727211 3.8837886239675723 1.499088402021949 -1.4531445693359941 -0.18967105153900882 1.741329752492517
Ni 8.156793763493514 5.802561667896894 3.301361794499951 0.5891325510747208 0.20983287119886443 -0.5999756644368118
Ni 5.412473176732859 7.653543246653887 12.325544943025989 0.04309760252042255 -0.6671894432791476 -0.2757150757139703
Ni 0.08973649379276889 1.930275700855113 10.764966491033073 0.8306954063870146 0.9884899209324007 -1.1282198646665924
Ni 4.4035417429612185 0.07293983178024353 2.6635487443010186 -0.30103298565346864 0.43870836085147674 1.2866916077846615
Ni 8.079994975841391 1.1467685138203034 4.7757538065755005 0.01680190204868719 -0.48617323920165945 0.2698352198944256
Ni 5.825121717609415 8.271300857922526 1.235646946511753 0.7953476230153398 -1.4476341810407263 -0.2770371369595035
Ni 5.508158584950233 2.7494504006961082 13.566021150179328 -0.7158776525134704 0.019467878916624538 0.5822314530795134
Ni 3.1434442294131735 1.0898674673825552 4.808746024012816 1.244387961920444 1.904451592788088 0.5938482113828354
Ni 7.606048405153842 0.9019557967281522 8.932959658035523 -1.4520621349050928 1.1345005554689815 0.19224318314155922
P 6.895981972055721 5.840845107520074 11.737992937791029 0.8439530427278692 0.7417570913833935 0.7789349859852714
P 0.7649582251083472 4.016403126718476 3.938238862373228 -1.319987907943946 2.7261905613127633 -0.9343082926836748
P 1.1058320420352068 6.039850348672505 9.608992141137644 0.5953199108323554 0.004852957216927126 -0.8803539499544063
P 0.4637620811401085 0.5424068597020956 6.1747134353256765 0.5020665133931483 0.4637092537711885 -0.42038256595909534
P 3.473199429734183 2.377673397251036 6.950318111525743 -2.2202432248079695 -2.6333899351402583 1.1769643810601471
P 8.018140365856569 7.9000247766339 2.0181995985484464 -0.34304532552951245 -0.9000084909605404 -1.3118619364027022
P 3.604209126317215 6.753423236865745 13.464059372868414 0.8858903063916033 1.5759767088735828 -0.8160727713778332
P 7.816547026895834 3.19661618868627 9.888567000619888 -0.5068832180555012 -0.3326264441890336 1.1024507261222887
Ni 0.33851391698982614 7.083336134902673 11.235024421572808 -1.2708914075276112 -0.14849869106575717 -0.5865519348317382
Ni 1.934589197202285 0.9002285429220372 12.475406010096597 -1.4887803162617328 -1.4996254865063527 -0.36276234434246557
Ni 9.210761809664122 6.266359926748301 7.717791151386172 -0.12210066068820262 -0.6115890803060242 -0.05489330960376998
Ni 7.379557379750507 2.216126001797273 6.712886575172183 1.3597921844250773 -0.09657423428232399 -0.3516425802802202
Ni 4.817553905263654 8.770247154751212 5.279536785114757 0.09571831403993193 -0.48178025234028643 -0.016296423167178387
Ni 2.1205426332784345 8.516335279450585 4.969454838671345 -1.215257877323707 -2.104382888602524 0.8136793314449923
Ni 2.1878981106479305 2.023233866220727 0.8726277321018749 0.7196224642678832 1.1893853804323193 0.8459731584816914
Ni 3.107990072340289 5.17171514620705 5.996055837694797 -2.253397600072751 1.2592435388760377 -0.9400724488609616
Ni 5.482305435875893 4.723380539851848 4.763915346278164 0.3012188764120296 1.0673662237143293 -2.040291457439254
Ni 5.964340971756418 1.8374474041967261 10.8795144013415 0.10436030598564609 0.08783608307837776 0.13424552358085268
Ni 2.5470685731557836 5.116186997531412 11.262137297107248 0.2856603598521402 -0.4527720380333944 0.05051060715504204
Ni 6.957382041565251 8.702900953717947 3.6168880226770312 -2.286805743219552 0.20184291101485238 0.6896117768384059
Ni 3.862415945292552 2.0164621407724783 9.120837006245875 0.595563137191413 -1.519446377887022 -0.10856971608130335
Ni 4.013239896063884 3.0481948089986317 5.122832564806926 0.6171868861087757 0.2179303034950182 -2.9418395249727722
Ni 2.2097531588069352 7.0515368543045955 7.513540142095406 -3.7093045626452312 0.6936599787658505 0.07470494501305844
Ni 6.9037369891444005 5.675568624901658 0.6065369549642547 0.3913257578024551 0.06868393562995913 0.15561884705030618
Ni 0.536079470759287 2.8559612932944494 5.662335931268882 -0.4116469858583104 -1.5033975519542753 0.7743267977892987
Ni 6.5886847817486975 0.556210048013046 13.30066134833667 0.4369157877274282 1.2498978359950799 -0.9856840760524895
Ni 4.102422592583693 0.29988168712438007 11.352111265107515 -0.14665315321658615 0.24777104100553454 0.23156589200058186
Ni 9.122961287242653 1.4764309507790079 2.6222477125020647 0.6348231111333003 0.24053955625410187 -0.5024899740838119
Ni 4.467205238510985 2.906433838724477 2.613707917368287 0.7911698374885665 6.247780681924724e-05 -0.28540890596296653
Ni 7.681223833965631 2.8862578074231884 12.217839258321163 0.36259188020287236 0.43244052556489393 0.8265201919634022
Ni 5.157216232678813 4.8021273581123705 12.4173519150654 -0.7408842018601369 0.21281432242469156 -0.7603397394815873
Ni 1.158827750919924 3.4251572843965405 12.650778857068262 -0.5254481255418821 -0.2854783257483212 -0.09105201891251415
P 6.422786784602841 4.4723536051189 2.6265510048793828 -1.4444275011779704 0.7690202979747207 -0.7045496290951607
P 4.640644897012221 0.8022054979745831 0.6051974520125738 -0.5320188367808645 0.4607100619335485 0.21683012845230398
P 5.793869740848936 1.0353318866835788 7.488423534117765 0.0130401210134098 -1.9713586390232822 0.49681066431084764
P 5.721430831225138 1.2332796255057354 4.378902866299448 -0.05214942831004567 0.8600332361191834 -0.5076800029251838
P 9.172951463188696 1.9971673614130854 0.32832107873977756 0.17203765472796176 -0.3458866516330495 -0.5044848930266538
P 4.295657952600767 4.031532831110385 9.87663299405938 0.6446002451247221 -0.31838998887467745 1.363376559342226
P 2.163751807439998 1.4399842257294626 10.429197441933848 -0.3629140394289814 -1.3120552833604306 -1.304662076220153
P 5.767589880307994 5.653769234760036 7.906400402525107 1.329726732498265 2.152006661128074 0.6349156708471065
