# total energy = -340858.86176501564 ev
CRYSTAL
PRIMVEC
9.38896474382932 0.00000000000000 0.00000000000000
0.00000000000000 9.38896474382932 0.00000000000000
0.00000000000000 0.00000000000000 13.74169895369685
PRIMCOORD
 96 1
Ni 3.5400528138770126 9.02635351352168 12.72011306882935 -0.5814544657041728 0.07637076275125557 -3.2656026052339047
Ni 0.9038887781422843 3.2205463444563756 2.682613121997373 0.5995876849697739 0.45348474782970294 1.0623479445641317
Ni 3.9033494147515984 6.726057157128612 2.5274003906256324 0.3716303362560568 1.5225134468481198 -0.22737473673736971
Ni 8.77745205879523 8.199486168563212 9.430542811337633 2.0168144573632363 -0.48989131148319504 2.0086625176800634
Ni 7.981418073977149 6.4506788218918425 7.739104855794704 0.19418693713149138 -1.4105912693548157 0.25412835068213013
Ni 8.198218658326017 0.09115651956973332 11.767442985587982 1.12955092477319 2.4299128309560927 -1.5562422065591326
Ni 0.6469635141661466 4.155875009859957 7.41393496285498 -0.15712757038534875 0.7463560236079856 0.6036019483354895
Ni 1.6279150369370148 1.0591221652364087 1.5669111775654705 1.077038713807087 -0.8161681593051169 0.19856655425642578
Ni 2.2780257320772956 1.683610375655887 4.320733963584996 0.3387621247731262 0.8051149868147489 -0.6547987829242787
Ni -0.015399779933697597 8.117896065146658 0.24052462040329123 2.669586439665473 -2.0984351556595215 -0.9513835029984067
Ni 2.9568197144370902 2.80099106697972 13.72531910416132 2.799914630469791 0.2140811049522571 -1.0800571889184367
Ni 8.763537613080233 8.943524066762091 5.696415402216443 2.1180562723245586 -0.10003365358583417 0.23175538230356862
Ni 4.966931338229993 5.900175653465741 8.279730833335394 0.44438947039665405 -1.0861046806640973 -0.493066366777067
Ni 8.952274581881104 4.823336511802745 5.434182556484105 -0.6930285158294387 -0.4286833725153069 0.45880693137356465
Ni 4.034071970547765 5.112234956236276 1.0097775222541252 0.7775522467051318 -0.9259342096873666 -0.49654686912649965
Ni 8.5027497290183 2.1934781047739507 9.40914723853376 -0.3480700324376134 0.8824296015365125 0.37065100306192295
Ni 3.269209348599989 3.014590014359076 2.2022445811329883 0.39981065534501464 -1.123328598012562 0.270301875118199
Ni 8.02072028029495 6.472921279313455 4.203104319090831 0.39798877164492746 1.2215611938339155 0.261780210800433
Ni 3.4621713515248476 0.6806267082731332 6.586382223471953 0.19344363120756364 -2.7914240765002765 0.20277236480765723
Ni 4.470433494873169 0.32240108724380456 0.7275048702234799 1.1593273847046743 0.772879523819811 1.3290016814067822
Ni 7.74546400159954 6.548446111520908 11.091584932496122 4.409829386851714 1.2478746349174636 -2.249859505012506
Ni 8.788624926811996 2.435328446995702 6.385218020967727 0.07852251898693574 -0.6721758407501456 -0.38698445011462385
Ni 0.845251876776645 5.952106017331905 10.92282298613699 0.015306291339767188 -0.8608570175720593 0.2711531673749008
Ni 2.827017277183481 4.768664570238351 3.5425277449771975 0.47493006218767236 0.8889056961791595 -0.9776288098481809
P 9.107145554937038 4.837363625094383 9.434363181082189 -1.7413482644352785 -0.5809800971709156 0.010545122505697967
P 7.93507414411937 4.557281418532908 3.293665723902571 0.20208202360885197 -0.2647120397352473 1.4687753338947156
P 5.199533550202572 7.741492469522993 5.805290776005707 0.6379032927205207 2.383753044570579 2.557640865133402
P 8.939721536050502 6.08291307381055 12.754825010295558 1.9282543516346402 0.6634366611049348 2.0061634054072934
P 5.443590299133517 7.4138739345843 0.6697693094709578 -0.14871157840751165 0.01096781186541337 0.7341494542394646
P 6.317778026280643 4.532654164072422 1.6994767871361671 -0.1639674761253176 1.4156242037930329 -0.28857213418229655
P 5.321740314997724 1.819337249647798 6.149877047986333 0.07363485187733126 0.36472692426800407 -0.9272313312322354
P 0.19512522039634003 6.927525562089765 6.467956394769534 0.5457950646293502 -0.01711789062720923 -0.7836519318449664
Ni 7.153893501488284 2.4847707352110726 2.742238681348025 1.4879547350366438 1.5584165885026322 -0.8894831659491841
Ni 8.802398538056195 4.395040108171797 1.2721418134925429 -0.7482231587237114 0.7344885827464382 -1.001900537911352
Ni 0.8650710424040333 2.8697934004476724 13.489950903182239 -1.5994161708434453 0.9990777237505762 1.637626620474896
Ni 4.283292650074694 4.26451472063475 5.434182556484105 -0.024605200143189884 -0.3109204199705097 0.5483980494698363
Ni 6.474029177150412 1.9779262527328398 11.006207320711532 0.024241646156184057 0.19573191302110807 0.25042596212987844
Ni 6.60744636582121 7.4772682243735495 9.19764860256226 -2.466961656179274 0.44351426688055234 0.7385943773846957
Ni 3.014402235064677 2.7469857419104424 6.733129864252167 -1.086569793225974 1.1573404361816326 0.3497055111585074
Ni 6.835851710563961 3.62721057337251 5.310932677708565 -0.6846986558075047 1.1296162307934867 0.35395065958810656
Ni 1.6870842926022762 7.33424612479422 12.510937262729573 0.9023551368158459 0.8398081673215602 0.5329583178759982
Ni 5.224686586687377 3.9771748443447357 12.728344374199349 -0.8009328304126013 0.6347164103521069 -2.0521126184438976
Ni 9.032287339224704 1.239512344401225 3.436620222935917 0.9397749722252009 -1.0184337596796846 1.0598082088614136
Ni 0.9141462220988534 6.445636947837218 8.63918640874304 0.22122208687241254 0.7222832989294979 0.1588700069977522
Ni 6.890993100364356 5.554577251088302 13.359597333699568 0.5586804052324507 -0.19443684835876837 1.6041667981545533
Ni 5.135791868718685 2.3075352481921665 8.273890897279571 0.34905245095554077 1.448063555268661 -0.20452919959776392
Ni 7.001050544811864 4.252647069228705 10.058484282981114 -0.3183408808042969 0.505011197843769 -0.7726887479652433
Ni 4.049197592711638 3.28876656211169 10.07320148517967 0.8446922348867388 -0.3474491110241629 2.1220980464941
Ni 2.2239546842549784 6.209711042353768 6.797372916452101 1.3797678562160558 -0.2570897473032992 -0.9384904490858225
Ni 7.841053051413573 9.234854253058092 1.0389480967426055 -0.15484057412338492 2.5237089882726473 0.8532995169397756
Ni 1.5666895979980793 8.81776827330279 7.736988583146823 -0.6995976844065243 0.17930667758554927 -0.42415617406891465
Ni 1.0859933822649677 6.503782806348003 4.377088407627211 0.010590116811020471 -1.9988912972259119 0.9374967177139854
Ni 4.022598655659959 7.868515773219491 10.599851988734684 -1.9563516240914889 -0.01026410093016942 -1.412805246286999
Ni 1.0954105138790993 0.553532048444764 12.700476988014001 0.513782773388812 -0.3434029659792473 -0.3331836022440842
Ni 3.2341603433003345 0.8064322632454499 9.220130478584235 -1.007403727117768 -0.2251345345529413 -1.6875080786863712
Ni 1.6741650771475953 3.87288222423529 9.5350626443933 -0.31953541533303037 -0.7152173932216521 0.5375500510117387
P 2.205909094063193 8.563665332121476 0.5567177241742505 -0.9007762223645004 -0.5101449195259086 0.47046199911398984
P 6.045498049401463 5.874262110838619 11.418691768857576 -5.762980926031823 -1.8810237007824508 -0.27508232722597786
P 7.810285414026225 8.869783137851433 3.8592053193277076 -0.22259171352642956 -0.10788246020629164 -1.7533221489677029
P 6.981033272028884 0.21858354874918934 9.743482638833122 1.015281330093632 0.4111659324568338 -0.9926095995277292
P 1.5250401505002846 8.16368604608596 10.500540214409185 0.3242356490221771 -0.19381644116595007 -0.6772923360411046
P 9.112647488262942 1.903593819044824 1.415380798156903 -1.9023049787587305 0.48670340067351664 -0.8944883324732594
P 3.6159625936379842 0.8057562577856121 2.6513779141669707 0.8957448305881798 0.4913437276590054 1.2696747615116908
P 3.4183812200708994 4.118704098533589 8.246874151297854 0.5738473427808762 1.5423518217302854 -0.46934485479041105
Ni 1.7304143647849457 4.14154744969728 5.346647360606865 0.49373099694425937 -0.3356770580898993 -0.07041043140276261
Ni 3.2898462930544867 5.692895479342925 9.86333840686239 -0.9308193056938098 0.23250151644097378 0.7642300756749291
Ni 6.33193658507836 5.979033568148783 6.093948862942406 0.34269102751388725 0.5375965879789579 -0.3011947080423136
Ni 2.30645551724937 2.2775375059118574 11.308882193078675 -0.3282288293419702 -0.15269061765991768 0.8567321967704085
Ni 5.435140230885542 2.8590242579138647 0.9055215191070874 -0.7553569415550152 -1.9304030225465267 0.7572351324143346
Ni 2.1799579955771913 8.25689968782584 3.7165662895089526 2.1415769811543184 2.665471646166151 0.31270553689539055
Ni 5.611098818702533 0.13255809839892058 7.789605280334016 -0.8228350298023313 -1.000305168399774 -0.2493728382750157
Ni 1.809676004950947 5.320416470972209 13.880490524088295 -0.36322899956623894 -0.49389117667120747 -0.7266238352863809
Ni 7.327617515701919 7.945599173570457 12.940805379054646 -1.2959329238772714 -2.3169768674862934 2.3951481737813975
Ni 7.807440557716075 9.074180899805217 7.713971536135812 0.14103863524328614 1.04568513919647 -1.096597609775621
Ni 6.0988461469403425 7.686435580405079 3.778499656387774 -1.6153390127212892 0.8826309189140411 -0.46693881645207974
Ni 4.724123321606805 0.1546118376296621 4.5637278817096405 -0.3886921768343499 -0.2047549424553248 -0.19761781718991128
Ni 6.206715962608097 0.38751449647328035 2.333724826382056 -1.641046444789722 0.1310226457681808 1.7769428737104367
Ni 5.1348154163878075 2.3845810926842548 3.70231571885698 -1.3941557495066117 0.28429356141160067 1.0028209928430925
Ni 5.623210583191296 5.5078577626417236 3.9717771285272243 0.5193168158331637 -2.24632475238637 -2.6087790785701137
Ni 7.1738919963418235 1.4315542287835263 5.0286506367131985 -0.8149394291043384 -2.048327440369853 -0.33348647819648375
Ni 3.836650209380919 7.883369115406485 8.057142891133138 -0.3565924680863278 0.3741834416952136 -0.281594931533515
Ni 0.16595558480433192 7.925722735258278 2.7447943575448015 -1.1048904459120328 0.3118542446386887 -0.6849148855833689
Ni 5.859850049993463 8.78472850645321 11.417854273204556 0.31304852205710604 0.547532101925115 0.5818046499547399
Ni 7.44035081509462 6.841813703161144 1.8952273125828571 -0.7503345486397593 -0.13472914808549052 -1.0824110338625939
Ni 3.8523579473574316 6.649264814683964 4.873782480346682 -2.7263638536658337 -0.6202418708850157 -0.34695674476877664
Ni 4.286719622197483 6.6476311348226895 12.664569831338941 0.48638278410930436 -0.8462333541216136 -0.0891925971062722
Ni 0.8158606616172457 0.7570857424702228 9.8924845700426 0.9179007978599288 -0.10446623543589105 0.30054396183219206
Ni 7.513584739910399 2.945599901596724 13.19416095864425 0.41298010284743714 1.0011379487137146 0.24998090417265983
P 6.3294860652864475 4.4177426248646885 7.445994521787795 0.5454446232684671 -1.380111869819036 1.0689474521585203
P 3.1605133040368765 4.5348981266404955 11.994400551970914 -0.48457195615281057 -0.457176080638361 0.0715550865301671
P 6.4709871525811415 1.1635931756755338 13.583765438664196 -0.7153366924083359 -1.6605202372436176 0.1178395714190035
P 4.55306577337364 0.9741520345206646 10.699684850602143 -0.5777993854500888 0.75707803801118 1.5751804382245325
P 9.145245973770683 2.339927176476069 11.923617146947047 -0.4858541652993439 -1.90669488029631 -3.5089135535855567
P 1.1546830481562806 5.456274790470199 2.2468093021763336 0.4538696419729474 0.48125240486127446 0.27812857025146936
P 0.9238985397534881 2.0298002828106836 7.816209850764528 0.3869325138307659 -0.7726108435394565 1.3817987706031556
P 1.5586432552330634 0.17785421979395208 5.567284275940313 -0.20787806146533874 -0.9622014195495171 -0.05448039043606747
