# total energy = -340861.00406842295 ev
CRYSTAL
PRIMVEC
9.38829966872067 0.00000000000000 0.00000000000000
0.00000000000000 9.38829966872067 0.00000000000000
0.00000000000000 0.00000000000000 13.74072554904688
PRIMCOORD
 96 1
Ni 5.174680495981803 2.1371806731450578 13.421954278496646 -1.9504087762444924 -0.4138799889538872 0.23457588247149921
Ni 4.78095398969627 8.411043279764232 3.758527799642584 -0.5103881458849662 -1.6986242432041907 -1.3076399279015545
Ni 3.8988950826180924 4.479505079630884 13.140694906601107 0.34550869946834045 -0.5196081218213374 0.006847361939136595
Ni 4.865073153612489 6.127189202839813 8.415960871065495 -0.5816359855873595 -1.8689557138743231 0.4532538627658193
Ni 2.1627262362048825 6.542518186376598 2.095295713558471 1.894488568038105 0.2026371247813736 1.7385118234277481
Ni 0.6112984705629406 4.7928301886197096 3.1166159619258478 -0.2966654527133923 0.08260620213800612 -2.612756318050307
Ni 7.097056875555088 1.0557800018444394 1.9327016314120196 0.39848576588600404 -0.3116161604859536 1.9941244719648883
Ni 6.142689285387322 1.5887819318684875 8.248515854544545 -1.3103128467480272 -0.5260088831413586 0.5400687036685343
Ni 6.661139351117828 7.555712861488451 2.1642743667997246 1.1469048426706054 0.1921475381039594 0.9310267937189257
Ni 8.487783240238693 6.43615814084012 5.778085284287962 -0.6891908872509034 -0.7002006080978457 1.9125438828779189
Ni 2.3835108765863233 8.235726174075452 4.636532838977566 1.9735247934366658 -0.5959202634205156 -1.0266564046997932
Ni 4.5551935505563925 4.7316278638909335 6.641497150811409 -1.1058546095975148 -1.8526816593046482 0.32399576509722916
Ni 3.412384011937026 7.6074142270784755 9.357241171668617 -1.4106468051830996 -0.519325300473596 2.11597547853613
Ni 2.5115954472681277 3.2484173603972093 3.2946275095838184 1.2530968025483513 0.21849337508733985 -0.6691604509625895
Ni 8.30028951004106 4.551701103125942 7.562345695116443 -0.4957133174816108 0.17678622515654072 -0.10354218095972491
Ni 5.975699601394266 1.5924715335893662 11.296140019609776 -0.7701394991808285 1.0353505900396816 -0.05222090497792942
Ni 6.591496945098797 3.9983922811877446 11.583884828830465 -0.1889002348112553 0.09763070057129637 -0.37630537313422285
Ni 6.706494226215958 7.1481855548729145 9.186169455033735 0.990147768250798 -0.21567698868446727 -1.5998499159467545
Ni 4.812723995353913 9.044180812726939 12.395013255192143 -0.5598661980104357 1.4618492961988436 -2.370983403609736
Ni 0.4813024420939328 6.458511682054909 11.964420774256366 0.42192034275986046 -0.03153972247949407 -0.8511369620708181
Ni 5.297348017826591 3.315844127723803 2.204424368630539 0.27932901831747375 -0.22868188558456748 1.1292177098034877
Ni 1.157727546595133 8.360721994207209 9.738079420339844 0.6446007593453543 -0.24271470952854973 0.10299427887605488
Ni 0.21209858564312767 2.4253826925535478 2.0490583383031833 0.0786202209070646 -1.7897796204637886 1.5103780970371665
Ni 4.911864438540885 8.495190608579083 8.103840280908194 1.1390814899714448 1.7671788523451373 -0.06831009723030816
P 8.742985386749247 7.3610464704390335 10.199548140816656 -0.46225400938190064 -0.8149900798366158 -0.9022535782409751
P 0.24265937831947523 4.09133644667553 11.744308336122293 -0.558073110665755 0.48674556676536174 0.6526927923248694
P 7.784374285187494 0.38287550967232187 3.9003183488289963 -1.5434576531999546 0.7254079606014088 0.05618965981769032
P 0.7679798016564418 8.157221213286677 1.9510867384094672 -0.060130903853625475 0.27335685989443886 0.30710258888631625
P 3.66927605236554 2.3487460033740737 1.310024541801483 -2.0942779389580384 0.23747351573426842 -0.4239165472542828
P 2.8606054828245364 4.785929788454707 8.825159294999903 0.707889234991355 -0.08319909852699865 -0.018730743640283872
P 1.023869171693633 2.2826429862832147 4.397142466559389 -0.804097344183512 -0.42699055819391624 0.2428790030205559
P 8.457693740199465 2.084296381812462 8.258162332326233 -1.2186882431614947 0.35405221816297733 1.042259915565005
Ni 0.4115426823306001 7.207416336697404 4.065166561696015 -0.43908425613365676 -0.9362494755704457 -1.0835469472392498
Ni 3.7080685060822605 5.522986409072394 3.970630140605529 -0.8808486302026378 -0.13814203042178144 -0.5653624452383167
Ni 0.9863347501158382 8.67717340694426 13.607948697257068 -0.20012052900710695 -0.6574809577421322 -0.11029235519936488
Ni 8.128314638990023 1.9806777197428966 11.613180078728252 2.5523284517815528 0.4502659837820891 -0.8629542664207203
Ni 7.782703167868622 5.243393460345954 3.8369736141442297 -1.4840134910007088 0.3396159881329893 -0.052929243898863686
Ni 1.4497506039181216 2.7882029167395053 10.358816887264542 0.265111332056195 1.3739594770643953 1.0380913860096124
Ni 2.3768545722094707 0.702679484176614 2.4249902616326 0.12634838022096304 0.11989928216150965 -0.3024905440356016
Ni 4.7168694570074186 6.765818891035889 5.652384402860435 1.298185981577506 0.5630425388558884 0.1751108943366468
Ni 7.6630117369793505 0.3491461658997998 9.57372690968876 0.7642997525705998 -0.5185943358448424 0.4250951409434163
Ni 0.7740202335831934 5.947600420858413 8.85226988759375 0.07549350235262482 -0.41094198937148585 4.0610541008169605
Ni 7.9190025006516205 0.4387715674987037 6.721371864503685 -0.9130655812548146 -1.2411316597666753 -0.12769229584336717
Ni 3.0515447189548994 1.2511974568573956 4.717836451860474 -0.7614332296560822 0.33060658554552735 0.034263034947928095
Ni 1.1627878400494684 3.5851568884493217 8.0088776310184 -1.0208264282815775 0.560316655284293 1.078602201639465
Ni 0.8766089991927575 5.817600637069588 0.547279655970899 -2.1257338434744746 0.8482318726088811 -1.2743027472020054
Ni 3.8769170733850715 5.593746022737187 10.848645783004539 -0.07472062874234228 -0.030605126480366642 -0.23366056974608143
Ni 8.942270821174422 7.644760882665385 7.87174555606583 -0.9493515601700425 0.7208447667107585 -0.16653343708028093
Ni 3.353725916384734 7.282691722442966 13.177328051422657 -0.42652904517646545 -2.528825483563606 -0.5046533002837179
Ni 8.961094361760585 8.973336704366249 11.610637727211676 0.4385816054656253 0.9490034328020044 0.2675289403587522
Ni 4.877062012130459 6.0111873736714205 1.4449888583892927 -1.1476427492778947 -1.4497491705012 0.4556642719795249
Ni 4.263536636915629 9.005266311116143 5.903826535403529 1.3236010792165012 0.6542765918722215 0.1698445037313849
Ni 1.8416276151934423 0.9016260009882426 12.025910380951196 -0.36190590987944127 -0.16629406737596522 -0.7058130691886166
Ni 6.251950315482963 4.154031511031837 0.3160242451077887 0.5197618737903823 1.396469485241453 -0.19511124871797364
Ni 9.393181459983804 4.132231879490156 5.258932973751549 -0.15913405929241625 -0.6151829683048695 1.6624544781518533
Ni 0.2327293738915529 1.9407868349795023 6.554669462476682 2.039774151483203 0.1600516860106792 -1.676310667308655
P 6.545456724133938 0.062206872780007076 -0.012277079313977552 0.840747648416694 2.244168368165 0.048360650691574775
P 3.769026735022886 7.944200696628307 1.503290198558904 0.6237524551414355 -0.002985050770252924 1.4221818024058925
P 4.515274500894366 1.8519078031943639 6.268738472727939 1.7614236950289148 -0.22668002466319026 -0.805647205169135
P 5.737246181270602 6.033484585088945 3.453195888885708 -0.23973582940588387 0.3492753655996243 0.5362164198019796
P 1.6611469447553415 5.450696502581894 4.7882167782236795 1.0942859309233088 1.347221032628286 -0.6054294884625315
P 2.6461110031377233 8.139167513263143 11.369763064635558 -0.4745143148064924 0.495250004691947 0.21170643407249345
P 6.4225357182014555 4.740800232545638 9.477156982916997 0.48218931485324695 0.43600561720833303 -0.2548788556949094
P 2.3890499733174133 7.6526282776834424 7.50914126276939 -1.3092766921740289 0.22424750396229767 -0.7968000391911503
Ni 7.168116914805295 7.90706058363137 4.617145061588796 -0.7063781976634673 -0.07457510430341349 -0.1444810852659318
Ni 7.421582225900169 2.1279989161908097 0.03020215963375834 -0.35365241162139743 0.9100003120659296 -0.4558740739974858
Ni 1.050362953007424 1.114766687880779 9.01480857877289 -1.8850549334290307 -0.05336787409817905 -2.148768613806751
Ni 4.67781413090346 3.426053376073411 4.5490179271162035 0.5384995594092016 -0.39530145462075145 0.9309779427588613
Ni 4.826515407384373 0.5996335083792463 1.972357808686808 -0.47135674301411723 -0.7006518367026514 -1.3022969184220863
Ni 2.4129431956574554 3.6468192398557635 5.968283783584286 -0.9802893873994795 0.692755207563394 -3.097951509609413
Ni 3.0465970850950947 0.03445036517751826 0.23058602510560727 1.0911975218059724 2.6518460849629166 -0.004701776351043515
Ni 4.739833237692583 3.185140221469161 9.728570950561457 -0.23767817554590676 0.5529856688405186 0.1973519651230343
Ni 1.1835735352403731 5.7531217957998795 6.822476339955307 0.6804136552789055 0.6529200778443272 -1.93686343345989
Ni 2.6513872274815755 0.4001227547650099 7.272347694005144 -0.44100949818082763 0.7260839036225107 0.9545287334956077
Ni 5.493892068784853 1.2068189649118637 4.045407007645293 1.3306181339642826 0.7001013635158201 1.2733774071742585
Ni 3.1987344792091927 0.8383920482380979 9.863257373482757 1.4167871137528825 -0.14025059212435198 0.30934639061517044
Ni 3.279408137192682 2.731206550206541 7.637754394715533 1.3344488205642824 -0.9474247754609747 3.9146732274251548
Ni 0.8393458994717906 8.890250253399895 6.074088041787745 -1.2159718726715962 -0.2827822669733968 0.8242365381355482
Ni 9.267819496169823 3.6751343512811334 0.23143472738440485 -1.6031699814589229 0.3553639949958654 -2.3218329100270143
Ni 8.208087020217267 7.919819282711967 13.656645806992941 -0.7322054431392164 -0.1236302099588516 0.9639227731159978
Ni 6.88931258324057 7.635954657692906 11.308080997800072 -0.8021972989473217 0.6247958088042852 2.3870080611727666
Ni 1.8779884993282094 3.87380015793639 1.0776782105313345 3.114254360534495 -0.36370979585739943 0.2961987974896189
Ni 8.613417464739456 3.7276524989315045 9.83463526466229 -0.7990523255604368 0.2424038631563503 -0.12101179849939804
Ni 0.4670857400941193 0.1489012472612053 3.6533290867597263 0.2745470235477982 1.11605854671371 0.404644072177916
Ni 5.716620087171949 7.639146679537941 0.12728750405050016 -0.28381456489265317 -2.5555837254940568 -0.9618900589566853
Ni 7.80236226711422 2.7254984640836546 4.24521067620531 -0.31339330699103446 -1.5542058928553943 -0.18018188110165098
Ni 7.822819371821077 5.611255201387158 13.067979710141255 0.04859384974830341 0.1576767580205994 -0.31291739579588046
Ni 6.924950568310432 2.831041727559785 6.503086389460916 -0.29724703624847515 0.45934866280964765 -1.0183013478668785
P 5.575213519436895 6.032545755134523 12.211809039056266 -0.11571378332525233 -0.7517044324040925 0.606611938806407
P 9.23726996945293 1.165285127728231 13.678836930625616 1.9060937563772011 -0.15142074980855857 -0.9319649892624788
P 3.307197503843576 2.493344592954162 11.381072210266526 1.3228148358697798 0.559678507479662 1.2157080774872484
P 6.478987563360855 4.938076570868349 5.88427352394278 2.082389929271201 0.24852771666590104 -0.24752524354331568
P 7.6807556231179275 3.478083332147483 2.2502364539164734 -0.921102078406046 0.3772435686777761 -1.4183886539120476
P 6.410424811789411 8.203054891661564 6.639051498780139 0.46736124870147894 -0.46727588807652426 0.30739723730859964
P 8.142603630896327 5.79551935654158 1.5576484529199424 0.5032613050321978 0.32284185399844395 -0.6921761951314724
P 5.435647058412508 9.405480132386733 10.151358938086124 0.14716146031157237 -1.899958590013741 -1.4617976170253015
