# total energy = -381176.18211642944 ev
CRYSTAL
PRIMVEC
9.19853481637374 0.00000000000000 0.00000000000000
0.00000000000000 9.19853481637374 0.00000000000000
0.00000000000000 0.00000000000000 13.46298550591576
PRIMCOORD
 96 1
Ni 5.916847262616753 8.223048769057133 7.529645722803879 0.07488903599940652 -0.411496319213059 -0.974049834247671
Ni 2.050031504953194 7.709034632710984 7.198537096299071 -1.0756379768048185 -0.3977172631510957 0.6789432413809662
Ni 5.544573352236206 5.060969572632369 8.325092717188056 2.2776233053893358 -0.4267643011157231 -0.2592245342581148
Ni 5.107909696787243 6.178389208549646 11.86000233536146 -0.028179290647693405 1.1698169713820885 0.4492573400119166
Ni 0.4389448921313866 7.178628706977419 5.447675984443251 1.136644341284862 -0.3992748374462026 0.18754912009999958
Ni 0.829020727316349 2.325831180151236 11.029281718775305 -0.14740083001588808 0.724032934630753 -0.9378165629472495
Ni 4.114053981656254 7.274440647639221 0.20883250061988817 0.08189709188612347 0.6695463735470985 0.33664276443727825
Ni 2.3335211554194073 3.8905295809187557 3.9414913045799036 0.47559906323023904 -0.3881342474483509 1.4692250198376244
Ni 2.7474000396491602 5.752432647852061 5.57683997334349 -1.188832593252643 -0.8176779110814242 0.7185608557725883
Ni 1.7637822939840495 8.265720772967473 13.312577033334344 0.020868358808576966 -1.4454348593965622 -0.41354728820481684
Ni 1.6574748248760958 2.18348385087499 2.2948330370218 -0.5131240567588904 -0.5959184636483027 0.36278162761617516
Ni 3.304536908121128 1.2148137246007606 9.95245797741666 0.5367355255302433 1.3989732254999132 0.14881005165858888
Ni 8.949079938843553 4.808322610053927 9.20534376538784 -0.01434521297807852 0.1037625245006471 0.4126180915223281
Ni 8.286261101644296 8.501396438452883 6.995502432295844 1.389670974262381 1.8289827730258115 -1.235770395454762
Ni 1.3783084858644767 0.5392714737759853 6.481579361446291 -1.2433152976815556 0.663740822608915 0.31896231643837974
Ni 2.838916264461398 1.7326268559059463 4.899220693313508 1.7092464988047271 1.3523239010724903 -0.015185706601502879
Ni 1.1958095512705686 1.0966953365402579 8.930038971373323 -0.9246350312599689 0.8438656252203854 -1.2865247431894942
Ni 1.6143980854253261 9.083838476736737 4.195443539276232 0.4577175549641278 -1.0555535473501176 -1.337788940681109
Ni 1.7582631729781855 3.6401638550227378 6.3484848385363755 0.6481357690818064 -1.2583076573253296 -0.6283835261555436
Ni 1.2204248309567225 4.788508965642873 11.276798658378794 -0.2649375254824921 0.37002751054531113 -0.45180016103842835
Ni 6.427513132219345 6.495002783586054 3.462073778259014 -0.07936326972067623 -0.9782119360451604 -0.05908729308045952
Ni 2.6800483663075982 6.831025267493083 11.597649078640703 -0.03462710315556617 -0.9503787158829761 0.01052275390819478
Ni 7.928208126388859 1.1181647172530695 0.7584504865748668 -0.18136433144552636 -0.13790188938651735 -0.5651945522018846
Ni 5.478813025451334 1.3700849955657393 5.945254178433935 -0.36711239378104515 0.8044956080631952 0.9387213341497058
P 8.55108692457568 5.8377030673926615 3.8342584628499665 -0.11881916172345343 -0.06697183803485886 0.21785856971681833
Ni 7.1708927390341985 8.822360920548912 2.283591507386356 0.20104124104916343 -0.8670783158914228 0.6258628166162189
P 4.909929627771886 0.8348608771940542 8.01719475407341 -0.4821384070106535 1.386292287598135 0.6398470467104529
Ni 3.45438104343034 5.529616534310314 2.60724196170524 3.086781351925206 1.5500877569219627 -0.09199689932428672
P 6.204080716831943 7.075264769072592 1.3503780541608004 2.8342229168333577 -2.729551764475512 -2.5500725658678403
P 6.575388781036465 8.008833285749525 11.417096554054863 1.0184939234936587 -1.351521202665537 0.9460281522237642
P 8.371485528509849 4.053509224221924 11.239209764914856 0.02084187644601572 -0.41696145609268837 0.5061602238465476
Ni 7.308236065265128 2.789023410568386 9.77124683772412 0.10834063078963277 0.6395775950991501 0.2545428125117294
Ni 4.851776489440097 8.184479311761152 2.1978731191907785 -2.3966455842625303 2.371309419490587 2.5269190105695127
Ni 5.8962793383348995 3.9883376036776785 11.595050492500443 0.5140846208999469 -0.7859214446054337 0.9235567105941255
Ni 7.201477867941696 1.107209262056429 8.180473349764396 -0.7066558768048862 -0.17341293780893363 -0.6655472796900344
Ni 8.03711878090458 5.400036771627633 1.5509631482909254 -0.7265994098063486 0.24414321444496018 0.9376314435196367
Ni 8.488647268929336 8.745332388377069 4.2875300732590755 -0.8475610717941016 0.9876651110382604 0.007962449380186287
Ni 5.181783131450735 1.762209344497378 11.409719328977026 -0.2505743147822846 -0.11958663601709728 2.042933265937475
Ni 3.7297851816229617 9.012779793786235 5.875341632945653 0.07132163036312233 -0.4103850884267513 1.72607128367155
Ni 2.3976257459025194 6.0023108513925605 9.18380263610195 -0.48627659754874314 0.2862049195017006 1.4128440699447347
Ni 3.6567856077853986 7.316284783398681 4.397441528383858 0.32662394674869555 1.294470223288816 -2.602953730137588
Ni 6.1055368112722395 1.3220502457447014 3.772920791697794 0.3653869264495062 -0.3272224995646429 -0.32633444053273475
Ni 8.888829534529537 2.820850341702203 7.826666418269469 0.4531898422971034 0.21011389277439296 -0.8628064279889462
Ni 5.109547036018983 6.062156520166147 5.706838269369115 0.7835400888574505 -0.4716827588949683 0.46545040483201133
Ni 4.263456587284997 8.659933189346331 11.722342579526192 0.1270739455330779 -0.7843381592787138 0.12548808910319678
Ni 3.2934710705043706 8.198921011726497 9.45080023314914 -0.24088614096024322 -0.4705774416459315 -1.1926704789414944
Ni 8.517273109879751 8.475649738960525 12.685027219069562 -0.8677689142005441 0.24453762166990142 -0.7698093695349194
Ni 5.652766521021163 4.911925709869006 0.679743221763739 0.5323348253593864 0.8208761063037475 -0.2517752770689212
Ni 1.948102538509893 3.6174158779435674 8.847161090788763 -0.37966400519381066 -0.6401599499651813 0.8173313263752826
Ni 7.85301010268396 1.4815160486741368 5.755951087493298 -0.1759634721449292 -0.14243294448765148 0.06281976353969826
Ni 4.890824270556585 2.96884557147445 9.493195361155685 -0.014112271031666018 0.42033191522681806 -1.9377345232109338
Ni 0.7594972798589791 1.1639182303916835 12.981778397459367 0.663193177635561 0.4676980632156075 0.3346337044270495
Ni 8.76067554477337 4.180283433726624 5.512796093191442 0.7072004364544466 0.7782906675330532 0.027520574017771957
Ni 8.158364670868405 9.040835325566045 10.105707410386492 0.8273583715939815 0.19672924393737087 -0.12375310868996106
Ni 8.675533904722906 3.395400036947672 0.3694067270180011 -0.46500740375732175 0.34750438974213055 -0.5194366292404796
Ni 5.747051504871342 9.278010352258047 10.010093238227398 0.04639144278034591 0.8969316518074295 -2.1136771694202565
P 5.101065986739972 4.454638938928132 3.621879926983811 0.5729281734007164 -0.020833906026215734 0.676683241702196
Ni 3.5152753451950414 4.825487076382164 7.564151267332543 -0.5635377333247521 -0.3987783574257584 -0.3895072165364776
P 3.1003662250441932 1.1247968609951162 12.312210595123439 -0.48864921154597785 1.705091596096089 -0.774643300588453
Ni 4.2913373468996205 3.0143507241678003 13.424293241028046 0.1279668896609925 -1.4535590311655933 -0.9944258268008614
P 4.11382401828101 0.505560682672167 3.737822861514502 0.1056725970391664 -0.8843113919402577 -0.23613705631103202
P 6.52439210294228 2.590748988432716 -0.025399914722487853 -0.5842587679221873 0.5068899029237206 -0.782477194810575
P 0.6553579054528292 0.3140977757112344 1.6195437459097937 0.16757730496376302 -0.4034731917982664 0.39255551644449815
Ni 1.6385626368960016 9.01060893952393 10.933734695921784 -0.8023227687815925 0.26677252180870187 2.0549876259988484
Ni 4.006504710321981 3.1453654583120056 2.223170010321157 -0.3454588200670115 -0.6179229929438519 0.8295353246406423
Ni 2.5846043670461873 7.609432895625155 2.0362898135020933 -1.1307120349608268 1.0883664801150805 -0.02653789838952849
Ni 7.464905513551592 6.6310951090556545 5.910156248250645 -0.22843557390171626 -0.46539178367993395 -1.029303355404337
Ni 5.277291520457215 6.96359455405394 9.451998802260915 0.15740550663708375 0.8936920618242092 0.8228211458452603
Ni 2.9500989571245317 0.7581423356520395 0.9060391410996823 1.3429272903489389 0.035197116726423255 0.9555756867028833
Ni 6.457472760746178 3.330633151943856 6.970406989082179 0.7825787533854458 -0.04381622585400196 0.4517525956299446
Ni 6.464252081048381 3.1934370022730825 2.1806939352065253 0.8475392174172306 1.4239216679151347 -0.07561717241468267
Ni 8.27313479218535 1.880290938417842 2.9689384766780487 1.0494826585656893 -0.9416194816331073 0.7112509523747363
Ni 1.8162783332848274 3.397837648725262 13.167150034536826 -0.002312964403892791 -0.832647902127695 0.6194332589407913
Ni 5.529193401699865 1.2851733188905192 1.455497072545491 -1.0864371243028514 -1.0928970209955822 -0.8618165532718512
Ni 7.417900999651649 6.248693611629346 12.79445391139933 0.15420551164254734 0.3433497441438087 1.048440076233788
Ni 3.2126527419084994 3.5667043544346857 11.1374169367897 -0.08816595561397074 -0.7038724005224781 0.48517513695444836
Ni 6.896242880712379 3.482289398649993 4.533444628063864 -1.1521933447630546 -0.29796128870668037 -0.3838872992465389
Ni 0.9330074060413367 5.723411269896224 0.024265735355782768 0.1798576649930128 -0.1982222835431296 0.10804881058082683
Ni 3.4010479374436726 5.158878779276399 0.01801993008414649 -0.9516730092143676 -0.0364538719516598 -0.2987791566222854
Ni 0.21259286173188363 3.9386287204848616 2.9413934635912815 -1.1650920551025934 0.9280743959588209 0.08789084757571315
Ni 7.6099940062607505 1.3824754222239044 11.70062667807512 0.10431145502558165 0.9694925538942917 1.0846700051000997
Ni 6.1650421342504655 8.292681679081118 4.939811988604636 -0.9077883920162754 1.2915286241619885 -0.019868971009785137
Ni 7.981633217725625 7.155365611937701 8.690303072534599 -0.06322214118443951 -1.706222881487055 0.6579347574500991
Ni 0.6803834398004193 2.0686769354180052 4.856179828149275 -1.1811565647646238 0.8226751071856994 -0.9573096386748546
Ni 0.9712273190069459 5.491313834529617 7.306954709338267 -0.7680332514711031 0.5557028106613656 -0.07955327424429526
Ni 0.11312358355019578 6.983868125215482 11.076981641921986 0.4943267215467293 -0.5225137255039066 -0.7151461736640845
Ni 3.084517149222353 1.9603089944678624 7.4061369932276495 1.1147814797734994 -0.14008629863234584 0.4787561208019819
Ni 9.100055493958967 7.46135487903782 1.2051488238659918 -0.03212310578678984 0.7280747088002945 1.2303404826884423
P 7.8806241047833 5.140674878492057 7.260184758081072 -0.3861452420427801 -1.4424022432178254 1.8864091334640802
Ni 1.5323839472781846 6.1741854780501795 3.5992082977452213 -1.4787902949285565 0.5176571687425537 -0.2408115789685659
P 4.303718575022776 5.115047759954828 10.220614589875082 -0.23202303414265846 -0.2077471923144293 -1.2481443436390824
Ni 4.321379762241541 3.7427367189167233 5.617915111576132 0.32238574029763184 -0.7889828571395767 -0.6013082672053063
P 2.074499608079192 4.3259698312114185 1.762695027145894 -1.6565234573793985 -0.7776090680849962 -1.943271650979079
P 0.8790607577695174 8.229524537704012 9.117538229598544 -0.605010655757558 -1.8654464151694843 -0.7911688090473019
P 4.029096312305985 7.089430512987644 7.322639131383432 0.684239456782899 -0.840049851018721 0.5114980911196932
Ni 7.097350451631058 5.716751530549148 10.541894581721948 0.4169776540426044 0.5545784672489352 -1.105159383302703
