# total energy = -340868.4150205182 ev
CRYSTAL
PRIMVEC
9.24070026184185 0.00000000000000 0.00000000000000

0.00000000000000 9.24070026184185 0.00000000000000

0.00000000000000 0.00000000000000 13.52469889750257

PRIMCOORD
 96 1
Ni 2.4598005152634546 7.293666327674816 2.639101520995644 0.5005835010897185 -1.4773093395076557 -0.3594854733634067
Ni 5.730324637570412 5.506598040696563 6.603474720093695 0.5764125324048911 -0.7908872732511412 2.3103166818572984
Ni 6.553523190125446 5.061732243054961 12.949128355195507 1.5361531491187415 -0.4934026670705631 0.13927948646033433
Ni 7.707520334844787 1.370479032496122 6.2521442157574825 -0.31361493608353735 0.13537835163371523 -0.23786175231162263
Ni 1.6201257939328202 8.67619523346504 4.321668575528851 -1.837921727386654 1.2471202732499425 1.141849282524569
Ni 1.4332973136719687 6.921182936101235 5.853070708843582 0.6929742655527356 3.127659321086491 2.1043800603890466
Ni 7.845373103097403 8.720726168591018 1.0841402220648766 -1.4944668251235487 -0.33785375402624396 0.15622151363131162
Ni 1.1487576676044975 5.020149091349856 1.8449178435603573 0.94681542401175 -1.2145428535345535 0.3311318619213781
Ni 8.886264075178856 0.22767422407571997 11.967411132060457 -0.18914706071473877 0.20723271457185602 2.2121967003544096
Ni 8.62087116029649 6.07599151664439 6.650703015660279 -0.21222553980075706 -0.42770841019654726 1.123354566154491
Ni 5.348877766629286 4.326551361609068 10.75177019918343 2.548681856167901 0.6239023504557384 0.933980991251243
Ni 1.001525588467286 2.0174297067241596 11.96613961168832 0.3243032690353189 2.4260698030609187 -0.28973607258341066
Ni 5.127988064771763 0.8150778250620457 2.157135235402747 -1.0008273594518313 0.09656909207600142 -0.25874090975347697
Ni 9.178113115246045 7.057363137585267 2.9272995603431267 -0.4748691270427499 0.1669692390661189 -1.2980389144766806
Ni 6.370095287604034 2.255544074087975 0.7073090809630175 -0.12870993847460413 0.3078027002771344 0.3564970801590441
Ni 1.0435800158917163 5.45156966994014 4.3097942755419485 0.1289567643780876 -1.4280562589087986 -0.911782600777333
Ni 3.8586300165220804 8.461838706775408 0.9178944778280148 -2.3861120317210585 0.9866811498584361 -0.42628273349361423
Ni 5.811485708998401 7.553209879217329 1.0281729961499555 0.6927580357768715 -1.4496267859907228 -0.8340442682545894
Ni 3.3819207653747463 3.9475717576691127 9.40553599227146 -0.9569666535131391 1.2486194835032882 -1.0882708350774806
Ni 1.5517815739303837 2.2575031025683043 0.7881698296286908 -2.5254216000883796 0.03229048460258954 0.49337798448021486
Ni 6.636486198127322 1.2581583193904415 3.924935738020929 0.08709663380919194 1.3733524396080157 0.6959001809502788
Ni 3.4534530270079076 3.463275891510691 11.526884767316794 -1.7263067967211236 -1.6405916166404904 1.1511211947447981
Ni 4.4503952280872525 4.751059896315926 2.705426647965288 -0.29870408040997587 -0.1276563003991092 -0.5928773628291337
Ni 0.9964894067607787 4.385100439209857 8.278955081506314 -0.17362016872373326 0.15833650309178537 -0.7000766809254718
P 7.172668596913336 3.026717483509732 7.771968675567473 0.02986053500485825 -1.8480973823680753 0.3604807473971405
P 1.9989575466667138 6.452392965178629 10.13201490617053 -1.9259601562838249 -1.1235556264217037 -2.1368795756786487
P 2.44743645815647 3.9343483154268886 13.304232761566466 -0.896156978424934 0.7755043630371676 1.2014294560810468
P 7.5692702164758785 5.155488389099408 5.240131356430169 -0.3182375224572132 -0.2141795782033344 -2.017139959023455
P 7.838895372131785 5.015990776179346 11.059660171038376 0.8771482985329152 -0.6526714521686308 0.37566568266769496
P 1.6577446851753725 0.11990825218680547 12.817019606298423 0.8340540384466023 -1.2200177606061957 1.264464678065661
P 1.4758322575161025 3.4203528382506434 3.438952519973318 1.0816574435260211 0.6065733722589876 -0.6203858526620476
P 7.034381515742911 8.610216632759604 7.111246585564743 0.2437138402170254 -0.5323057718936639 -0.21544764628248053
Ni 6.453178424710837 2.4614730820320383 10.001352326882747 0.6595969756438704 1.4621534577028237 -1.3838391980719522
Ni 0.5677606441908717 6.868187519428171 8.279536321560148 3.082411762102601 -0.037140356495723136 2.7526022185370724
Ni 4.050383790084892 8.681517876883293 4.08368819832053 1.0759256832485664 -0.7134970680964356 -0.5718423965357055
Ni 4.034258767923689 1.7348121263355019 9.370790958846749 -0.23004199915688772 1.075358755001503 0.5852488997495985
Ni 7.792470093428129 0.7676591710676567 8.725338202150134 -2.8382150687118863 -0.00327738519969113 -0.5887484282624247
Ni 0.3885575898826989 9.234629238763475 9.659150710450863 1.42304800706093 -1.1482608424778675 0.7982311152107221
Ni 3.1706136698101557 6.086544396477107 0.5418885312699927 0.9615632717448858 -1.2215655647092898 0.06870270468303652
Ni 9.132177593662473 8.837316085271755 7.1348196122313485 1.1188821322054345 -0.5980941311433828 -1.3568410722165536
Ni 1.0306337946608601 4.37573036902564 10.656868206292 0.3554136172868782 0.6869452857498363 -0.6400213675047881
Ni 2.2659121399131146 7.289563456706579 12.01527518781311 1.0039466218071034 1.3163166297399458 1.7222297984382726
Ni 5.55412296274531 0.03406861415697431 5.939764187588424 -0.03510404279198471 -0.08491453855620859 -2.4424335891309226
Ni 8.401848079915508 7.667415695200307 4.991912283202013 -0.4017132716843662 -0.5678438168992735 1.1220394468874935
Ni 3.9998463997126197 0.8539072480542357 7.3183907456086335 -0.8501807688051359 -0.4580394570799209 0.4110337777543438
Ni 3.071664250152762 5.862753114700606 8.12275859893152 -0.12031605798395409 0.885101749052037 -0.45653459039962024
Ni 5.714190374708831 0.45243855160212043 10.306848957339554 0.6512401190387429 -2.3728276559073262 -0.1768960112615276
Ni 4.582306225996228 3.7112870489803216 0.21270798574203342 -0.0022710554223638307 0.7583368501189456 -0.013892441711376073
Ni 9.14053118680501 2.092722933411538 3.823242754421035 -0.24272319416898197 -1.3282838294041512 1.069468871879629
Ni 8.749159803656932 3.5386153216999645 6.4056488823119 0.8462755202134586 0.6196489744960231 -0.5174501949380701
Ni 3.2598511133693133 4.04641028892196 4.6621662068108645 -0.5151580564697837 -1.27326839240022 0.4409681034199309
Ni 7.764443049178888 2.5615591078360387 12.163262232171277 -0.06197849858532551 0.4507771190905527 0.6603346251408433
Ni 4.040145094065057 6.230773247991172 10.625030297206495 -3.3902717979802324 -0.7836120797459666 -0.20153900662118837
Ni 5.837526002666175 4.109727567918267 4.750239322122279 -0.8520005956226939 -1.6157768715896563 -1.1353855291770962
Ni 0.6738993287430597 9.287920357848662 1.5928583352547254 1.336181486984673 0.02475021036148641 0.6214849992634973
Ni 5.9780770554294325 6.97789311432662 10.487565638369793 3.639831298344757 0.7499666237773794 -0.8896947677393582
P 5.181454757164151 2.1715830704451764 11.8231702676359 0.8747345468850999 -0.2010798075965827 0.8496125550064916
P 4.695162899723885 2.0893870405747506 5.7677568666653105 0.46361258029232416 2.0518958744474016 -0.693092793408471
P 1.8093476155918098 2.4258594227717096 9.879440690853794 0.10708027601997043 0.026455365978051214 -0.892942071032062
P 8.341247566830601 5.8135279037821395 0.5735675003089802 -0.5161690142328014 0.9153068118805076 1.3710698142214257
P 5.240789294297148 5.301352844580539 8.821228025912069 -0.06493243900732688 1.39652682084195 -0.6006878600124881
P 2.571104751327455 0.257004207078388 2.5896822553692203 1.7490818856341102 1.4372636364396796 -1.0466634439493392
P 8.392330158525228 1.5141072384855578 0.7432591017171384 0.6308111617604298 0.18877630763888134 -1.1864265549143116
P 3.9640756485458497 8.77167939048034 9.382787236078652 -0.15550443295962896 -0.07464298142687145 0.20536095147043987
Ni 8.448920207645688 4.264777279576039 3.2125082331180312 -0.0022160338147123124 0.3494676841160884 3.2115505605845076
Ni 2.612170423811342 0.5942130730955464 10.909617070845897 0.2060011561576001 -1.0823866083825617 -0.5650834805453172
Ni 0.32282756401745694 4.542746787674103 12.796366640951554 0.15571886296328022 0.3547723841584535 0.28320547055374456
Ni 3.9070512865075813 6.177482128905984 5.282639502243204 -1.2123329903674283 0.6737655538347687 -0.3472557640664342
Ni 2.999688434901413 1.6164849579835285 4.448746687139655 -1.0301243086437355 0.08918848334121414 -0.11516022481462748
Ni 4.885216384416976 7.543137515804314 7.684450002278794 0.3706075514184972 0.2545358705331939 0.59247781339787
Ni 6.393723758472913 0.40285018115876275 12.578862731712864 0.056369122818348084 1.395689412542319 0.9870876412682354
Ni 8.764323792978727 2.3917797197742803 9.93769221790238 0.9194534870590295 1.7012357126851088 1.0690019595455396
Ni 1.001728883875622 6.90082567316649 0.6298008583948138 -1.3811480243930343 1.809431076146129 -1.161702055584438
Ni 3.2664674548406145 2.7588573016261977 2.157271073698317 0.7121590660113026 -0.49058550933674216 0.8914027515694003
Ni 7.681637133083453 7.428765367214515 8.695623806011701 -0.8586823785182437 -0.43823733475232907 0.7597278169292012
Ni 3.399247078585207 1.4424918105489866 13.19627920345986 1.4777603110021453 -0.3371359020236129 -0.33510807296030676
Ni 6.02585147638841 7.0082580557717264 4.998390938237669 0.6499903057920419 -0.18986311294515687 -0.22519109882248958
Ni 5.042853492180844 3.3873542971975468 7.693998417980325 -0.02817260577947406 -0.9181797625529283 -0.37272794019560973
Ni 2.134490899124222 8.80763495565469 7.9503724092928705 0.8085672070294074 -0.8784456771881 0.17912310081983343
Ni 0.14210995891718042 6.905446023355947 11.278665694088636 -1.332940611449872 -0.7789352430955876 -0.8514989733959271
Ni 6.805359997551946 5.591335263171191 2.382632350469195 -0.05389983534224911 0.7731044953464233 -0.6507202419795309
Ni 8.547259741078074 3.6229367126575402 1.175271085131673 -1.1028867852184425 -1.0291622018407824 -1.589743680750688
Ni 4.571781068264647 8.320622323584868 11.921521813978778 -1.0615871551387073 -0.171738121209672 0.6920851780795629
Ni 0.65460936670208 1.7523509756546778 7.989715615226127 0.15413017831992168 0.31483775274704484 2.3344608832036697
Ni 6.439030912430721 8.281460235379038 3.2122513416474976 0.8698746476896374 0.3925043514915885 -0.7779109155961312
Ni 7.7658753577376185 4.801782100695777 8.811029988973901 -0.011225693512490344 0.6097129463292338 0.6947994916869324
Ni 7.311436194503464 7.539995677675484 12.56341782509955 0.1858565628889251 -2.0647174516921023 0.5405232747074498
Ni 2.6445960414409453 2.8875340544025527 7.385040221161577 -0.03285175642269826 0.21311822681835554 -1.5965558185765147
P 0.7885200521730514 1.4626735001765314 6.046270652015693 0.4198508618253414 -0.4233041104812645 -3.1321191566300577
P 7.714644914836929 8.492517832033398 10.662697240091017 -1.75201268612766 -0.6077622503607663 -1.9235358631130488
P 2.0944232222812578 5.045505573189591 6.296220508424819 0.3740859968854009 -2.4109779417248025 0.7816624122187635
P 8.443070844305836 -0.028161958474773492 3.6895917326307113 0.2964451091724701 0.6650104333499579 -1.9591369001461096
P 5.6200183971473345 2.919894987129504 2.720791160485306 -0.09059384832917301 -0.048451153522852036 -0.686180896779986
P 4.769642944777918 6.78077049384366 2.9207941072763726 0.015081834033786927 1.0064405918735506 0.16814397610051043
P 3.404606684804976 8.182131947006107 6.071846138454409 -0.8361137491891084 0.3668277726610908 0.8019831260539866
P 4.870902539530041 6.239782930860612 12.667692660385311 -0.8301223074923639 0.7951846150749143 0.05434180797567415
