# total energy = -381166.4836935002 ev
CRYSTAL
PRIMVEC
9.26351349897105 0.00000000000000 0.00000000000000

0.00000000000000 9.26351349897105 0.00000000000000

0.00000000000000 0.00000000000000 13.55808837603745

PRIMCOORD
 96 1
Ni 5.253199387765407 8.194031344945648 4.650532819104306 -0.8800053083657361 0.8946138023075303 1.504728354950557
Ni 6.068073590652403 0.07757265960684467 10.262930489631971 0.40645232903124834 0.8475600433528372 -1.5052878269984529
Ni 7.965380048423587 8.958771414348975 0.3835539116896922 -0.24030507164579257 -0.1958445273395724 0.7993444028795589
Ni 7.42250112036059 8.457003957904702 4.583189857133458 0.8223969138236481 1.3979792370177602 1.3307073512439793
Ni 3.041961730875957 3.535475397051578 5.659254373038216 -0.5412568104393646 0.7214219793704673 -0.6908528483343586
Ni 3.9141214994434788 3.2776069798703342 2.6824948062306544 1.8359432635040447 -1.0425705048268883 0.6340661783626176
Ni 4.186413206690147 7.434349153754089 2.940613338268524 0.8604047605259892 -1.4964460603371066 -0.5406544009686753
Ni 2.7831021177814184 1.4553627696265283 12.24425515950038 -0.7562552849995685 -0.9909265553983514 -1.1737541016529656
Ni 6.801799417834125 6.913156110111874 2.8948145289663696 0.23321679734044348 0.03519763094705551 -0.22441693966062642
Ni 5.150068695216684 1.1993933726529993 7.84980753128471 0.29539249953823965 0.18608461973933113 0.8988936606298067
Ni -0.047758968697044234 5.649890813887202 2.6844475548149775 1.3992233938375063 -0.5565276205555061 -1.3197608795348044
Ni 1.8216235548588455 1.2170681558545589 5.164113107591886 0.9205618896318598 0.01770435925829854 0.9694429316032788
Ni 2.5874289282811342 1.3180775038785657 2.706262202069355 0.3864326913762119 -0.08377168320101702 0.7206455062157588
Ni 5.533170547461808 6.41258364687148 0.8502978773957813 0.5574138798152013 -0.004778138114933707 0.7082435330069803
Ni 3.374216159120368 0.019047635859039177 6.657441459751575 -0.5489585499589965 -0.09580675998868016 -0.9994721309755176
Ni 4.7887175719848 0.42738792984035245 12.13475950702619 0.4684403406982706 -0.8015486096197293 0.005305728483629571
Ni 9.248691587231159 1.9744622592836523 4.246216595260706 -1.0673127447685749 0.4838762156373666 -0.4905757391447293
Ni 0.9880741093437873 7.260046889225501 0.8593307291252577 -0.6473999193570463 0.1999482650953008 -0.009395582282287044
Ni 0.5614420821812374 1.8251529533912325 7.581262915130826 -0.9346348227851581 0.4178400020428998 -0.3280766200348221
Ni 8.693668193351998 4.4581491031443115 11.623307973873894 -0.07287869043759707 1.2872456805159185 -0.3424539718024167
Ni 8.715261442640696 6.546524784351223 4.867936357888771 -0.6266894262825724 -1.3301669053594767 -0.5006997149526087
Ni 0.3067612398949918 2.3038172078938453 11.859720241761924 0.18070818591876617 -1.1917186565511864 -0.13810886319100085
Ni 6.439605314900279 2.520546362916742 3.4558619854849306 -0.8536859537449168 1.054250512267978 0.11806994226225473
Ni 7.103956691664559 2.3170455047553897 7.952347211690738 0.7354380911439011 -0.7517622822252215 0.1272528943131034
P 7.599008101032769 7.730077549417919 10.817483297040148 0.4164199817669216 0.9623153194195619 -0.6285668458109434
Ni 6.926856846147046 5.159980654349635 6.101153596319472 0.27258989982142734 0.15380364821843837 -0.9923902844280715
P 3.7569382073239495 7.688419530519903 11.034954459471036 1.1601385677520601 -0.409700660765217 -0.24478213358053974
Ni 2.3310241461868118 5.226298145408316 10.530200446368385 -0.3166488378138547 0.43716981271976324 -0.32200624547102613
P 4.564336755051794 4.036029333265556 9.046580256051062 -0.6463879331527642 1.4450471370398403 -0.8333840089627712
P 8.071752970595236 2.7008977015703914 13.328983839308924 0.3416942108182567 1.3555519210914846 -0.3256597830632133
P 4.3431333231492575 4.629774212355682 1.0314264248076124 0.6839316957344931 -0.6565471330739532 0.11904413325006594
Ni 3.005796975310502 2.0096914000150625 7.769245535965526 -0.804497407835408 0.7109280218176789 0.01598917633940472
Ni 2.1279030920670023 3.697160756590373 12.216217284072624 0.48052144023252086 -2.677538090412382 0.9917361957838404
Ni 7.73092052911988 7.72502893471936 8.546205105642006 -0.10187404922868262 0.3432037054842476 -0.9207428952944143
Ni 7.993707871814765 2.8363487917030974 10.109805542649028 -2.1334600084741386 -0.5799017765050722 -0.5080800665770798
Ni 7.997681918981153 6.6249496871732365 0.7046448801667032 -0.8665990622621591 -0.3883898151025827 0.07316074045439012
Ni 4.131091505809793 6.110259629803294 5.568916592230246 0.3316789926740998 -0.20844987480840876 -0.4552534096943514
Ni 5.309327014294888 5.701923967578585 7.563609438009645 -0.8653425641472388 0.3087622359769263 2.1832748751137365
Ni 3.6475175893067475 0.3207389549750931 9.88446965750424 1.212556162121828 1.5384601999853633 -0.8287963895920888
Ni 5.253847833689992 5.30217558209803 3.330977784869006 0.2913005888570531 -0.7325000915614998 -0.4298989900899629
Ni 2.8366730146653905 2.818257150407162 10.069293420334887 0.35672333723723726 -0.34202099803005614 -0.17697571545952748
Ni 6.813619660687998 4.637833468846958 12.910743628761832 -0.64018129012142 1.0058579798972032 0.3270656622718045
Ni 0.686226236854512 0.05573022181284193 12.522101269266784 -1.6569489749525916 0.7150821531953685 0.3292364446708782
Ni 0.6675157928762573 6.598974796136983 9.161430219159687 -0.4021583296415849 0.3523882001969931 0.5542884468123421
Ni 4.960500160920712 3.321543823017607 6.940737294338459 0.9381659758668682 0.23685670808587594 0.462842534895519
Ni 6.268545279994619 7.566243054814783 12.528907172420968 -0.02509833772952452 0.34148363746934735 -0.3687545573701585
Ni 4.079206568329743 1.6140189603461879 4.688427072585762 0.4983612966274192 -0.22904389690967653 -0.4840091416708052
Ni 7.942119366757383 4.3151853037996215 3.8151649459464454 -0.15838149739710788 -0.3648156273270685 1.3954436150801
Ni 0.7658183423407802 3.674270615452504 9.86428168316925 -0.10584820338508223 0.23791651680895798 -1.4673375730069245
Ni 6.129305412959693 4.530200708878971 10.571119236912374 -0.4825063318730335 -0.03319705557725896 0.7016710219957851
Ni 5.794132978054646 7.099130401283001 9.84426971558522 -1.092848427145834 -1.7307332079235935 0.773591462285171
Ni 3.1779593682879566 6.359818675636635 0.5773438289547159 -1.0238096792796174 -1.2198310985166863 -0.24469677295558503
Ni 4.744891890996028 8.356337359869404 8.083765894523843 1.4444894647641575 -2.8004674176494673 0.11572483906884586
Ni 1.7738516172433096 8.53172345544337 10.381631295181313 -1.5922494778916771 -2.711628347227872 1.3108512357500004
Ni 0.13836539138805784 2.886649668424517 1.9647837406835529 -1.6262952546224767 0.03252034122520851 0.26728725666159125
Ni 7.751059406834864 0.6642754159559714 11.749316764993315 -0.06487381785524955 0.046633640698139044 0.6739591579028135
P 2.0008725354406995 2.0874030123200327 0.48761002920793034 -0.05820283359297718 -0.15553425775629987 0.7173220982694808
Ni 8.657299640495959 0.5608529227411855 9.566600538921097 -1.0674338437274713 -0.5762626370905882 -0.46237510834079726
P 1.3739550155514206 1.070065464751022 9.579439768227891 1.5860173809390363 3.4785308275286413 -0.75183941532006
Ni 6.13531743303192 2.536637085359671 12.114992096190864 3.8423270124522597 -1.5252298173380185 -0.13224957619674643
P 6.259958003250465 7.282899976310537 6.348872908429631 0.1471375490521724 0.16358669574713117 0.4358721769542622
P 1.6682475666679537 3.3960502597524833 3.6165116842470306 0.04280629653224886 -0.5864547471322417 0.8802184528178068
P 5.228002631838655 3.7845897942509175 4.839600197335705 0.06952314370180285 -0.3744726908008583 -0.045455304119321714
Ni 7.340889568994899 5.181008829332622 8.877104281904034 -0.6809710704442723 1.7253871131203316 0.28122649245050274
Ni 8.906312139050005 6.162681851049429 7.054517321671518 0.12226803950400233 0.8946418273319882 0.21486529141644933
Ni 8.912333422635443 7.824454221984737 3.004960480067786 2.0421902171238635 2.343429662361183 -1.4561147077079115
Ni 0.16748061340194761 4.705420061215186 0.2921999234827636 -1.0796411844269407 -0.050152709594991046 0.5045879942634213
Ni 7.177703520316348 4.3984550240296105 1.6423588263045372 -0.023135557576198864 -0.16849801700581948 0.19019067148790472
Ni 6.156947736373452 1.228480804127264 5.58726112743677 0.44144812838014297 -1.186957744827433 0.4674049574552208
Ni 0.7138370643233634 3.644358731302695 5.769806992369481 -0.27713766709310983 0.787713760619166 -0.06704382892337486
Ni 1.7218092000387177 5.159813911111884 7.752976027717675 0.6169580579274213 -1.5557251577133981 -0.5037212753877518
Ni 1.768645522820209 5.985961809573459 5.3263487198152575 -1.2487732354723333 0.17300978883324397 1.4614841995499412
Ni 5.357219377582132 0.5280007994990413 2.6343365801143297 -0.34408327987572357 -0.6084608190896876 0.8212594577850952
Ni 2.069163154812763 4.03402841441255 1.4924603609720657 0.6435669187642014 0.9312857038072672 -1.0863286237494452
Ni 1.3090085244475766 8.824135513378604 7.972508321837423 -0.35549280726424587 -0.7000584260930265 -0.3462386356558295
Ni 4.329478904680128 1.5340007332523349 0.6821076788820731 -1.9292159442169614 0.5152210484972353 1.1879458197723154
Ni 3.356096727284807 8.598254007305844 1.1720845357147405 0.10952950889141136 2.06997947142199 -0.5644823566262085
Ni 2.40630871803119 8.121535090576987 12.73019034552024 1.8906781931530796 -1.387584009826365 -1.4750832783906145
Ni 2.845102811685002 5.272680556042598 3.480375094136905 -0.38499313071620794 0.8621263712027861 -0.5095602506670321
Ni 7.890215902250916 0.9235000114709196 2.7607927989217136 0.311632872656502 -1.5972633861665009 -0.2903189416700742
Ni 5.117173959813782 2.407837197710571 10.187846009672896 0.46804670480427785 -1.729095158099538 -0.887993468777535
Ni 4.32879340470271 5.266131252204284 12.031731639474083 0.061791065164867785 2.389894895802258 -0.15379002137168354
Ni 3.4622380616262483 6.415353437320781 9.065262909489691 0.45584887718650524 0.9498801789800028 -0.5099217477715089
Ni 0.49391848170282654 8.52247846926142 5.632178976632809 -0.48382119402971513 0.3710983750119867 0.19980736864206236
Ni 2.761360652281387 8.129779617332431 4.770426765154884 -0.4153120934147234 0.2083837974571637 -1.0035146764760072
Ni 8.716104422342658 4.063180690479273 7.805445492881173 1.6726401604356032 -2.008569957966257 -0.966316213048839
Ni 0.7246179409952579 0.68097475121669 1.5155366987254226 -0.7400948731896221 -1.6784835065902577 -0.6817292887665356
Ni 0.18634946345606532 6.945448717156233 11.491930050498905 0.46548640027626925 -0.16897984173824446 0.9788626822552818
P 8.11914510416923 0.45581857822814403 6.684625239261521 0.10708233290249945 0.5884236979331543 0.33333324044807106
Ni 7.560759054995431 2.9968484215512214 5.727248559987612 0.7023526214438421 -0.3761109977352297 0.12024226732322518
P 2.432598568516529 7.126161332825008 7.185474681546846 0.5796618925801242 0.17647255057086383 -0.8636302094418223
Ni 4.357463978082597 3.2387835960140783 12.80142490938992 -2.059972223697633 0.6921042042429564 1.0611459538362304
P 1.5983265689712183 5.521489257306061 12.550572677112692 -0.5739962096539147 4.696673225488996 0.9238012225047639
P 5.49442127171122 9.023060196015024 0.585420686121089 1.5238681611038014 -1.3034528864034003 -0.29754734109771336
P 2.1420577402493834 7.674931855288524 2.633780769321828 -1.9810874362752722 -0.39763215963645715 0.9981287295737455
Ni 6.644968139216513 1.7849956236329723 0.936843175896248 0.04529820971616715 -0.02393337088714588 0.6605318287533141
