# total energy = -340896.34746034106 ev
CRYSTAL
PRIMVEC
9.04080614191671 0.00000000000000 0.00000000000000

0.00000000000000 9.04080614191671 0.00000000000000

0.00000000000000 0.00000000000000 13.23213364739102

PRIMCOORD
 96 1
Ni 6.139991295518316 2.0817631889648025 11.374421977605408 1.0105073057437564 -0.6657110589614084 -0.4407906973018022
Ni 4.712294281617885 0.33450531396752065 6.026575284134617 -0.6900714900836438 -0.594879223750511 -0.44664895585479203
Ni 2.814746562521654 1.7242083392478744 4.727074191813269 -0.17247705625822554 -0.07263777807138458 0.447308700925978
Ni 3.167898539553757 4.481907413799825 4.821697079069769 0.5284496313723673 -0.3004105215781213 0.050954893781312245
Ni 4.965536307849164 4.730529587994255 2.5046577542212933 0.3517256269123297 -0.4194466844083873 0.71162993298071
Ni 7.194330130229385 6.216747741296887 2.4227769794124168 0.6833148880861006 -0.6842183737369766 1.1866597539710402
Ni 4.981357718934265 4.501345147418662 11.48414301144026 0.7722385478017023 0.8659588575749989 -0.176029035275542
Ni 5.577273427656144 7.745349194694918 12.255337352969212 0.009085250130719836 0.29518166907901416 1.0679218391074834
Ni 1.7614383797326987 6.399787906341993 0.34646991707039004 1.4975248952235822 0.3117532002844502 0.4328375038929965
Ni 2.6875785806227865 1.646023446068477 0.3914569693900804 0.8914670291484325 -0.41199588455729697 -0.7453664060012067
Ni 0.6403937636449457 0.062293867885522984 4.857397415122823 0.15846325847763676 0.6225921162847472 -0.3381412033596757
Ni 8.737659057146063 2.4128284761221055 1.268492030675185 -0.5586688352682249 -0.8569656529374531 0.36242398716644036
Ni 7.136143500661555 0.6652505565805881 4.919972452085344 -0.9414767854076559 0.09152767299735205 -0.7221871396712659
Ni 0.8771091958970462 7.517647446358158 2.7494656122232644 0.014722908032471416 -0.1839711729407541 -0.8172693627890956
Ni 7.609881752581123 4.110917925870063 3.7386337944732237 0.5658360424406255 -1.1934832046507768 -0.5592550467889981
Ni 7.63387605259247 3.89041265937544 12.67925533750275 0.16243535575150733 -0.5947712374177371 -0.41353803223343616
Ni 7.955412329873376 8.771806182670876 6.974075294070224 0.0731255163410805 -0.7951581327123531 0.16644447691090045
Ni 6.896923765054842 0.7563294477540256 0.5372182735961575 0.5573956249827561 -0.8194524864833436 -1.2351872692577825
Ni 1.722291688304994 6.5469722334650955 9.202459567923498 0.8592932726293654 -0.17240198004591598 0.23993303301835453
Ni 0.1125372450080003 4.752372176098027 1.4568319163934833 -0.30526784967042264 0.5285619885805155 0.7045185187469093
Ni 6.257530818671107 1.9950076113804478 6.887934491316605 1.017915939503002 0.18428998973275357 0.5256106192616754
Ni 3.652422473430197 4.1766084246954 0.2803599248311409 -1.0043852520064185 0.15699490146222642 0.7071718972093562
Ni 6.0743188783056485 5.699803475905494 4.5985500889642505 -1.1551246594772364 0.6895973786607026 0.9856930749135541
Ni 5.340576077016712 3.047945121109695 9.038500024647023 0.08378865248188151 -0.4319769556649141 0.558630782941438
P 0.2168808072351856 5.420126131952595 12.40932036645574 -0.27284829568913654 1.1790642010119692 0.16471412448335504
P 3.9559765869120946 6.155713257733737 12.720010388377334 -0.2068871583069792 -0.08630884780057393 -0.4691180834915856
P 2.4681310884692813 8.418916389022467 1.5455131857270532 -0.3868078153274435 0.4731642285365012 -0.3546697971423182
P 6.330571493046264 7.711735476743831 5.843720455619365 -0.18364310017737404 0.029937925210012952 -0.4704815394980155
P 4.776393598528377 0.9669323190706434 12.666778120680725 -1.1432790729925602 -0.6698978433492463 -0.6637235962177344
P 3.870649456728566 6.016023759061805 8.310679855587715 -0.24247379716233725 0.9137831761471293 -0.13418818798035598
P 4.832591250702652 1.1667793430912936 3.8432729910675425 -0.46688148085158304 -0.8429220303601935 0.5349658352243303
P 0.207326483101052 5.673205423669857 3.728961035776111 0.07996207964693972 -1.1192883665049176 -2.1399605285968173
Ni 1.5220197463866296 1.2079692567505598 2.4723847878495895 -0.43032425055283957 -0.36603510155646635 0.961669458305447
Ni 1.757171119142889 6.694292172683214 4.865469047018124 1.316004754926482 -0.4841685500668048 0.07532998019156704
Ni 5.930027609209535 5.475211764947747 9.195829944638525 -0.09622559269365363 0.4566819146107619 0.4189769438608203
Ni 8.532387549324806 2.3327540544188303 10.29134513179936 0.21106057295837843 0.24528375580730657 -0.2904842636033449
Ni 2.1777584706228557 5.288925950428611 6.998290189756128 0.6118911849274752 -0.44620466922852187 0.5350344836787366
Ni 0.39227154604080466 -0.056736484231802393 9.192284140394197 0.4118812133563035 0.1852832068839583 -0.03500094155521714
Ni 1.4356438826683173 0.9442127727524396 11.35564512692961 -0.09283147941044012 1.451548685603784 0.07029473176050474
Ni 4.2174005428759545 6.82299709165892 1.7435059403685296 -0.21839850138068836 1.2306508148400095 -0.8849207433894825
Ni 5.530369724393573 7.612367974323068 7.940100820265533 0.48084668478242354 0.761920710815462 1.0979744355184897
Ni 5.089006599957286 2.990219572664916 5.021620949944261 -0.007225571214161749 0.19366577452069872 -0.9516259580265161
Ni 0.9284546473116799 7.353592974615172 7.120356444640526 -0.9752888488610945 0.97423186835149 -0.691397407983919
Ni 4.918903828776624 4.649026718890154 6.986672753616497 0.7298048041175238 -0.6956518123848986 -0.2809632114867871
Ni 7.978086672159908 7.121777659396284 9.037997355814834 0.6991868221213506 -0.07569636239205028 -0.10296856784444201
Ni 4.733088136186875 0.14458961570514622 10.502159557984204 -1.223021580429526 0.5709872476242618 -0.7229736401283032
Ni 8.236717018966456 7.183878958106886 4.789979218206994 -0.693169155172361 0.5759697884405177 0.20547767955396223
Ni 7.314572854476146 6.009451092856739 6.955815577516751 -0.82765533400911 -0.1695585970598499 -0.6537050356394677
Ni 2.403317547858377 5.20969232371443 2.529269541305275 -0.2624265861351803 0.3792282032079727 -0.022532890995193452
Ni 2.2980825621266256 5.120622299708483 11.34498059177762 0.12190654239952552 0.44264060602634736 0.8390046975836584
Ni 1.1454520809485786 3.442983153888809 3.723813200649336 -0.7533054583426252 -0.30805775371073396 0.2791161309757193
Ni 3.93725307699367 2.5992951067679284 2.409452639036862 -0.927540634942538 0.21583099776382828 0.2980214525206545
Ni 1.0955468299830056 3.271189751923625 8.287497419985192 -0.875300446690899 0.33121336589159084 -0.5147353671100684
Ni 3.6625933805563324 2.5526716685017217 7.098907131612298 -0.5918417224757678 0.5779929895181335 -0.25929112582999214
Ni 4.172178429591571 6.810312840371837 6.150454220689051 -0.46889234063402474 0.32166017498551697 -1.3625044411499179
Ni 0.5612704347680434 7.361214374355022 11.260757344047516 0.843816774260321 -0.4630842185926799 0.5491842928165573
P 0.078240042098037 5.482344961145544 7.992975976111937 0.838554497420117 -0.2711994472318039 0.1176415964755845
P 8.332730382237177 1.517734404184151 8.000690496157032 1.2548739490534324 1.7331862974497765 -0.19026060549389168
P 1.5952954817264788 3.2040979281164663 10.409614248023335 1.4619608820760435 -1.2093155436973433 0.38494119443235
P 3.8957105718873644 6.290782904368821 3.8845976127411905 0.5220303581095848 0.13512638352390924 -0.13267123711519732
P 6.891915158345616 3.89948962893512 10.53357274367351 -0.09140657403845548 1.4059339730884626 -1.3566976046601538
P 6.276742532131586 7.656351497139647 10.13310209036809 -0.843976696876953 0.11645760346981233 -0.015992775883830523
P 2.5006237464349095 8.476388794889886 5.869073588822762 -0.13180966044585044 1.2140445737418961 0.16508642022110923
P 6.79127290223171 3.959674276702841 1.5682065137068872 1.2564621194761587 0.4674720632477304 0.8492788258161568
Ni 5.532241171304782 2.7159667125126234 0.35721491539875666 -0.7972962621012785 0.8926494794923078 0.5726499800386654
Ni 1.4517093955244447 1.1186099269419145 7.094699540344294 -0.32761767812053255 -0.3456495959215789 -0.7840903049339658
Ni 6.752587291927057 0.8639548226805772 9.226846238929756 -0.7029372903027183 -1.0525307013633938 0.07237938220367535
Ni 2.630286990882056 1.3901415043875696 9.135042275088304 0.5735043576191606 0.4695600561250107 1.3963519858269824
Ni 6.381615885609965 1.9235219556947984 2.6533211572606943 1.6691815124630414 0.8453743485554279 0.04748056207946661
Ni 3.901804075356712 6.750670640984176 10.519281941100814 0.5898084940958229 0.4500487255649604 -0.40020609101122046
Ni 8.49161351275692 7.005286869778276 0.5518065186972532 -1.0241048419225331 0.6770809913612468 -0.6026125878390267
Ni 7.536217262568898 3.776570826013394 8.130034600140576 0.7908283949887477 -0.27769122560373466 0.011908578512127878
Ni 3.119304205506664 8.339727966339959 12.715035232651545 0.5138519360638505 0.005752843323377189 -0.8605657115838857
Ni 0.1691137069676848 4.935846299847182 10.167042181427847 -1.1877046502957866 -0.8629882049824492 -0.16245823856964278
Ni 8.679526672416237 2.3901360522229047 5.853498991750589 -0.008909129564171753 0.14155131321364653 -0.004624643256204938
Ni 3.6384453868373026 2.678573937513781 11.388725437306972 -1.1080421041671369 -1.3080482190835665 -0.07692792080630623
Ni 1.1238264721968303 3.473043834950499 12.677892887988165 0.06870501867588168 -1.0925216399340347 -0.29268384235782496
Ni 3.111140357386752 8.35193305489132 7.983661233345663 0.4851771938369774 -0.33954399724447326 0.4994236764536624
Ni 5.874092140418956 8.044174966463954 3.5695661956178446 -1.1817787717296548 0.08140961072674367 0.33054307929744364
Ni 3.2413189277949557 8.55716839948724 3.6152837450893496 0.31302615345960283 -0.5257713132092557 0.5986160650851239
Ni 3.3114665441431224 4.190477021612281 9.31671908653819 -0.23311446743462436 -0.0692277239485711 -0.26576079271473585
Ni 7.3423914155669205 6.168072039992784 11.341738558626126 -0.10860776840809037 -1.1292760738452488 0.572969053940981
Ni 0.710036902999656 0.04622021830369471 0.18784987401497708 -0.39062538930132085 -0.3873950552894812 0.8867968773662728
Ni 4.750979891922539 0.35227773105957194 1.6333617967972298 -0.9387061646410543 -0.7726167570767274 -0.2662472454328511
Ni 6.0662273566364115 5.643262273090512 0.33268630373305086 -0.6334845948275348 0.34436070190682627 -0.5580121755208325
Ni 7.802396682664622 8.763208375846915 11.313792522166038 -0.4755545831455487 0.6835629995411647 0.17131080386426625
Ni 0.13097054504309205 4.819527285549526 5.707707852883609 -0.5506701333334645 -0.0936891994250451 0.6730569578035183
Ni 7.944292138082134 8.815798746293787 2.5810200208436873 0.4982221999463936 0.4249362467680488 -0.1571705078081422
P 8.56485308487143 1.7324354730121265 3.596825130796522 0.1966384839957775 -0.2559713174281398 -0.15643620074527897
P 1.8899624825817176 3.2749959313903836 1.5935460857007835 0.18508908859528125 -0.06267012533571144 -0.0720605654116759
P 4.7234958406661365 1.0687408392016788 8.254575323718683 -0.20351387095937207 -0.9521574050499538 0.372784504465158
P 8.435452023807981 1.5338993659099562 12.329993619436316 0.10102018586881957 0.40628443599481634 1.1894398878193386
P 6.36028862346725 7.747094070317446 1.209820813887833 0.28605116753265575 0.21510671800329403 0.2866828875793837
P 1.7821056630130065 3.2962599078887576 6.0692090145654785 0.031576489254700454 -1.118765661232228 -0.3179253905334331
P 6.852361630632865 4.000394068432721 5.84800760598311 0.22413926051920754 -0.05159946934384661 0.8837159244481038
P 2.330457689609907 8.372591297365295 10.329480156998253 0.5092483758535681 0.13588537317712082 -0.6874980729295127
