# total energy = -340858.2475047603 ev
CRYSTAL
PRIMVEC
9.39705552516701 0.00000000000000 0.00000000000000
0.00000000000000 9.39705552516701 0.00000000000000
0.00000000000000 0.00000000000000 13.75354063001159
PRIMCOORD
 96 1
Ni 3.992169801589714 1.1384438537887736 8.373678398796201 -0.6124573418435904 1.4848452428733845 -0.4449116614487112
Ni 0.4366642455705576 9.263720492512233 10.776531753397395 0.16253717143669427 0.14658759008597336 -2.1828509002024408
Ni 6.754274460115129 4.625380976619658 2.5792013136710685 -0.6578064594023509 0.729667250098395 0.3010586966850815
Ni 5.830600305443496 0.3141661119564156 3.369176984504201 -0.7936774344017686 0.8261988040682416 -0.03333358115512324
Ni 7.315851882514579 5.206673421060138 5.737825997481396 1.072257747478676 0.39979600005699534 -0.8994963272108122
Ni 0.5938403323963374 4.641731852859598 3.8695448077288823 -0.4423858097030639 0.6625930821577168 0.02036082304453913
Ni 5.406887081501608 3.1025411783073342 8.066850447331607 -0.4038565432796141 -0.12001061092839331 -0.5699032705314636
Ni 8.618471689629782 0.0369520405967329 12.552814831956441 0.31892812076633464 0.0521190892927425 2.771495198786833
Ni 7.738023989385575 8.181856308746838 0.8242166609728409 -0.6163661899796933 0.5043671365018669 0.001598197725055312
Ni 2.6478552600626637 2.818148696396106 12.683968593216909 -1.2184231624255661 0.23888505136981442 -1.2760372133946087
Ni 2.6215059169725543 6.671035344176401 6.221234954987561 -0.03028888079152848 -1.2050961062993568 1.0756130371041541
Ni 0.3175659665676859 6.405897428595998 5.792028212511266 -0.3700190259048789 -1.5308829018587375 -0.19199661434839194
Ni 5.8561508988322295 3.655548486263781 4.679862284192244 -1.128427095581392 -1.7313507869029343 0.11735723246594627
Ni 5.123377922789548 0.12220400578292934 10.167236084132188 1.5511092562079416 0.03492997910796565 0.9671448795977216
Ni 5.687182447297541 6.829685828980369 13.411022521397735 1.5334984851047138 -1.9175102257442587 -0.09281091058514984
Ni 2.2789268685798842 4.180552569395503 5.648702445507352 -1.5865172033935904 2.3392199951552097 1.2110492385589984
Ni 1.2896330766763546 6.021999528003895 10.476085342194033 -0.2032745012550564 -0.9682633094728808 1.295923925016207
Ni 0.6644939721579669 4.585913344316355 8.830707942635263 1.386741459320412 -0.44920643216932316 -1.9895175693204963
Ni 0.05893457208414161 2.357880927297111 0.4889504010226547 -0.6343531134754171 -3.4854887469037132 -2.9652003111858996
Ni 2.4983856982968695 1.3858965112751727 0.6338840041901624 -0.12819031852570828 -0.9515112868255227 1.053659158540882
Ni 7.6718405288350615 8.339623470351636 9.784213989095006 -0.8691315988760259 1.542376247210318 -0.8573423195505816
Ni 7.1940472515823375 4.7803290216313625 8.032273982317319 -0.5432208761442708 -0.1369616369604351 -0.15051212195136013
Ni 2.0899238951236145 5.917391508289521 2.1472985560262448 -1.4055621915713408 0.5948434854165691 0.6383609490832296
Ni 7.018275332002985 1.416925587909817 0.1135098502098303 1.167454384687183 -1.3609216700438305 -1.5175044236693027
P 1.2902250911609043 0.7172847494802278 12.681039531076685 0.6828181509553402 0.5426297795274913 -0.40680636993655744
P 1.47516853672312 7.864508353862352 1.0607555784218459 0.3594489636985164 0.203249818664708 1.6871427249271527
P 8.59568383050228 0.9987002442691502 8.99682344817774 0.2159047884245572 -0.66514644470719 -0.6029260053143874
P 2.2078005569361463 3.8495506931451353 10.314288723272172 4.029716981266576 3.1979080301004084 0.3775114776271821
P 5.5208263771391195 4.564224940660159 0.5662994426928802 1.4457243656125232 0.2860966760586105 -1.305589987351061
P 2.072896430901333 0.3722051446694846 6.461206616741422 0.17210424629983906 0.5507328682506 0.1900963120018855
P 5.6996711338049435 7.0122048342725245 6.853608852389356 -0.20474003005698935 -0.6778515509786842 1.4793783062215424
P 2.2532729075827373 4.602574323381535 0.05664263029395695 0.27558086412895116 1.0215273110033438 0.33080404626831417
Ni 4.743464373649016 3.312208276390976 12.062693557842119 -4.059747980411028 -0.9449356904905337 2.170563341084339
Ni 2.393119884710774 7.889335373992191 10.79970583149815 0.029399793318355818 1.9820569992773929 0.034611419426282326
Ni 4.677581618868431 4.419792200540691 10.283398723056122 -0.19756742356795004 0.1971722450120604 -2.4654387917768443
Ni 6.904157492314577 2.1149670475255915 2.181105402210617 1.586632645925532 0.8378160765921958 1.77992123961247
Ni 2.4913848920906885 0.9605388026539803 10.628928446816229 2.515775078137551 -0.5379210611979123 1.6459572518277785
Ni 3.7254625777724892 8.424591644467462 8.979975467711885 -1.6905926311489659 -2.300619766284509 -0.395498401122906
Ni 0.7911775542073212 2.4738311927710286 5.171235246073897 -0.5378588405014092 -0.8020648871345154 -1.983290871684494
Ni 0.9114429474797335 2.45541296436282 10.168226533761896 -4.13432257049381 -1.9378728485610108 -0.44703230733613974
Ni 4.317411282934861 6.057153911919766 8.717805142198477 -0.5348123403656014 0.7097322017373647 -0.95947964974298
Ni 6.246908649800859 0.08430380230538613 7.9656516792838135 0.8770187149335863 -0.7166178731136046 0.26544351858463316
Ni 5.07374267664049 5.026973532361075 6.725714929616034 -0.8781911379751326 -0.9487995443213143 -0.884226031315303
Ni 3.1100212343343414 3.2545009597303607 3.793048078975302 0.9971856489341859 -0.014434430257775141 -0.693260943555219
Ni 0.20247835077125442 7.350320281392796 3.015711447534537 0.8385547545304332 1.054858321055306 0.5550116981316119
Ni 8.063152706067 4.046851266440409 0.8098401060535972 -1.6179293991562846 0.045723984399676086 -1.122908479756008
Ni 3.786430672625782 4.407735778577563 1.7248586330789037 0.06792263198390237 -0.8217952756839072 0.3674494654054898
Ni 2.767874450485946 3.7918057882632787 7.919495223010632 1.3534022217383337 -0.24667266573503324 0.9657698536270658
Ni 7.555965439803625 1.3757476915400377 4.990375760749542 -0.02604733190635514 -0.18724470148570335 -1.3280801980337773
Ni 3.970584765541931 8.472704567656251 6.645394539056689 0.32538133259084606 1.1322618959464499 -0.24265017483920143
Ni 3.407005770361386 7.754760144893238 4.251536045798525 1.307345279479271 0.07044282730259481 0.31287265860087404
Ni 8.819399526274836 7.167895246653744 11.37375126688332 0.17209164789434878 -0.7569754509950447 1.175948023980491
Ni 7.33616831609547 1.2236469542873563 11.03346134116424 0.2300008615063071 0.6487808588649729 -0.6582281203208018
Ni 7.662687796962819 2.6681153113116927 6.83259421759891 -0.4449967649633497 0.3535642227829653 0.33911745123001596
Ni 5.119722468273838 5.873309921828856 4.309479228547428 0.18143837921657138 0.6904548415649915 -0.0846779970653703
Ni 3.2616051335449554 9.116553209297464 2.498866827528757 -0.29855624197820196 0.4445815318028021 -1.754751939435694
P 7.915290040759268 6.501578245765577 8.783024464874156 1.192675878258133 1.0802042560192622 1.4339425424862466
P 5.240117540909532 7.702766237861292 2.9736257956217815 -0.5181148251052625 -0.043171650291467585 -0.024247302583138883
P 3.954863492007782 3.000197848922746 5.976270637747332 1.4503857756439344 -0.7221922818775884 0.9185438307605666
P 7.9544381731820195 3.5916860983749124 4.0593578073529 1.0749445502822197 -0.5708232112425718 0.5568492655609829
P 5.4901074033297155 8.951240212278488 0.04470085240561471 2.58263533029521 1.5722979744704149 2.680075255011939
P 5.450761932745446 2.2599918021296093 10.046466068989615 -0.103978240055879 0.30208071019169264 0.5850614663291408
P 8.659658983054872 0.6744416949094614 1.6955915043149428 -1.187678939264174 0.12845462793068843 -0.7859067893174142
P 4.942089931743044 2.522874424435538 2.741520408868181 -0.8853732575458688 -0.0814152671536985 0.10046945557167214
Ni 1.095057649421071 3.653077060717169 1.7331938211391489 1.7912829444821923 1.3018539173473966 1.4030196276551448
Ni 0.2807614597393248 4.808294658234847 12.763312629729514 -0.616111650766726 -0.29612449260825774 -0.22992244285988792
Ni 3.466705262747787 0.863870354971288 4.671375803541502 -0.5127445619322847 0.36441042146884983 0.40904862900351485
Ni 0.6136098573581681 2.4260283724074805 7.378320687100928 1.0185656572718587 0.7442893708869439 2.301493427138714
Ni 1.5266080174917578 0.4530762026700144 8.583900862848681 0.08299700981852158 0.20300042165806328 -0.397451925304851
Ni 3.3780910311715613 5.984063615716172 11.549549498217539 1.86269122102185 -0.9209688952622914 0.6046892678623973
Ni 5.175898064918872 1.0499611809868925 12.264458672115323 -0.2324272115596126 0.9047210659448612 -0.4144937112784861
Ni 8.003716331229286 7.661090297560066 6.793671614503605 -1.5797919688546147 -0.5416712722689638 0.6807674390738985
Ni 7.25866140389603 7.093724289089465 3.3369939494774505 0.16597216526017222 0.04429625081421403 0.06337974980822633
Ni 9.223557478115968 0.3679266653867004 6.769767385205238 -0.6524066285430183 -0.27035072607826344 -0.1328463292404809
Ni 1.3343442658428109 8.404350387329053 4.9830178664415685 -0.33151932716778393 0.26858566375804066 0.8294013701659394
Ni 0.3186240749956268 7.787772000198358 8.514225456544857 0.11572972416485229 -0.487391942100109 0.23056033355420294
Ni 4.170281587941334 8.375980677347227 12.493619961440203 -3.475153426415976 -1.5328176569876053 -2.910158391819407
Ni 1.7203377097691137 6.770221262976726 13.045632121239287 -1.9049894675694288 -0.18818006881577914 -1.616982461861983
Ni 8.93402480695 6.083644210839529 1.2431937690383326 0.5280521388236324 -0.033546982717509964 -0.4994884682533269
Ni 7.50764578139801 2.926214832464673 9.299387955648047 0.5015767182409233 -0.8906974979722595 0.7098941812365258
Ni 3.565656255165353 6.761669942644343 0.4778938257445437 0.5179955259185789 -0.2403688350041925 1.1831010900855043
Ni 0.340925166658055 0.5838531420125398 3.5396113766672976 -0.6817490862608775 -0.17606194539600645 0.22160620968470865
Ni 6.051675428673855 8.333214678630004 5.400231147225315 0.7969684464482145 1.451194644698475 -2.066530079420809
Ni 5.292346374324237 1.2291348345885775 6.3051177692150455 0.09880003828904921 1.3135364958916473 -1.2980607688535515
Ni 6.655013364872322 3.7026653215896763 11.780389101620841 4.954351755416229 1.1906300514726977 -0.6942315349986045
Ni 4.906024033462073 2.298547920067812 0.37339105304964576 -0.9331122154930446 1.1408925750382546 2.438383073210633
Ni 8.62138477677598 4.9110984433296405 10.338948475817487 -2.5680808295198028 -0.011450407928786733 2.022496852459994
Ni 6.6441503689336034 8.481603579035113 11.870817904577487 -0.6188480758612827 -1.5005960779497383 0.2553701935090312
P 8.694193161320262 2.9478844420102486 11.775699031315467 -0.059662705967955316 0.09191436691280945 0.3620871726523119
P 7.770453227261457 6.221376850522747 13.048726571552972 0.6347971429913712 0.07789671247747876 0.5749025235182679
P 8.399322962738037 8.72324885633974 4.935059054959869 -0.15301483376855582 -0.8455391562680663 -0.964184511417817
P 5.184524561693737 7.10446512330915 10.406533977020302 -0.5486772712731518 0.7347544348133153 0.7744954621566791
P 2.02313902303324 1.6942702783383132 2.853241059746928 0.12457226215714676 -0.400816985122342 -0.705929540161823
P 2.0867758815946607 6.562668502337903 8.605865539931001 1.2126957730234857 0.13645307275513274 -1.4668719462244155
P 9.202555059497424 4.362169457377869 6.934452658929486 -0.5603981592545058 0.5139606937275729 -2.1212989476315727
P 2.9271169497744634 5.747032292568907 4.146196935181008 -1.1705103979046874 -1.9211064277359493 0.36400958648600534
