# total energy = -381167.66041115526 ev
CRYSTAL
PRIMVEC
9.36057634660764 0.00000000000000 0.00000000000000
0.00000000000000 9.36057634660764 0.00000000000000
0.00000000000000 0.00000000000000 13.70014966482168
PRIMCOORD
 96 1
Ni 5.870494899665036 7.846456431018555 7.315907380682026 0.008086119442244138 1.045099441896329 -0.2996528174764904
Ni 2.622880332424952 5.4983839028773644 6.127378136048294 -0.21316039291020064 -0.2924403588884512 0.8714018829674413
Ni 8.890946996901768 4.247408380433912 1.7776081075809798 0.5632474557778429 -0.03752627908023214 -0.29314921203001776
Ni 8.43078105717189 6.704166562078022 7.797234775659002 -0.8325499430972501 0.6659393729221306 -0.3808821938716279
Ni 7.166607121892407 5.684022855617865 5.317041454740934 1.6008274493686754 -0.5790630826538608 0.1129040817905991
Ni 0.4611553526637568 9.18081596874097 2.294131270120697 0.324007592171771 0.21399960098204437 -0.11762257031219096
Ni 3.8531408991193774 6.323986748365065 8.260491577742396 -0.3596726496735483 0.45950704276438276 -0.17593441867920667
Ni 4.871206557601097 2.513848337592291 10.421841198386764 0.5769272672577807 -0.9161501337174094 0.3213349304356144
Ni 6.290298033615516 8.363787411308449 4.602949284737655 1.6413266950343024 -0.48522630190735794 2.5790872079326355
Ni 5.406388157237307 7.075940578112432 10.06322628076717 -0.24320039091571666 0.18298206955460744 0.15172953929822902
Ni 0.979340953586225 2.8301328562565073 0.3964222860201039 -1.0181709929366012 -0.7682080864860705 0.2589517402127024
Ni 2.185750771411006 1.4690769544146938 4.702453148771881 3.519926102645977 -1.2427920781882338 -0.8371789572288292
Ni 0.2697998958672558 3.79823175749091 11.741822890636742 -0.6407826711508448 1.2606787286606678 1.664461738389869
Ni 7.010753523509526 0.08581402093302758 0.9429357995423389 -0.08936408968712997 0.7853190351347443 0.22920587640883752
Ni 3.585718589677903 4.04829955813948 4.558423830597844 0.8771760664470571 0.6422307164512809 -1.7246360938869203
Ni 0.13505814167613062 1.413362803208993 7.729611162998494 -0.8495153673069952 0.1191865723652012 -1.0136905885677445
Ni 6.318716743807133 5.934802060078872 8.141697437699314 -0.2810462581188966 -2.519235782992642 0.847851606451327
Ni 6.5745412989905665 3.287387656701276 7.505462798621528 1.1482060779805323 -0.8775828149671725 -0.11454470271781564
Ni 9.26848712804752 4.745100871269915 6.753611935215433 -0.5429761071233165 0.3070537379262518 -0.29252931905783164
Ni 7.240471430891766 7.973938122092216 13.029403883460741 0.09587438000182198 -1.8772362087155603 -1.4195564489679036
Ni 2.0626872724356455 4.156751197230416 10.491204942214802 2.9407946286480255 2.126668182363286 0.27719140314918067
Ni 6.433505493174657 5.39745816727591 13.281487016225338 -0.16499746005172874 -0.06754210871603207 0.8531915306070015
Ni 1.6400946866942887 5.156647976765518 0.8520436658692084 0.29915530901478155 -2.3650400415421076 -1.0337634480582196
Ni 3.9996807239052043 2.0733489690457416 3.075779656633832 -0.34922265798481794 -0.18554854473020302 -0.8581064514101157
P 9.295024362366767 4.382537662491286 4.4022145303087425 0.034093342139283216 0.42002595395062503 0.1624358699721396
Ni 4.627045280711061 4.746692169271422 10.315021107776198 -0.5501109183958849 1.4308708455394585 0.012643399795623388
P 8.005296053298382 0.05106288075306064 11.560843632867712 0.666088239795169 0.3790896207475794 0.44846595445887283
Ni 2.7020427277116807 8.333047278149927 13.535802646480283 -0.7154215388126582 -0.7849876199372545 -0.8868673255928919
P 8.611234250542772 8.357806002938078 4.630102444989251 0.03008242120767722 -0.6568718634032237 -0.22397599546846586
P 8.724834206697405 1.4823034489801599 1.2746137862270144 0.9124230625748093 0.1307336537728523 0.49686568591849906
P 7.303898697116535 5.713386984033907 1.8793865916997132 -0.7578645384682173 0.30828786744366904 -0.3075021383175801
Ni 7.537875666796927 2.950996619759196 11.21468202619638 -0.8873316668238203 -1.1896376056524416 -0.3771746631130537
Ni 3.7345143133952776 2.72684825538223 6.222182990689837 0.1359951592821077 -1.4259721226862603 1.019131814187974
Ni 5.443849184308076 9.005585977045621 2.6371963980926267 1.3349684405131783 2.1802242612128713 -2.3896159311092586
Ni 4.376078864720464 0.3007805958412993 0.6223238863716718 2.01476271704053 1.8407586826148168 -1.4593105889373899
Ni 6.148157679775031 2.1762404257078822 1.8426837713237805 -0.018764167981380586 -0.3991267419041126 1.6752953386702631
Ni 2.1051936502288386 4.102207118084646 7.945291949892148 -0.17848521012551843 0.48274055937102667 -0.18423496812510207
Ni 3.197329550392465 2.2514432971438025 8.742805577480306 0.18477181446517854 -1.3164703817089909 0.13830169592809727
Ni 7.8111764182674985 7.845492291641171 2.6150165121245643 -2.3076828437788772 -0.3878992486194094 -1.01041011804426
Ni 3.172233844851053 8.011773572222163 10.665635540678805 0.16897264264939285 0.23740898104492017 1.4707350287242478
Ni 1.1627427285481353 3.0275661353611167 5.894516947084254 0.3415893098092762 0.42948144293657003 0.08122886217450527
Ni 0.06866170059207904 6.5702354338100175 3.3456450765364436 0.32887443334576905 -1.7322997810797651 1.3741883052457495
Ni 0.10785443431154614 0.8782860420293531 5.176587876782047 -0.7640804374709422 -0.31224325254699126 0.9420475703094614
Ni 7.101991062454748 0.7096309192531721 7.033355571476811 1.1701525003446362 0.36172593265815123 -0.22102514037025806
Ni 3.8205099295120064 8.910342111367193 8.760410013665213 -0.46579416132467516 0.5610710169518145 -2.295783007017498
Ni 1.2386382826435351 6.35944461206923 7.917412408905747 1.8914402681300848 -0.27556183796555767 0.03548225206700986
Ni 5.044966938789171 6.198349090857854 5.742240024974171 -1.4052402894555476 -0.3879879516784737 0.2985688403836922
Ni 0.6984824726661443 7.048036699627184 5.700673449059514 -0.605466512348054 -0.5239260324704009 0.47199283393621944
Ni 9.258284099684916 8.522102841305427 0.10661134975507484 1.4164713822846766 0.26217178981189687 -0.1174492779591203
Ni 0.7476863429303857 8.619153298244388 11.403264880239668 0.0958970057096413 -0.13803455830963968 0.2680454749838545
Ni 0.9063331373347362 2.748461826473285 9.439348538699909 -1.0873033289578888 -2.022796128867968 -0.20895098281454333
Ni 4.599993214685444 4.100409887400591 7.930482581844006 -1.2067729797811475 0.49560970202421095 0.4180500611711768
Ni 4.934661905555304 0.43786436626758335 6.534176621095872 -2.2096500226731557 -0.023193664507643926 0.09898952859203597
Ni 7.001542716253745 5.219925473766615 10.849148706500822 -0.23151652681988513 0.608845713232932 -0.24111574047254603
Ni 7.565236631846367 0.9144730946412681 9.574103397698106 0.2965813776400183 0.9966128071498513 0.17361862606183648
Ni 9.13463088439135 4.823355290638136 9.410687389577474 0.3836751832357328 1.530357882593203 -0.22202607083094664
P 2.8625017297224535 1.8655348106254195 0.8686540088319966 0.03708559199838774 -0.44074261767268613 0.5627620315009921
Ni 5.168957134835997 7.426700099950472 0.8616625942594937 0.2837176343034727 -1.0685790130755082 1.908756647921345
P 5.4788390191882685 3.722233237054236 12.17787130506731 0.8664013444290564 0.09316109483571698 -0.8688086683189682
Ni 4.050611620529905 9.042045422433088 4.168298404375468 -2.058099175044636 0.2936747455161846 2.5726836183991373
P 8.107887971513179 3.0847966999564886 8.98813411825733 -0.056704651780895884 -1.2050611392963633 0.1557512588631124
P 3.4326170007799797 6.094062908300276 11.652662463612309 0.7274931252652116 0.3499253404787973 -2.2092841546933046
P 3.509907280770818 6.137477262011975 1.9410231796439632 0.2727837609997883 -0.28870608865699954 0.13402800825340788
Ni 1.6742607908442897 8.454641166618012 4.198808267352595 0.4672558334718662 0.2991419392783428 -0.0661817380333957
Ni 3.5429501157432846 0.8546674354563989 11.881961953225918 -0.3571385703977849 -0.12260665379034369 -0.014938623587703304
Ni 1.067096358081091 1.6587783973472756 11.584983623550574 0.42031186062215997 -0.6325104038397236 0.5007753053855505
Ni 3.151453365066669 6.380814808171819 4.069889727789337 -0.6111226821925668 1.1681228715091172 -0.10064300503505894
Ni 7.291252558292795 3.778780479566608 3.47134357779077 -1.4559640410626604 0.6757355330769459 -0.8048339652392204
Ni 8.809753356518998 5.995954706219135 13.546461534917436 -0.6710281002989477 -0.06088757951399191 1.2197272259489702
Ni 5.305593469706564 4.582619984739581 2.019416135544081 0.1599565551937116 0.4647806324584963 0.017682504881427613
Ni 1.3949692704268692 6.58336832261069 10.211940567469172 -0.28362893124440836 -0.3603974436547148 -0.836344634252992
Ni 6.091282817085879 0.7518976662884913 12.334559866872162 0.3084824999529784 1.3515908795612077 0.6375294543208697
Ni 5.874594832163035 1.3938740829787735 4.731798556034965 0.4333751215640214 1.5284753208585093 -1.1645043009199236
Ni 7.39099886125784 2.447388244588179 13.63543007012404 0.31815010494972945 0.9989309137600667 -0.6253946187305487
Ni 3.903968829402804 5.520802483545653 13.588644036764439 0.4610661597213866 -0.567260690702294 0.41911115544583943
Ni 2.4963346989992354 0.6129998161404894 6.844526534272115 -0.8089757553217358 0.7725766478674113 0.23756710388933924
Ni 2.793804458939752 9.185280963721668 2.097808155386551 -0.4461051675361801 0.6697469195936788 1.0808758281649902
Ni 3.3215537608512773 7.886791155068515 6.256954724138057 -0.24591933250877648 -0.6206735591057956 0.11450819305292537
Ni 4.56654787492436 3.103686343292023 0.313348105822612 1.4433514945049721 -0.7060655515190549 0.9275195518966155
Ni 5.053690996068021 8.034098547125657 12.525184262645617 -2.0695971483819067 -0.32971389852792893 -2.8214867002136117
Ni 7.988390852176491 7.655575555449562 10.205611881711416 -0.42914874218749965 -0.3298594229668577 0.04826937652934913
Ni 8.049066108916302 2.877722027078043 5.367403228315683 -0.015396279950412194 -1.3951561657466682 1.6869866589652625
Ni 1.5523767245053404 7.10144814901894 1.696270314320426 0.46471481221756733 2.176280960294407 0.07219066323163696
Ni 1.5378116675033124 6.255869833324089 12.52696464429201 -0.06201320847800288 0.5184403267654814 0.558916689612973
Ni 5.262722029430672 6.8376203009455745 3.222370964590296 0.6992428721702667 -1.5809695341024836 0.04081394869256842
Ni 5.458358077851227 0.16891160257171806 10.222064966989349 -0.2164272365869305 -0.928438464166459 0.6753781497375272
Ni 7.984393886019764 0.7710288124971961 3.2437711145376196 -1.8313782698411816 1.621665469159949 0.8423304195227816
Ni 0.8385756684305723 2.4062204292315474 3.2599920575188626 -1.5413223520245067 0.5900013268329194 -1.333937942366135
P 8.320485384514502 8.758391873376244 8.318470988456124 -0.19815954862599422 -0.07680759317835803 -1.3598232947733289
Ni 1.1077212600019144 8.725976197027899 8.39554784730323 0.3684635084923009 -1.5644951905965443 -0.29258665465832834
P 5.358583693156744 1.4056777699193628 8.45539001273637 -0.2646115096016411 0.3968055499701037 -0.5168305590762002
Ni 1.658169959876111 4.716794487996051 3.1328950861385065 0.21557851543339004 -0.35050923800672534 0.6815343991469102
P 8.970437012365277 5.990834470884875 11.394757052277495 0.08142863689013718 0.03845624709366925 -0.06278248254385962
P 1.9598332580794229 0.5758514323241346 9.855887639632003 0.8305732789868534 0.9779954491589801 0.9905414041447907
P 5.873415399526624 3.681861070698358 5.465715490964076 -0.6922155330098401 0.6558102549079287 -0.9657716533992786
Ni 2.7689521283868066 3.193735089024355 12.654321839698492 -0.5707265377637074 0.31404071076704626 -1.0887961114533313
