# total energy = -340859.4337360594 ev
CRYSTAL
PRIMVEC
9.37142408241889 0.00000000000000 0.00000000000000

0.00000000000000 9.37142408241889 0.00000000000000

0.00000000000000 0.00000000000000 13.71602642268644

PRIMCOORD
 96 1
Ni 9.183011601856766 0.6679735543641574 1.8147266051342978 0.9775136244265553 -0.3363709988331304 -0.9071726128091473
Ni 7.198565695151273 6.557485316478234 2.2633910302494114 -0.08962017156199405 1.64386180275133 0.5515525359384179
Ni 4.006283795502342 1.0366200749461791 7.43835232316418 -0.4463249968564701 -0.07448048770707819 0.7786485650931041
Ni 3.5646179498924475 4.694867922852343 13.153381288845647 -2.2015888429315758 -0.41094636024686 0.9211956665611168
Ni 4.038268465897779 8.487239592235067 3.2696945482869353 -0.6397773698147821 0.22837258187426474 -2.1675386953254026
Ni 4.611171734366655 5.438443566721661 6.430896119964442 0.41297213242763714 -1.0812337257250413 1.056653979503148
Ni 2.3612802405088726 9.050668350955984 5.08793262602515 0.20602198209320646 -1.0361728288306606 0.9133838838261817
Ni 6.727379863679781 6.012968091556904 11.094990160412877 -0.7122734801019797 0.22732948532173106 -1.0304467249801608
Ni 5.793358139594795 8.173156314091766 10.257845532786382 0.5421862642321694 0.025547252341485034 1.3927658111376207
Ni 7.823873967092544 1.05966440676639 8.98686394722897 -1.984453781644344 -1.8511711361973924 -0.38011291980577117
Ni 1.1320961435042558 5.939814755164644 13.195736377131386 0.00731298872164547 -0.1598529397363118 -1.1677387486968211
Ni 7.377400580928047 2.0755361487927044 0.6709808443524069 0.45084756731717196 0.6226365963694374 0.6858821345926446
Ni 5.671042312462872 2.476211385463354 6.386223478502968 0.13596764847828197 -0.4865524769179491 0.4042139266190329
Ni 2.141867088452507 4.756494407622457 5.917532320122384 -0.4107221600511959 0.2569771329848348 0.4982443114335806
Ni 3.8144038874019666 3.5587795526887094 2.061889481042972 -0.9592914449915738 -1.3381203558785988 0.4253620214515578
Ni 2.8481819501676324 6.804009998406851 0.8813796235832903 2.70948070475725 1.5072184683622623 -0.29736376433199757
Ni 0.5734946053285167 4.2858427473236995 10.725260303206856 -2.5429043302541756 -3.0858441848229177 1.4815136073969903
Ni 1.3987412729391755 8.459903148184821 0.3868139633094154 -0.8655837336237673 1.234552720997577 -0.8618108968448963
Ni 1.9899469326422417 3.8530516403204498 3.715315134859875 -0.2825464968135069 -0.21246696638760185 -0.4686871666017541
Ni 5.527537695479183 0.704628942522585 0.007767973422437172 -0.05409601051345522 0.9709863648309985 -0.5110527760521585
Ni 3.1079578257496787 8.649234028934607 9.092491142353802 -0.16114826150896766 1.158159075428186 0.7897295054976141
Ni 4.55538364680028 0.30344671180904287 5.278160352059685 -0.37314985822437674 0.6534582097359842 0.05544172590807226
Ni 8.317523102091098 7.788262555576968 11.466831399464809 -0.399837394817892 -0.6717166417255399 1.4142509775945902
Ni 4.246557737567569 4.935741636058886 4.165584884920415 -1.3199506269481074 -0.33955685276027975 -0.38467894190989876
P 9.031531902978402 2.2339132157961887 10.16258781840944 0.8676354739464736 0.13311886617557717 1.382715111769838
P 1.8009909088557765 5.286776439361638 1.6127443018723984 -0.19626850225086845 -4.145437192349732 1.3325996831706857
P 2.9898872537273773 6.76573710245169 4.482109419037348 -0.5652539446849103 0.7712998380375169 0.7179939275255247
P 5.482170631493155 8.897286252988764 8.45940083985397 -1.2542717966930592 2.3869944343260117 -2.0660045459346414
P 3.678874352312949 1.6006486048084105 11.05078327872833 1.5147291749170106 -2.3937389521386967 0.10563325916079873
P 8.984412382688845 5.959232345864716 9.722111206515686 -0.8906453045780854 0.9966940540097479 0.3158831632924237
P 5.089095619753857 3.185506360036888 0.4148223384664163 1.205256543136621 -0.29688013982735967 -0.44739431866124885
P 3.993032601848914 4.986797154463322 11.059698314458531 -0.5382478484097117 -0.00518025864935882 -0.28844383613454844
Ni 4.845972764767383 5.534491292148803 1.9551648921580147 1.1303379394508597 1.3693965402840609 -0.9237356593741509
Ni 0.9410128064509395 6.643768018010841 6.110448707726345 -0.9558050291048699 1.2692507866003946 -0.48246390867087235
Ni 0.12317799814756206 0.10755114848908218 5.221568196306984 0.9112827783227788 0.7906304200453287 -2.7151710702738074
Ni 6.863209284339456 6.105829532795811 8.728988596450966 -0.16629226760375232 -3.524938211148587 -0.862611795479637
Ni 8.621213470926298 8.80416241187553 6.937401911662526 -0.530920204400047 0.9829453369650878 3.7927923960572425
Ni 5.172473179820721 2.5356918141184495 4.101503087040543 1.4138735396505135 1.59465474489906 0.0351444091116169
Ni 5.822278354315077 1.264186365954795 2.3433695748013545 -0.4040887138950783 -0.5792751986646668 -0.7522536200393432
Ni 9.374891509957141 4.028897041814733 0.639997042049039 -0.3653290766283772 0.17554258255742672 -1.2593304421628893
Ni 5.987355989537939 7.401278969491649 6.992580856663503 0.5203758532252973 1.2607602326308802 -1.0810889726170607
Ni 4.387700755682331 7.000603732820999 11.517278712446256 -2.304275360759225 -1.1416687910826466 -0.29488882042894377
Ni 1.1788689211027403 7.252985554801523 8.427167826720332 -0.5554528994340885 1.5655454862379297 -0.2097148575637614
Ni 1.517149216228467 1.4028740709597989 11.41140504886804 -0.8025960770476371 -1.294756129960351 -1.197140084677074
Ni 8.017159588805375 1.2191004446912588 3.696016561245658 -0.9421540139803387 0.23131212411856292 1.3528535483237152
Ni 8.389317581991316 4.746495098125846 6.638200454963104 -0.13909899501841205 1.6347572693469008 0.9027683130938646
Ni 6.534637784563766 8.66459379300672 3.475901489525472 0.773393487341752 0.002718427372427577 -0.144671346899867
Ni 5.637661299879062 5.448039904982701 13.113206930944038 1.1781967108053515 -1.3722167833416754 0.8642609010472858
Ni 3.8743341444130484 9.113353806647481 12.488483435865547 -1.095779741860016 0.508822344059743 -0.6108023227386706
Ni 7.213100773904078 2.2869367332580652 12.146556719629109 -0.07328029675138992 -1.7538649088450504 -0.8936205851563255
Ni 0.9411627492362683 4.96365910840228 8.269323993747173 -1.6167798589328735 -2.8203104205173237 -0.7025647374546481
Ni 5.175940606731448 7.249499385042629 4.782408269496897 -0.01698213638029333 -1.2572306222110672 0.8198504932527106
Ni 0.8978723928270436 0.8508915696139153 8.895227351117718 -0.08122629107134398 0.04161021934161866 0.39320523421335507
Ni 9.260625736112555 4.729232934964874 2.9478208053033983 0.4068899307892992 -0.2738176015809413 -0.48931384171317027
Ni 4.959460710413075 4.283087548643284 9.294733971205211 1.0704273791381567 0.12038059267330237 -0.7289378281315381
Ni 0.9690239930351652 8.368906620338441 10.578513173490432 0.4705026225439381 0.0395052571834739 0.21040288476972152
P 2.2269502477024856 7.719251388629414 12.19051619571786 0.034937178196817256 -0.24704470436247133 -0.15804031200760524
P 1.7311175708925826 9.178447718328322 7.262855538645788 0.5407757570378879 -0.9842709977550467 -0.985587145463309
P 6.543746808772488 0.27658539895980694 5.499550874597573 2.54660054815884 0.3800123896721649 0.28351554559499564
P 8.066940593534518 2.988303483057342 2.529372662859251 0.3004352041684697 -0.15043138931209576 -0.22822525766312307
P 1.1897678873113233 3.01601478407091 12.614217958502964 -0.38235389332114794 1.8651445676583491 2.104190312975744
P 6.261198372668638 5.265372106755959 4.444006145858091 0.3894012870862326 -0.23234185093465792 -0.27130923333679086
P 8.786675334536566 8.12483725151958 3.4054424375570873 -0.7447922786652915 0.07652991403693916 -0.3966687672819233
P 8.405305231476992 6.555629774509789 13.480673589234003 -1.1289698554587395 -0.11301309656463762 0.3016593063835579
Ni 0.29966815361875854 6.7122824994819945 1.7340489523457596 -1.8157068818525117 1.1287022036196497 -0.7477662736919508
Ni 7.78848746975496 4.572598952840837 12.382060606836063 1.3630752260517234 -0.07759640762824056 1.2751260144342493
Ni 5.034001017569627 3.221886228327274 11.835723451357808 0.9009698264325452 0.5091203349161361 -0.2806677917335554
Ni 1.9718600841619618 5.714394520271045 10.223980954719886 3.824001988890827 3.1291623879945787 0.594517212425402
Ni 2.7260816657896205 0.7871246515832343 1.4586715299502575 1.047500595138654 -1.404363029056917 0.546392331893717
Ni 7.263687721104362 8.829643313957334 0.9647674922166456 0.6471741764994855 -0.435235828921844 0.39466099282327516
Ni 1.451118162139322 1.3268905644944586 3.6735223320191213 0.36211056969107963 0.9478541496889097 -0.9906416771680809
Ni 3.4870600441811552 3.0064934172025355 5.525281993702393 -0.4987652169340571 -1.6877705883191383 0.911879017145881
Ni 7.891891763087295 7.910522154164391 9.165912501474839 1.8967840489405012 2.121234155831908 -0.40184156973211443
Ni 1.5958129499815585 2.653893586077914 1.4206376053092133 -0.1904575519960462 0.6514100689577038 0.03267100787045986
Ni 8.18986556323184 6.12600620884661 4.503931717157131 0.1910756451960193 1.3619686232511061 0.5238900370261429
Ni 2.962588295373463 3.125979074261377 9.933543653822928 -1.1142279212628747 1.2266218961862745 -1.295946036503394
Ni 7.14362103575237 4.595080999216065 1.3626828444948378 -0.8104523398672623 -1.6891558987024393 -1.1482819255237902
Ni 1.5361450928448022 8.23874691124901 3.024424700043036 0.4275662281917282 0.21268756703884018 -0.33028416920910214
Ni 8.002568281508074 1.7609186994766701 6.287357765854054 -0.13213541921638533 -1.2332437723781664 -1.233962652822062
Ni 3.2965389925728217 2.1021978503089715 13.07301945304871 -0.7569394555507867 0.330139930321754 1.640406240102562
Ni 8.22305914733399 3.603443759868509 4.782586326554474 -0.3386145434516684 -1.024190973878436 -1.2561263334032948
Ni 8.753350550497252 0.4920531814772101 12.836239177881641 0.10262198313830069 -0.1557368606854092 -0.05868517254603441
Ni 5.575172644093308 1.9592742616184307 9.823583112202096 -0.6598913669558378 -1.23255548806189 -0.27651854545187216
Ni 3.4339802981747805 7.6727691251775045 6.896541565518036 -0.8198345524131107 0.3899682153332961 -1.8051746148626202
Ni 8.614484788434671 2.9341085375850846 8.006291548296268 1.0896049805078718 1.3087560437838686 1.2978406824229454
Ni 5.7946701389664215 7.648684565284074 13.149856696248014 1.1467035252930768 0.9655381972322338 -0.06652549452605962
Ni 4.5030723575687155 6.784273779287957 8.701351329687654 0.2094603183507941 -1.3224505105518256 1.8271611464360407
Ni 7.40469953928196 3.5694536047192993 10.207233282741074 -0.6251454788342201 1.1088993099611097 -0.9053913525390085
P 4.906559021464278 7.702926367876747 1.3318133735652828 0.5369072752214172 0.07524256268408332 1.2385631277085507
P 8.07854241654933 6.934385250250194 6.6568261603281575 -0.01086548195959419 -2.5445454654020243 -0.29507111164307886
P 1.9581215764562159 2.39849416554265 7.712809471714728 0.58847511999638 0.8720336030141692 -0.4132662666292883
P 3.6619964175393824 1.3048302322029675 3.4304332141593474 -0.8420301146735435 -0.2482202127278112 -0.4399095802484295
P 0.9478633174556464 2.585744590146 5.44601661452317 -0.36549182745848663 0.4423863239236962 -0.05829179376235768
P 6.6614237809833 9.214883815163205 11.832253213019854 1.0998256297946156 2.4407505450015448 1.7887748333483582
P 2.7915223201615333 5.731562969191187 7.866333078185602 1.1807534157889341 0.3616050908095708 -0.5771116153544448
P 6.303866466518747 4.149010584287139 7.486755728553116 0.8427263694096196 0.41516116965915595 0.5918604915288452
