# total energy = -381176.62913524744 ev
CRYSTAL
PRIMVEC
9.14279732064462 0.00000000000000 0.00000000000000
0.00000000000000 9.14279732064462 0.00000000000000
0.00000000000000 0.00000000000000 13.38140804687955
PRIMCOORD
 96 1
Ni 3.827074380514499 7.152300617034673 3.1725177502771484 0.6147466520983994 1.4747539200756536 0.008198733760708461
Ni 7.883916400065642 0.6834752981086214 8.985909644704433 1.8358725581671091 -0.8607490312392853 -0.055119566681963134
Ni 4.579599740978791 1.4970416304906342 11.69527065489634 -2.163512861995461 1.54802316108345 1.6466100549204288
Ni 8.776756270748205 5.906329343298059 3.664338074188892 -0.5411966466253906 0.1512914233195459 1.0892679088834272
Ni 7.103231223906278 1.8076773116775757 5.563079475569733 0.36696326979769056 0.6382807306645976 -1.4615767592637474
Ni 6.172320745251546 6.465658253940085 4.787493237466585 0.09331998901108443 -0.32153984735756885 -2.4346670578116263
Ni 5.960253561794661 0.7719172335452166 10.256808755289299 1.1265270503452018 -0.24034492374479252 -0.9582246942899562
Ni 0.05981309423984841 1.0168802017004355 4.253802559023297 0.9800366479587251 -0.6620012142099889 2.456966492639775
Ni 4.68430305569956 8.28470006266603 5.172248662114039 -1.3560355455961226 0.09685679851974932 1.1853268940922295
Ni 8.830570775677165 4.998550141821421 8.035133696068451 1.913247850923479 -0.5269671332895699 2.0381813530747865
Ni 1.8830139614591979 5.43199187639025 2.9954418806605827 0.6351043898191449 1.2101226129796707 0.6612054577815709
Ni 5.230886906900375 8.36694866720917 0.840423299461323 0.49975869119557803 -0.47913921517301356 0.6303964428205142
Ni 4.484825504129725 6.517187059543146 8.596417336773987 -0.8194990234505629 -1.503650548505346 0.3595034710855357
Ni 1.1216109448131155 3.1768386362828274 9.31342018687462 -0.4411048861081113 -1.632516295831524 -0.4405518418181187
Ni 2.2184266233388814 9.109160952315007 4.884012834320906 2.1154998244512924 0.492042810608559 -0.2960463310721546
Ni 3.6532515181785525 8.681159182141817 10.66835440459575 0.23032610605620976 -0.2993897936230908 -0.9826213779667656
Ni 3.957532955239495 1.741017176537065 9.28701853110103 0.08177290760343336 0.7212620567538351 -0.16065718080516203
Ni 7.986425443433548 4.988995918639165 11.190978641182763 -0.2825071589351393 -0.4204427297730694 -0.5163618469698977
Ni 1.2458889885608815 6.18970120292568 6.9319838875707545 1.5520811332029076 1.020221704818043 -0.7251431369757964
Ni 1.8044773326213175 5.5717029619864835 12.566627694754645 -1.1332592268627129 -0.4124805375031993 -0.8248114368024118
Ni 2.9816947706348973 7.916675042804423 7.000938864834468 0.9399770609336779 -0.1203808497836185 -1.4405808737383705
Ni 1.6898175116369332 8.227045582869561 2.7321220040792054 -0.14645697804538002 -1.3982157785085982 -0.07007773065369222
Ni 8.412095800294322 7.630212917688186 7.914139745112136 -0.40958393268169463 -0.26760298812979716 0.6284429186385693
Ni 2.224817438654094 1.7278881196091025 11.095100868699154 -0.5843227883909033 -1.0847630790345382 -0.9533773934999838
P 4.806286257324124 6.207365087316225 1.2078256948265549 -0.5766385323727682 -0.7806113452464298 0.6038613726444633
Ni 3.94803358884106 5.875271260857746 5.7327560793284995 0.5454988735451702 0.5863344195042934 -0.6117667435344689
P 2.33604871064963 6.87436872180269 4.797047460648841 -0.6629944313611937 -0.1122062843926261 -0.3020017773246412
Ni 5.34460501976249 2.236949930675965 7.293067695719472 -0.10221343484597235 0.3484641825522386 0.2247308713566194
P 3.754937709789135 0.6992603376532779 6.747989663234558 0.17802806798344178 0.7823887488618267 0.9277095564202346
P 7.756127522153296 8.475848525892289 5.9061519730303695 -0.14735043639392686 -0.05586441526778766 -1.8410052514079842
P 0.9693742269109562 8.538933827287094 0.6114364553144057 -0.014764817014000379 -0.8146866896635842 0.016045226388320753
Ni 0.41465785750859274 0.9274636440712771 12.531434325093919 0.0772703917473895 0.12753648699179326 0.7073888983161688
Ni 5.961615838592897 7.176501601497288 6.910185630239524 0.054418683960196605 0.24108025924892024 0.364146883394818
Ni 5.823084173848827 2.3035826374245647 3.20558359100533 0.3994090490312218 0.02833381394768669 -1.4474104950656943
Ni 0.43669017045079583 4.445630332089214 5.663988529409511 -0.8605641689219888 -0.11073124250899638 -2.2640496804699586
Ni 6.812353127692406 5.719788849912811 8.701127051452868 -0.5743656771781915 -2.387352074775747 -1.344497463049536
Ni 4.518589854571902 1.622901378171922 4.968463024454751 -0.8435576070616633 -0.0977101476589801 -0.13199786519725654
Ni 0.6687709372052496 9.042189962066173 6.800484862512609 -0.05466808096684134 0.8767469493294385 -0.26521083374853677
Ni 0.15230528888193617 6.451852630011657 1.3265714319259156 -0.23386625799898433 1.0428139882962622 0.11342421596012724
Ni 5.8341103873969615 4.113938788712094 1.3977279947803343 0.11212837996683914 0.5470636469291288 -0.25858535801221916
Ni 8.303497653922221 2.671004232664134 0.38717918021263814 -0.22509956754994784 0.08450753292577703 -0.7705053671606795
Ni 8.010068717260644 6.195772020335267 6.110766862405092 0.49613652106195844 0.009399181826712845 -0.46546917388508874
Ni 3.616936327288673 4.353690362404263 0.2820415826199483 1.1223423228398928 1.9688338157188996 -1.0258395652254526
Ni 7.7130923752452745 8.532963580647847 0.34265650018332194 0.4000266280105627 -0.004352620541740891 0.49540709909510167
Ni 7.9169858979127445 8.766104911889517 11.231564432693151 0.07710866935854462 0.09234091292726677 0.05360441558901736
Ni 4.76245568705069 2.17399262844341 0.6502083158397608 1.141819714838214 -0.8968822866267327 -0.009748337636015469
Ni 4.775904741884278 5.134905820807236 3.2648225175745123 -0.2788739330579262 -0.26060110289066735 -1.29626639595729
Ni 8.01679781607609 2.171560644360654 11.051383669112285 0.3578111709847773 0.5716788743746477 -0.4813717040479581
Ni 6.192663469252045 8.979964083617906 3.744680405494232 1.1567560244330721 0.30188530635143496 -0.7762152730612631
Ni 1.1836448245180071 5.147788022208001 10.3544931445201 0.3951867834197581 2.479093149335485 -0.7105135599880795
Ni 3.021603080865089 4.486196923725265 8.51036167143363 0.8404686837236945 1.1878131508491931 2.318091183596395
Ni 7.295677964349648 2.8110353161659942 8.802825128699945 -0.963416522903541 1.287958390312227 0.9894813383113925
Ni 8.820339985494442 6.913426751883647 12.284239600116893 -0.926258940016637 -1.2951639069217307 0.6689051404186738
Ni 5.042526996851713 8.647376546105034 8.524799976935467 -1.8132087980210065 1.6555598079145488 0.11469794046622829
Ni 7.225625851409504 4.045148381799845 6.8846808828814146 -1.607632645215967 -0.5918700046105418 -1.904409683806559
Ni 6.180567548419389 6.11711653513244 12.977409920486247 1.3803769505549648 -1.6566586974056823 0.8719520990439563
P 0.41097331019524397 0.5504421116629329 10.22664758126447 1.6899583399990765 1.1206564504970378 1.1029014405064619
Ni 6.776906502546368 6.793720106787679 2.2568949429937573 -0.5253223985972952 -0.706589285233009 -0.005020336032726838
P 6.4367030148796 0.878017567693975 1.7248764821772986 0.20157885872018833 -0.2798743492979825 -0.7706992283390405
Ni 1.845674777271316 0.6201449697460799 8.68406567740463 0.5279798908248003 1.1689039726495158 0.12868139922951385
P 8.67177867210833 6.7889201382032915 9.787496169779546 0.6342942352130237 -1.6372293850364772 2.037863307613735
P 1.652926324516928 3.8241121141881345 7.145484661644843 -0.7273463152747022 -0.5684035460574856 1.9346926510608164
P 2.6331713374218584 1.8083264502861307 3.6493512008488387 -0.4463121413406636 -0.3270672049337013 0.5214857984600245
Ni 1.4448545434817144 8.007463020029121 11.521914075222877 1.0723377087869919 0.7460598325238054 -0.7172321096588357
Ni 3.256490686391747 8.96051735375316 13.042939091600301 -1.0624531026834283 1.5217045777935791 0.5433473744198063
Ni 3.653452659719231 3.635651633369132 6.463273812403308 -0.030386582711657343 -1.5878917151436136 -0.7068731350220148
Ni 1.2956989482708667 4.323116848221042 1.026904364664097 -0.4877446974538375 -1.3494812894173727 0.10310277942946115
Ni 3.6195968813040196 6.834990693816106 12.352404639693573 2.213583296289291 -0.4576784741960763 -0.03204494425068675
Ni 8.265920757004446 1.8558415678729137 2.53665996908511 -2.245339505654965 0.4917491906275402 -0.8620255839588639
Ni 5.795070642910612 7.995897381440074 12.04598378806359 -0.7960179096094872 2.418309442389209 -1.2429129200368143
Ni 3.32277596684281 3.85670618657545 11.254058456899186 0.11982600572141297 0.32271304173006354 -0.3866152397006632
Ni 2.5355536906113754 2.2232631631124833 13.360398956694645 -0.7034178294835628 -0.05133361727696966 -0.6274239904557517
Ni 6.513319656283726 7.403965255613427 9.950749958432539 -0.15941353820604803 1.8783060447409718 0.4193335558692907
Ni 5.487004087765981 5.318849759758262 10.762880871637886 -1.1485588333342607 1.1350564279724515 -0.3889526295845882
Ni 8.452296680038229 8.420452317029806 2.727211407647445 -0.3268980263456886 0.35263811142427015 -0.11913874984640126
Ni 9.070112065031353 2.377072442150861 7.089336000564275 -1.1178336363362618 -0.3394655785980541 1.1326976979322878
Ni 0.7089681598302351 3.4795840833967664 11.976748126922658 0.144575444751951 -0.3558234511307872 0.49326202772764083
Ni 5.659373245330657 3.866488979690297 4.8082611015417 0.7135772865150678 0.5225677186702936 2.503196984362224
Ni 0.8517503110407467 3.353989476837283 3.4254395234851467 -0.45106791085809417 -0.6408834583947672 0.05396051337685546
Ni 0.36125752129748584 7.772575414502463 4.843386814502381 -0.8418254548619051 -0.5167937923009938 -0.23808800938981578
Ni 3.093840322360793 3.151924513630531 2.0100613585102227 0.08917768470793674 -0.6556433903127611 1.8858823144263328
Ni 6.618470968072371 1.269532262387978 12.668728055083083 0.23766069204441004 -0.8397084085189022 0.9863535913156886
Ni 3.830877784192795 0.4891341700639467 2.2138067678613753 -0.5908181663072599 0.6609036102704359 0.918784743126779
Ni 1.2853584445205006 1.1981087298522943 1.9177300771006782 0.23521634426897556 1.1594842219975128 -0.7807247308958425
Ni 6.170821326493757 3.694101536531014 12.337979134107961 0.18813790272393405 -0.8555307202631396 0.7666289149244087
Ni 8.048011326070563 4.3740422292020655 2.2156261845247904 -0.3654568604554932 -0.8184993785414548 -0.06824633387190827
Ni 3.0603959698242424 3.846310826041263 4.3150090155722145 0.16903126380147018 -0.0825565798469933 0.011237006366400003
Ni 2.6284079400266855 6.764655154159551 0.9980990674793908 0.08170065960460124 0.410598489989138 1.30586766649248
P 5.434661573202899 3.2503284410091235 10.349488377276112 -0.010195966696395343 -1.5433136714229228 -0.6588978926943169
Ni 6.629213754904096 0.3850479941611702 7.264900565786556 -0.14834442487608002 -0.48609559188618867 -0.4274214750837478
P 7.906133397513378 3.664378302497027 4.509119745124838 -0.37346430414100196 -0.42608321588829845 -0.8116443032928345
Ni 1.99586350857747 7.49273267463403 8.861877542204136 -1.1818011403271582 -1.75939843706877 2.5821321654065468
P 8.464493171641225 4.817275899683044 0.13042383209524244 -0.49463448259513526 0.388326308854499 -1.950260937812719
P 5.180345523406103 4.8256324164185305 7.142393481876497 1.5680692811010477 0.6643393754248623 1.5621035504359162
P 3.3123348923221045 6.326587164155103 10.401020839998093 -1.0573877723453788 -0.8206339083859544 -1.2424094980378344
Ni 1.8321434372619956 1.991694393007031 5.964976730881698 1.4482666724184026 -0.13415064987420122 -0.9037473891776824
