# total energy = -340866.5565898049 ev
CRYSTAL
PRIMVEC
9.19939986796215 0.00000000000000 0.00000000000000

0.00000000000000 9.19939986796215 0.00000000000000

0.00000000000000 0.00000000000000 13.46425159634861

PRIMCOORD
 96 1
Ni 6.8549602737242346 8.814138025910031 6.796256144512226 -0.9858460555516505 -0.6888844117540781 -0.09930783116340317
Ni 2.8274630914858623 3.9602679693379654 6.748013572622375 1.8327229567945338 1.7967933327774603 0.3838991263210808
Ni 0.8140236001961032 5.539446118721751 13.153401943544338 1.6722357259083331 -2.4118618869916526 0.2506905286451747
Ni 5.576924473039794 1.084995597687433 3.2285385189669693 -0.4603233680180911 1.6276103738894743 -0.06670907129177543
Ni 1.1299990609480772 1.258569870950278 9.652212536643468 -2.443927914288262 0.4319458453166625 -1.5439248226443603
Ni 8.767487870105711 0.4461570856390765 5.931622046947268 1.0803065859250813 0.6002386882902114 -2.609462734900699
Ni 7.753888813376141 9.120082461245119 3.9424671309468486 -0.04167475403096694 -0.5867897618741572 -0.2842683646006201
Ni 7.041238917952524 4.866703219133104 5.710714102483483 -0.4825294718014852 -1.1815116341111973 0.18597431941371195
Ni 7.0143306738729265 0.24318981044162694 11.881959352614373 -1.0754883386008318 0.18700970265676178 1.3472840246557376
Ni 6.307586793047292 8.542663741195883 2.0117477216876267 0.9798821246587318 -1.5901684269929324 -0.7074642316387945
Ni 4.400661631074182 4.443668824603109 13.254976195229963 -0.9590836998561418 -0.5133785959718578 -5.17232833876815
Ni 2.6220128983133413 2.8998071706113135 0.3112570886533674 0.14326932434601777 0.3635665854113158 0.2550110103973995
Ni 1.0862007190462113 5.540991617868887 1.7795429144102546 0.04242217371995275 -0.0183281088852265 3.3196214826525217
Ni 2.999418270404089 7.032554684649569 5.227442038813934 -1.2488169442260753 -0.46087306987397403 -0.859288644643675
Ni 4.899066707226101 8.483208021029581 10.988014127772013 1.1084246843175363 0.9017650686403308 -0.17158488346125933
Ni 6.49246712852341 6.2764376257127585 9.500267891920775 0.48431767405015946 0.6658599258344468 -0.2126898810316853
Ni 2.030574293143659 5.182454214532756 8.746229897312848 0.7947670679215215 1.4423256243436193 -1.3018590595537192
Ni 4.507705845812706 3.414274398613823 9.303797232781106 0.29642042658212175 -0.6151567430526245 -0.9473263022098973
Ni 9.13247405262126 6.376821475079101 7.952189233113222 -1.184819872548824 -0.4534322973252126 -1.0158706269381987
Ni 5.276122502128806 6.105770362750478 0.9566188950185927 1.9613519055195574 -0.12323811672675548 0.8491839521095054
Ni 0.809891229857452 5.676526373432884 5.350141791936957 1.2324220478078194 0.35351999980859117 0.7561719812571429
Ni 1.2441820098424188 3.6786467467708954 4.097979302867513 0.27918940741581594 0.05529208770408542 -0.6850861210539104
Ni 6.138869802818302 1.6127559582352473 7.897416007386755 -1.0657963081240482 -0.015016528013490266 0.693716800145715
Ni 6.65812991805687 4.145258697610307 10.413238395252371 0.43830315499325806 -0.9877954659685375 0.4905022055943166
P 5.795309022169892 8.326781428780194 4.591470979647497 0.16291795181488072 0.4425120508682831 -0.3491815203342373
P 2.5192280056291265 0.5839116563471443 5.943349441666129 -0.05611201250221949 -0.116183009652187 0.18656490180985935
P 2.9027693773099905 0.47305797019892454 1.685980419910585 0.7814045305716866 0.011054200931632575 0.3626057641599433
P -0.01369054661171116 7.035535290147617 3.965989076002274 0.7193684392755482 1.8270948119744792 -1.8049622417414979
P 2.772910651351843 5.265708781685011 3.8577636583441532 -1.052799381643748 0.2810562854212256 -0.3161747263909135
P 8.84845178673632 9.159649079291732 7.879280310847092 0.6887679407808719 -0.6964815073750457 2.7321789176857134
P 6.110977222972376 3.326843304004427 3.5187473811402965 0.1101961959411328 -0.163288447780422 0.3372783411387481
P 5.224440274696612 3.4334827451567964 6.77063305656867 -1.1987431674981355 -0.7611295823727344 -0.8903033478576343
Ni 2.2680659954201907 7.465653222435317 2.5644421351425652 -0.3895694372329807 -1.331902657103661 2.535035983249692
Ni 8.132370515230072 1.8633476056636926 13.365666132063785 0.528124901043097 -0.13888816455918662 -1.8043534045129057
Ni 4.618135439635432 3.7724714241615973 1.711872130324952 0.012138692245062966 -1.6285732520233758 4.067524539032653
Ni 8.491837057934422 2.192621718600783 7.300680387878257 0.25686966087269314 -0.24937489515754474 1.0395214335879195
Ni 8.919480351706769 4.061314175481653 8.825802864711033 2.101399380494168 -0.11187898296019441 1.2805808669012333
Ni 1.9030798129046416 7.857115277245253 0.504916411249198 -1.1458450339475235 0.5443323640408948 -1.1478754341139907
Ni 8.869454016217933 8.168708143987134 1.9138219519172037 0.016861037421396767 -1.2302103848684813 0.10914178653468946
Ni 3.9914815324702975 6.93214323708417 9.445791806804143 -0.9950750303490864 0.7926294527532284 0.08557351229644618
Ni 2.9472116771898293 1.783901589981165 7.856686585219916 0.8765124647211293 1.160836622260349 -0.4349985161000573
Ni 3.529322091078586 2.7276220067009533 4.635701693334573 0.7957849676630746 -0.7034458545080208 0.5274209329975368
Ni 3.8124520151940504 7.0341461807951315 12.394381554066836 -2.1311226185902132 -1.46984028482412 0.6365799459234068
Ni 4.5509154261347105 9.112998923487414 6.214290161198528 -0.9488324544417787 1.705472890694908 0.5169586000136323
Ni 0.18379480631324907 3.3145437066251384 1.6250270374755118 0.35752423587197785 0.0569674185239793 -0.0870549819379791
Ni 3.230341601305294 3.497768150157897 11.18311131653866 -1.346989890454087 -0.7896063496561885 1.7443780524005377
Ni 3.447116255490459 0.18201656235407437 12.863435945522705 -0.5202077030785492 0.8876365996587487 -0.36362726344592217
Ni 5.030682518524148 6.892199443650459 6.168444952866676 2.9718116458548303 -0.9677285200153334 0.24111805446539117
Ni 0.8719421006749852 0.9836366119544444 1.3688025976197378 0.025824931482903907 0.028384207569647886 -1.3579646442980355
Ni 0.9826062791896872 7.2570016381723015 12.010731629469685 -2.198755487247839 0.7307928790624059 -2.4496843571560647
Ni 6.493341071493517 3.365747565273697 12.791577594700637 -2.2149806908574496 -1.7207377872737786 -3.008151103715813
Ni 4.166490912084054 8.039640566401927 1.2247390786074692 -0.23190373495597483 0.9150849256776885 0.9282096359851045
Ni 6.975969177185092 3.7801437234991644 7.968278983162868 -2.0448731632726656 1.3696130271702411 -0.14099055561417007
Ni 8.283765035851582 2.7535735132132753 4.936074972220224 -0.07680167964108708 0.030368584989528345 -0.8356175262789801
Ni 7.0711185681304825 3.831457974943947 1.2540870034836156 0.033872998598361015 0.1279792309561667 3.2944681233153457
Ni 5.855390301514795 5.948193845540424 12.00289558081772 0.9121243003874677 0.03701694354398141 -0.685735067491819
P 0.25254651986157817 1.4100655849683263 3.451332340366246 -0.3667025599371362 1.857198830448711 0.026353036072232033
P 7.970902651953124 5.721907012080627 1.43500607745523 0.5805154988296712 1.1995312106170697 0.16087418191197456
P 2.132356451262172 3.224895556691578 9.303717198003843 -0.24278747174801413 -1.6058812097424988 0.36741038463743825
P 3.1032978916508585 5.691999763703612 0.8739089323277093 -1.1942167403826918 0.894091354145157 0.4020104912098108
P 7.8716503287480775 2.158160767379529 10.187846663381956 -0.01586910582177267 -0.1716473612680786 -0.6968406904866774
P 6.864122875810825 6.4860183493439925 7.387215460958303 -0.4130022143346242 -0.3561206706562318 0.7830634063313481
P 3.2178856141313545 6.556347759938356 7.362831532152361 -1.5365925506490052 0.7417154395121807 0.1868934887938717
P 5.693885640639105 7.925650804900976 13.211823651186009 0.12556342242582247 1.5300051272394748 -0.5912578249478397
Ni 4.5041640769338525 4.900676602171035 5.008338096628444 1.054421233517887 -0.6359114591014726 -0.07782960668496919
Ni 1.4395220627607597 2.4489721902322454 6.056489178636154 -1.45759514890818 -1.2918865217220397 -0.37193809730446264
Ni 6.098558033397177 1.692119179320607 5.410178914163371 0.21162467299196455 0.9704798575082254 0.47277316374566963
Ni 2.451336435951376 2.347420017105865 2.6285177938308397 0.03433836827055377 -0.6416712444033852 -0.2777351914677927
Ni 0.884039311261197 4.958504028593032 10.730348141985546 -0.6400375654547041 0.08754143465609439 1.0392514677559843
Ni 5.444057543384543 1.2827918903217574 0.6558721205057172 1.032208187755958 -0.4195271599373356 0.9480865774146898
Ni 1.459263974485482 1.7434610289644452 12.156320408949782 -0.03461424763975974 -2.1734784578486055 -1.3572712177754367
Ni 7.698370436275162 7.441136822273908 12.978124861399738 1.6913477641474355 -0.8865991595331699 0.6102163683282136
Ni 3.6022457323842128 8.981668293579613 3.8059130818977165 1.1138599964004947 2.4723745996647293 0.0556129613786139
Ni 1.1151880274546926 7.926423554474543 6.302117749934363 -0.331725529641319 -0.23579072871520682 1.7218770430845443
Ni 7.741690409393391 1.4158520073704 1.9728361008986088 -0.962439246591936 -0.32348385845781713 2.2356171361608785
Ni 8.878460228509873 9.010296825400367 10.765005960360067 1.0901464548336386 -0.6044792087341203 -0.4968862547437894
Ni 2.644063859359082 8.799777763001227 8.15086774817737 1.1557913465269578 -1.3648312895108816 -0.34343947564413757
Ni 1.4212152573869485 8.97424437803355 4.224489447340199 -2.0397327567223065 -0.25550877596942445 -0.10242477952583005
Ni 6.985876930646195 8.790210387328482 9.161009670505193 0.40106483946708993 -0.02976771818073583 0.9392473818565049
Ni 8.470982018847776 4.991428680066836 3.6694933440839903 -0.8646457951905302 -0.25439985917596186 -1.3237653727085075
Ni 3.2333682038017684 1.201248411510974 10.184023392872733 2.0848425045767516 -0.657726498094035 1.4885602298311267
Ni 6.118971501298929 5.5568513829264 3.0979355615742783 2.059499397826272 -2.248520217375792 -0.03247611825083439
Ni 1.3488711782614975 7.350826315563003 9.443327287628442 -0.06588246162542202 0.6611488935120227 1.4385707852868774
Ni 7.757090204466637 7.042122060322315 5.522255200529771 0.2919567343838133 1.1488732792508858 -0.7972846921370528
Ni 7.9799180636447495 5.045622343613126 12.496629201809428 -0.11450562194976407 -1.0401115017634346 0.09706094411075541
Ni 4.571991250813806 6.982896325148147 3.348612763419797 -0.5712811247155968 -0.19063727210702008 0.42100040204875233
Ni 5.750553942700751 1.7705992580361747 10.66913993617919 -0.45372308909275405 0.23101259060027313 -0.5652045795042137
Ni 4.795711451761396 5.246629226737632 8.011768225235308 0.9426612926340604 0.032419553981286105 -0.9666586839899222
P 4.0691244658145 5.386855676141149 10.914539442425234 0.8869398307020403 -0.4069909751435377 -0.11011212086775873
P 0.3845735443255582 3.348277905271251 12.759882902964764 -0.12290104510231091 2.307616252207 0.8081954255122855
P 4.422399812530622 2.0062694791750113 12.49329073966362 -0.20670383865157949 2.519030094739739 -1.584447208238439
P 4.894255421190673 0.055789759391696225 8.96568341668638 -1.2748745605450755 0.6086287121261196 -0.849747280812143
P 2.428227543941822 8.365906475641912 11.170063807964954 1.7730304260299077 1.4508652863835143 -1.8947798740262787
P 0.05540430454488082 9.108206036251357 13.005066223318202 -0.5070184580817848 -0.21837664700381743 0.3355173925835835
P 8.218486095684467 6.358330681711584 10.848214530513895 0.5478768868590436 0.6869478568529975 -0.5615574696699297
P 0.08033927739197334 4.2217425065941585 6.65589078417346 -0.8574603331856846 -1.0351870678786237 0.6601147958205535
