# total energy = -381162.76290220546 ev
CRYSTAL
PRIMVEC
9.34950011161940 0.00000000000000 0.00000000000000

0.00000000000000 9.34950011161940 0.00000000000000

0.00000000000000 0.00000000000000 13.68393847531795

PRIMCOORD
 96 1
Ni 1.0901704306346272 -0.02241916670056065 10.939159339383144 0.8169788281318704 -0.6749127800653344 -0.40542388776673405
Ni 7.4659779951481715 5.659308611222137 5.563219122183806 -1.1230977129486788 0.22347231635916998 -0.01714514432071886
Ni -0.05450478173162284 5.784189886345949 7.372413806133121 -0.1883549038307466 -0.638753556535958 -0.2657235117188972
Ni 7.092287818804409 8.644501203346625 12.585118293245673 -0.35382544686415196 0.3598048043760384 -2.060930216735528
Ni 7.581706109506377 3.5928072652562846 0.5477423432944183 -1.5729698037264586 -0.5931756107958429 -0.7189336657309747
Ni 2.053383997085213 1.237256768902787 13.09915568806204 0.45594477933442124 -1.1918392412894507 0.023128872707979524
Ni 0.3044571268347541 8.528258866473498 12.97847701331018 0.9422792267042933 1.2139468718217674 0.334018953661186
Ni 5.16142902277464 0.9856243186009022 9.02851229303988 -0.5412228718776356 -0.2326807223313154 0.285855763692398
Ni 2.483311417560871 1.525735599773882 3.2250306478341217 0.1776190054704812 -0.7123125608700314 1.0612356853365594
Ni 9.543782886942031 1.810128699026417 9.78285334867939 0.6064237340550007 0.7601638760253553 0.037255027696716486
Ni 5.733683885880363 2.330680825631828 2.3324684500837014 -0.6331212979508452 -0.36054296809364356 1.3956822134534674
Ni 7.530442799518815 4.66411040434342 3.216095330424836 -0.5588362140840247 -0.09786955605497982 0.2919698470099359
Ni 7.406664765427017 5.192291723170215 8.70246530017863 -0.46566200662218515 0.7445750204481628 -0.06422744252050229
Ni 3.869477677284722 3.7964674296661065 5.877840090763496 -0.3463833887638099 1.4720720023681162 0.25512182494365093
Ni 2.012713670905039 -0.03316454736237071 5.222352236442513 0.15200876110154465 -0.07752415962940841 -0.3088504248153584
Ni 6.701329115459547 1.4126440444921848 0.48465939506387373 0.4594422509647184 -1.7662172597628163 -0.6325245449071107
Ni 5.720351498493483 3.527678646366378 9.261467246649781 -0.6801652867135254 -2.3404111872498343 -0.7521055244972531
Ni 7.518681128177514 3.7830695957773273 10.683666480419237 -0.15088210369626917 -1.1620247290311794 0.6090907393642025
Ni 1.6019714249860972 5.079405856894486 12.926560173253653 0.5687974390617946 0.46478911709892856 -0.002312964403892791
Ni -0.12691666133287485 3.88896203585012 5.275473292133983 0.5020366885964773 0.19655106648829376 -1.2980119178934872
Ni 1.314642582648373 7.933172523705248 7.076881712257354 0.22124188436675446 -1.6474654609421884 -0.1703733796516614
Ni 6.077997932371687 0.7903515908844672 4.984511233990829 2.3742929275989435 0.19707351465066705 -0.6028187903125617
Ni 1.7425879090665144 7.05064514459602 3.7327459105670315 0.5395593681322837 1.715332299987491 -0.3179660139633814
Ni 3.0742278832081182 6.488020266769738 10.963051987326462 -0.21961926116166694 0.09458317199422421 0.43810697982205193
P 0.713881093215442 2.870221787288258 0.0362395980016027 0.808554351513601 1.8070695178924878 1.0269968187583474
Ni 1.7104256281332275 3.5530064426013417 7.472086958625442 0.1445710738765768 -0.6186686128606249 1.2187023842288818
P 7.237709946024276 7.215972357893494 7.218729525523502 0.47732247367924896 -0.855801457426023 -0.6936869753490441
Ni 5.214421990312393 5.542439857830834 6.761193030746681 0.6914537151431511 0.4805682343100562 -0.034247094108328116
P 0.9919726292851179 6.833764786802573 11.405453511064096 -0.655372910260194 0.19300294412571922 0.9810008116442073
P 8.005631150807858 0.38565286194089654 10.815251347237574 1.1218738678439066 -0.16824682022696186 -1.4909750099202064
P 9.084124055603626 3.3859215232528626 8.25424745232222 -0.5759109101781242 0.6974017051964699 1.3564734044644897
Ni 7.5404935123104675 3.620360242555818 6.842830997215656 -0.4884198691439911 -0.14727844550541086 -0.1750802982090275
Ni 2.0057669922034598 0.6424911139938434 7.7735036279719685 -3.8576219909381178 -2.1556234319450556 0.5542547653609293
Ni 8.890449157483555 9.01541457810981 8.384683265557213 -0.1413314838933566 0.3645184078016238 0.33758327397367666
Ni 3.9314929125842837 9.039910268820627 7.116141198846588 2.2241513016131242 -1.1369230488675452 -0.9044151046686683
Ni 6.375405536001878 5.382928033702109 12.741457831932344 1.0105882954933372 -1.3041542833457993 -0.9515891912513095
Ni 4.265083082264422 9.245272042279826 3.431029122261797 0.010903277176065092 -0.8579593843092901 -0.32526948960333013
Ni 7.634820620547657 1.5573836581922471 8.679380449058753 -2.6028681124023176 1.0438743112399762 -0.31978378389841056
Ni 2.926898457932905 8.008987621405256 13.114919880469486 -0.20525090825513684 -0.42384121393165713 0.29251877753487043
Ni 9.084030560600912 4.892677637475996 1.459583210604268 1.635923264630544 1.4280652577698632 -0.43723897539480183
Ni 3.005415561211319 7.653996445604101 8.787099781484558 0.8224802175660738 1.6966650625952908 0.9953277697898406
Ni 7.202350135998203 6.682938648425891 10.681012157292214 0.6972250704092896 -0.5725602485383365 0.32710937102554627
Ni 8.667089596002096 8.713659456853463 6.074136588759639 -0.9740629468737934 1.2743389997565795 -0.41249390723963797
Ni 5.660290308750624 8.436072793798438 10.774610004508242 -1.7012891916308635 0.7208715061836359 -0.2032876138811789
Ni 9.383532452291876 6.859485262048931 5.2097079722756 0.3538313604014229 -1.2339672808077522 -0.6593164682889742
Ni 5.668050393975807 7.3287834281670525 8.728711217340235 0.240413829309515 0.7053626119147594 -1.160338599578008
Ni 0.27947245725974756 1.4619720079235865 3.7213741133870446 0.5873284079864466 -1.4197449108296258 1.6662633103749818
Ni 6.909215253991999 6.009064066871361 1.2019521209283146 0.49889968562939235 0.8159372742412334 1.9885662611508204
Ni 1.988685455207787 2.506993701748085 5.369440444610726 -1.1373336540424026 0.15825988421757906 -1.0100144252677379
Ni 4.349985894228137 0.545281554823011 12.54375142929529 -0.8517303726804429 -1.805992225667909 -1.1600197827860086
Ni 5.631316207409852 2.4209222022504573 7.039387411319342 0.38870914611521445 -0.861326243898994 -0.03417433188886372
Ni 8.595061045911967 8.426788740029032 3.4240085825080744 3.5616293959220338 -0.024940729105737695 1.047376410855964
Ni 1.6436982446969284 2.569326820056871 11.437296039088103 -1.3739062552289565 0.9693295459538661 0.5848598918412959
Ni 4.027979755384145 2.4442866034284467 11.133361549318515 0.6714435905698113 -0.1680043651988526 0.3687075061823069
Ni 3.4217768567933144 0.9787056884001369 1.333967999709159 -0.6244307121553827 -0.2472323948932452 -0.21203193573271226
Ni 6.374938060988313 1.396216972515503 11.73282813296387 -0.22922181724843746 1.813384147256606 -0.9078434136239267
P 5.692181454176043 3.55528772066754 11.836113932361023 -0.32060576557907366 -0.0017825458217195108 -0.16291486649108716
Ni 2.202115847401122 5.640740503683326 8.533386132422281 -1.5920376189911873 0.2709953016407978 -0.3315262691463194
P 3.928482373496924 4.565071147969492 8.21520767898936 0.33095574135483 -1.5886782156006511 -0.9439902958581291
Ni 9.4374790688573 1.6917453265911615 6.859908794411221 -0.29817957536507356 0.013402132338518852 -0.7595869204759628
P 2.0195481556033625 8.467215979202152 2.1180414011614452 1.5138233752732895 1.2843711871816008 -0.08386835667988136
P 3.181064622808313 7.376699617057486 5.969276333516798 -0.30208610950833137 -0.3467561987221964 -0.7331341256010728
P 7.8254382320790095 8.697391326381393 0.7105919390199971 1.4749806913744792 -0.14382108308442973 4.350624080136153
Ni 2.8252600404835553 3.3537218443184904 0.8260227392695745 -1.4062257932972686 0.560874584670292 -0.45535445404858993
Ni 6.521968302254845 9.262540569280926 7.2243803634874775 -0.36192596448409925 0.3638591769510702 0.2715177498031711
Ni 4.0108888688882 5.337087433871904 13.096706118990959 -0.6602063270930952 -0.12064335941638579 -0.9724020142316029
Ni 8.75914477567336 4.508562768329729 12.568205047254885 0.11527309624340792 -0.5136465049212637 -0.5703601555632241
Ni 4.5816758604513295 6.532411694057891 1.2773371416158412 0.3455673206204178 0.7711813101817815 0.9728321597904859
Ni 3.7349009703795675 6.049229520036884 4.227420490321527 1.5658722734497288 -0.7104392551067185 0.8314754790861486
Ni 0.36887331380398664 7.110248208825585 9.282595247362874 0.5870692407877889 0.5169051210678774 0.7404010915761313
Ni 1.9185642031730046 5.193161226695446 5.930577816943842 0.14978372842576784 1.9014912246081832 -1.2396694733988523
Ni 5.821083014416516 7.76473192681743 5.235174141114579 -0.37684350502588004 -0.7731422905628942 -0.14197014591862
Ni 5.362714414115549 4.1965231967749475 0.9843434370637335 -0.11133185220747277 1.77281908135005 1.691134876805681
Ni 8.73063814934615 1.8967798675408654 12.463358816262451 -0.5929856062722239 -0.9364178828275098 -0.6742751464813355
Ni 0.4065340358468276 7.300033714832791 1.446857605784996 -0.5021670435267545 -0.04389798693453085 0.16613183076648808
Ni 5.8944859410465265 3.6223890841146913 4.832537911930858 0.9904706988078554 -0.34691894955230573 -0.5152483021907449
Ni 4.617615339494223 2.4769257088755703 13.677712114350623 0.9879515319304276 -1.0918909483285713 -2.017918231950376
Ni 6.656918989170851 8.669333476067209 2.86072362996264 -3.0580760135707137 -0.03860177153259803 -1.4862542074057694
Ni 0.8836184657908907 0.9093585749878185 1.4552871152296036 -0.8431398027979544 -0.21744487921816744 -0.03209430943138343
Ni 4.909067311451593 8.853677572916517 0.8544704637450723 2.1183858877498354 -1.3122432310015206 -0.22730300295916983
Ni 8.377488825098444 6.696355181315213 13.187307451370032 0.10970897189206912 -0.73349228027144 -0.4764634681130632
Ni 3.4477123705459123 1.9008469001588828 7.063416561966621 0.9168890687659629 1.8525531041465837 1.7640091963679039
Ni 8.1798310398628 2.1986191342996544 2.1844630559388722 -0.263297675886224 0.10609785750204308 0.7301164218206716
Ni 2.6172523584475766 1.8993042326141174 9.394078688597908 0.5270031287338278 -0.28616918116775875 0.4767154362228694
Ni 1.2047298574589191 3.419645170731457 2.5263013547583553 -0.3165380232676032 -0.6893487529850063 0.41317062159168844
Ni 4.111470792806892 1.6103579267294574 5.0563658833759115 -0.3906415872512369 0.13413676591713028 -2.1075551156829184
Ni 4.941192194383794 5.496309423492217 9.786588474037778 -0.23811834840711893 1.3382931340110369 1.618618454803509
Ni 3.5970706373799994 3.5150848695009316 3.0987282486690715 1.17528262248235 0.4574074799228767 1.0258187392898463
P 5.791173963048614 6.303966004428842 3.4759534710654143 1.1063500611766945 0.11804217434811283 -0.5275384324120076
Ni -0.016494388378635094 5.077115229328016 10.28216621551848 1.2940776158360874 -0.35601654097819974 -0.27226876903658265
P 5.455152923297936 7.240561543607025 12.681836068702236 -2.26435178509141 0.593455603930107 0.28010086348649177
Ni 2.642823241689594 4.0680984610483115 10.164141863893644 0.7042734926156388 1.7617227143265721 -0.30964309591998285
P 0.6706826621619073 5.285244454867523 3.4562755778443996 -1.2459972153890926 -0.5580368581111809 0.40134997480767653
P 7.940951307930974 2.1020013984959953 4.683519966906647 -1.8648707451716722 0.8621060594878119 0.7300516300210073
P 3.404639222796013 -0.02208445459084795 10.305469844944707 0.6166744652487315 0.21719573932183883 0.22597579950731406
Ni 2.680810261291904 5.471626742775974 2.0396047035853644 -1.1318026969218444 -0.20053987593271272 -0.41675859605326293
