# total energy = -340867.1954136404 ev
CRYSTAL
PRIMVEC
9.27468380296260 0.00000000000000 0.00000000000000
0.00000000000000 9.27468380296260 0.00000000000000
0.00000000000000 0.00000000000000 13.57443724504124
PRIMCOORD
 96 1
Ni 2.1539246975485002 7.635030844001154 6.227937987063694 1.469940043626778 -1.279936548449015 -0.07480084716097442
Ni 4.040571562822416 3.942463959595247 1.813720955516409 -0.711764144565729 -0.14664543990710227 0.1708220371533058
Ni 5.08742365125662 0.44116145553263036 12.041434882075327 -1.3653074578163518 1.0929558992579758 0.7426364086645533
Ni 7.154157048186987 7.693823063405297 8.934911140811453 -0.39075523001096574 0.1958769232394046 -0.14004593231271364
Ni 6.7193506058639665 4.461985362012515 4.037960739386185 0.04708666907515762 0.9606168486712167 0.2243331216975685
Ni 1.7627092681927417 4.621092559343021 5.689453566537305 0.4787792607304336 -0.3611170954295587 1.5146265879008753
Ni 2.6374325035079225 3.0435430747414305 4.2205774047314595 -1.1317911269576184 -0.15020178979979293 -2.0174929714874996
Ni 7.901844942095235 0.5051011243403541 1.9054707631288847 0.04877562674180632 -2.3049597884207595 2.641959421976824
Ni 4.8895668258033025 2.5802726284191495 8.456915279321487 0.46566174951186895 -0.8093223400278771 0.05856561624903462
Ni 1.6251193368375656 7.352811496430769 2.2018006143436075 -2.1528510114062405 0.9867749951238232 -1.9969444579121867
Ni 0.8778376740714378 0.9403137978054948 3.289167303191618 -0.39792680805874053 0.4241831706521082 -0.134564083262536
Ni 2.341774139386568 0.9506457953470968 8.168363177782156 0.5380637574233637 -0.5063839098215794 -0.40373415876913693
Ni 2.9600709222509294 3.963619512909784 8.379621921052005 1.8129583725730969 -1.3418867648995663 -0.8997421246730312
Ni 4.254955874468853 5.901286412722616 5.525760038161628 -0.4783987374625631 -1.5553135240972764 1.6720806883877075
Ni 7.855017064548064 7.574216743570019 6.012552937055731 1.1011289219870712 1.057538181880314 1.055998605307336
Ni 0.6491007895384396 8.586845249483117 0.3827708299288028 -0.7397063795019518 1.344370964774001 0.20444898117913177
Ni 5.277832905771063 3.6163846332329093 13.241496396532401 0.17006973236831355 -0.8854994987110878 -0.5455490100568153
Ni 5.864382446638204 7.423818474149356 11.686205225126587 0.013875729540827714 -0.06825481851234051 -0.13255193792851364
Ni 0.38235346916635027 0.41848949144784925 11.619256848955759 -0.9428700662107568 -2.0135743531593837 -0.9266757158390816
Ni 8.414670022946044 3.873302643915062 0.7314803842996761 0.44617690131438 0.40252034096669387 0.6481887338069289
Ni 8.720150277010447 2.067595942506102 6.35496776366046 2.0733167633253387 1.2459046556752864 -1.5514843801591733
Ni 8.385825756918772 4.5310539308566 6.353012660355461 1.6699407592265691 -0.4569369680443614 -0.48313625214754863
Ni 6.348400360196179 4.3701288955385245 9.03290559289858 0.19912191253926353 0.546488234041633 -0.08759774181532656
Ni 6.7018492778917915 2.6505190820817113 5.673150527687549 -0.590496264191467 -0.30238872835041475 -1.4090352377216055
P 2.144529443051514 8.117082524633798 11.762656442124275 -1.5432331958939745 0.1700008268035911 0.08435146696388697
P 9.186731785381518 4.247842192139941 4.261287700969438 0.6866660639465206 0.4955330831500046 0.07942677596875998
P 3.7469536290952736 1.8987132286505983 0.05396660152183096 0.12436246013918582 1.1407660767627192 -0.5451126938503451
P 2.3033954986081575 4.065001079451303 11.109007347743463 -0.2902801180123388 0.39929540627149296 -0.39524900411626124
P 4.572252075452467 4.060929493346488 4.332132371724848 -0.4197323339696062 -0.7249639310854548 0.2365260642193346
P 8.398448601312056 7.551493768725382 1.395953961921783 -0.6108995104381673 0.11901276579149828 -0.18673330906692356
P 6.583726907434123 4.936329780565202 1.7896948876245595 -1.1768857053034119 -0.591552216259807 -0.7364881296749702
P 2.2500567931667272 5.200908679909261 1.8396622455737346 1.2644124846714868 1.002572624277712 0.4277549471637665
Ni 8.414512353324673 7.871470353272303 3.667622622836662 2.6825373433991864 1.0758925160177857 0.33714978598068385
Ni 0.19690431544656503 6.895087310907301 7.818753979101107 2.0704103883118217 1.4897614492280795 -0.9921077201906462
Ni 1.4646951344344328 2.1711941584304237 10.169398425892334 -0.9511865564962522 1.306615857512414 0.3058612602800474
Ni 6.168044862715037 4.592507984456829 6.635890510462159 -1.56123991688404 1.2206980745026719 0.04797369966580125
Ni 7.557707806744119 5.9737402410843705 13.439073126540697 -0.06206540187217698 0.4204794965482758 1.0131876807893971
Ni 7.640419435178596 1.7689975036803594 0.24814879732884468 -0.3015333223286549 0.8306951492766984 -3.499669923500102
Ni 4.078161855493971 8.268065099121893 2.1990720024255292 -0.31162130269227617 -0.6675103169536762 -0.5821998285106296
Ni 0.8427932820508424 5.779936452368648 0.37260021188201575 -2.998896932107397 1.9116229137255465 0.6940088774648371
Ni 4.123709826702955 8.036559721531294 4.718949746112719 1.2489401000675007 1.5380727347389576 -0.07911978625130245
Ni 4.97747227705941 5.86698863273263 0.5269606261408945 1.0013719191013917 0.5657843632670836 0.019329810676863485
Ni 4.826805041814056 6.039599769399376 8.080685883742856 -0.9613562979404023 -2.1252941848338947 -0.2206567012872458
Ni 6.232077278358862 2.7428578321034256 1.8790954178786083 -0.13426454974424618 0.670349071954052 1.2659931988950455
Ni 4.132483677398068 7.9432656790977445 9.062836851844951 0.11827434496357696 0.6397817406901563 -0.30424969281855346
Ni 9.032252655172432 7.446504350259551 12.188717785271372 0.43242638449750687 -0.8871208363645948 -0.2879568691958008
Ni 0.635025529691819 3.1476884969987458 8.158969778221891 -0.20614076705925785 0.1832252959136651 -0.2785072937471268
Ni 0.639827960865106 -0.015587960743420576 6.386786420721478 0.11369675289522353 0.41142509965549146 -0.3460121214673202
Ni 5.489267868029502 0.793269253978228 0.8761237125402995 -0.0741272181327175 -1.1226914786491955 0.26165551229711065
Ni 8.272980681435223 1.4167079214360045 9.80252162126608 0.3859477813199934 -2.330710157911986 -1.2845563066092136
Ni 5.610970266360653 0.9252248150402952 6.6584650903690346 0.49943704619010115 0.7099995964661385 0.2910946434938342
Ni 2.8140503034942133 -0.209225732622524 0.12570349684052862 1.172949089253167 1.7356417009688045 1.0845471063689902
Ni 3.3204109298688125 6.434200458272804 11.11227852865273 -0.033660625477238804 -0.4504266777296694 0.07196851991850187
Ni 2.585141837314429 6.410475817598282 3.8566740636705927 0.25860978349225144 -1.543426028631071 1.4967458509657126
Ni 0.1728596981874957 4.580024260317694 11.979277807457455 -0.6453214395614628 0.8210401426854376 -0.8021556470761089
Ni 6.244839243006298 2.421452946280556 10.85574912721384 -0.6889949691900135 0.5462414081381496 -0.0004936518069668918
P 5.561443455882956 0.3576828107636022 3.157549340612957 -0.47392296107939674 1.715001141900317 -0.7715075831729488
P 8.387179860725839 0.4679096430640309 4.758844797661372 -0.04736769065068617 0.6052793360379124 -0.05415591721711318
P 2.3663706003204354 8.741064688551123 3.617004182098061 0.42379596251601853 -0.9161660745570094 -0.6538428467689127
P 0.4163952678886987 9.060670285753643 8.639871398086889 -0.26675272431436 0.15379027848199966 0.4926277365777516
P 4.739075809546539 8.071460355955933 -0.1409761183412073 0.5834684108104081 -0.9852256483588323 1.3859585584078002
P 6.269723219132078 6.6340327913350645 5.191869573262901 -1.3159258220594305 -0.9617306505606857 -1.9005301462464945
P 5.335159725164817 6.293800297783782 10.143023080642056 -0.8735754935799924 -1.7520057441491244 -2.0953678295881075
P 3.561756746769681 1.7136369172119372 9.935361059676188 1.5137732387616445 -0.2556553288496178 -0.2756721382911768
Ni 4.498490516701695 4.204251179172679 10.8597530081283 -0.7644596751872318 -0.13442292969898137 -0.6948771390024032
Ni 3.66814664246063 2.9670454843256917 6.268294917856129 2.2974375119017854 0.9365148134166904 1.2910714820199118
Ni 8.277655121974691 3.586649997579071 10.014446286819133 1.127149000199917 1.8054019003820776 0.40795256772585864
Ni 5.592968105473535 0.13886798275664164 9.767744340133456 0.9358635529859367 1.49919199851336 -0.8410654367674288
Ni 1.491897781462726 5.1771654898675195 9.348347784628544 -3.6348348735714304 0.17346564542374 3.837066535384269
Ni 2.0648877348919656 4.14115550657347 13.228547083276043 2.967413259676819 -1.2356449256204913 0.695816362987221
Ni 2.0141088421269107 7.471879884616665 9.18952717502159 -1.3210767701327506 1.2912766560521824 0.8991353443269677
Ni 2.669634205002036 0.7306104189770529 5.229660199100435 -0.05174036579708508 0.023130158259560163 1.2831229165967966
Ni 2.8719521532717907 6.830989972478206 13.684661183724804 -0.0029138312126853042 -1.3217845948330527 -0.3834324710973074
Ni 0.3635277163746593 6.216607106097289 5.020817510911005 -0.5586415815747152 1.493741259811434 -0.43071454401272274
Ni 4.610881132688349 1.8457826092880103 4.476116269960796 2.1136411739759984 -0.8200638948150973 -0.9593955746696058
Ni 5.4789358704879 7.821257216207462 6.846919241578478 2.243305505944072 -0.8669621020285327 0.3833676792976429
Ni 7.013385900353562 8.552770061899773 13.136036751607543 2.184796711074902 0.9164856626799571 2.232938817997767
Ni 8.396649312691705 5.7433849242614174 2.5891206765831427 1.0140708547252988 -0.6822206265806574 -0.031758266248203375
Ni 6.3921954162028625 7.755017425864445 3.0494297164287327 -1.4072740320561248 -1.3758065575754628 -0.23842276702141518
Ni 8.163715633825158 2.6460208605308346 3.3830076244898004 0.3600421171978251 -1.598147588543667 0.23598099034914194
Ni 2.7025222330832936 0.9636210777175648 11.768154474568316 0.12286299277552389 0.950282299514428 -0.15556305411170626
Ni 4.831572229189624 5.881011954351035 3.129708595352292 0.4662579883349712 0.13779544571564012 -0.5666058307271145
Ni 8.747547692394551 6.454845903988789 10.220194013087884 -0.15211597610337027 -1.0278134011223716 -0.7821925736906206
Ni 0.6358778731155832 2.292775985874644 12.683044509661924 -0.09535887381798415 0.9120975609145904 0.6347382647289778
Ni 3.5601151277707017 1.5287460994454771 2.167729136633707 -0.5748531583375713 -0.3712654967174703 0.9251965601903938
Ni 7.904905587686554 0.33764207441899385 7.444275643788055 -2.0789351379533807 -1.262703215289864 1.6614334930865067
Ni 6.673969578959964 5.111667674213306 11.44413227303069 0.3104524791951557 0.42897133606937093 -0.6021158507082662
Ni 1.059799546753842 3.534303683283917 2.385598874380803 -0.043959693410401714 -0.5236329267100144 0.16248600648378467
P 7.292257087140716 2.5213227393936357 7.914100509017563 -0.5520562150477137 0.11089245067720901 0.8162836018370587
P 3.9448011798649807 9.070686944052502 7.006351052835335 -3.030765755791535 0.4583819280210041 0.14072933153298345
P 1.7252117223572867 2.3121229758852198 6.414166214206723 -1.8326975028732373 0.46857943737929625 0.26694247172766283
P 7.7636336069381855 5.96200776631765 7.852635325797002 -3.4326554051527656 -1.8714268011226352 0.45161709849334475
P 7.522899919155581 3.423359917940431 12.324394349397794 0.538096410433512 -0.5169154054805226 0.26400807168968726
P 7.097590752849257 0.4734846553820354 11.337328726450732 1.5255005545009017 -0.6617659582707313 -0.0820151055212265
P 0.44545470657572506 1.709658077943223 1.21335677341209 -0.7237102611840116 -0.16960461980643696 0.01975558536037243
P 2.226174482870834 5.912703548246594 7.633231555380803 1.7860345515990594 0.1950649688610705 -2.27560601784899
