# total energy = -340873.79631902906 ev
CRYSTAL
PRIMVEC
9.23796476542463 0.00000000000000 0.00000000000000

0.00000000000000 9.23796476542463 0.00000000000000

0.00000000000000 0.00000000000000 13.52069522198887

PRIMCOORD
 96 1
Ni 2.651286582933349 5.834763064633618 8.371392650768799 -0.6310132504689068 -0.17765371536315855 0.3608967518886365
Ni 1.9418386207121134 8.882968031680898 12.028740684937222 1.8162288157942528 -1.474982491146692 -0.5647993736459951
Ni 2.007880829156709 3.038514342252431 6.279564590310128 0.98663307022932 0.32546283656105884 0.04689383633806117
Ni 0.9129704826385991 3.3826285210971907 13.105771874898656 -1.9445682583033155 -1.730968206752535 1.7731252997365592
Ni 4.459147004027058 -0.003590796813878072 11.856432322879552 -1.9785461579106571 -0.08680687048291501 -0.1575903689543802
Ni 0.20564909985280147 1.5680798136817742 5.462496188875318 -1.3223214411731292 -0.44368421679951325 0.6836907833682806
Ni 7.88663508089526 1.395228259309578 0.1740247758678547 0.39288333209756204 0.2521254613194884 0.46899518476047614
Ni 7.062072842631486 2.323209510517435 6.1943166536019545 1.2294588514144376 -0.9352099785623377 -0.0546919922262413
Ni 2.996444651770309 7.466132173329229 10.046267953431375 0.5475832668780246 0.6697744303975045 2.1248673817091217
Ni 8.372182496736349 5.417373351115123 9.379954819002887 0.9216864901546062 0.5346624450512986 -0.82692745470415
Ni 8.506613356616858 4.253713148747869 5.111539449701153 0.8044027912390728 -0.6561915495067473 -0.006523402940814571
Ni 7.5171719273726465 -0.3313085124094685 6.417205642865766 -1.0000305745821487 2.0259480442333886 -0.4106360280952928
Ni 0.7349114876592946 8.500368492592722 6.383931418415271 -0.05605724800488411 -0.2185882487939913 0.7190830468246455
Ni 7.158785093324796 3.4290770067678342 8.454855812729246 0.24702619241971002 1.4749390395032662 -0.33511167250473256
Ni 4.577282094471804 5.675269606975772 4.826780116775734 0.627600625242932 0.10278113442398427 -2.029112815114615
Ni 1.3868032356557143 2.8707898581959084 8.807434738475362 -0.6810805994389432 0.4126764555640892 -0.29253548970541876
Ni 4.65782790723281 6.457401874140647 6.903978012803898 0.8251508224197015 1.0854135681343435 1.6258838781166707
Ni 2.587664721196333 0.7968261735506597 5.14603031408061 -0.1838647292698769 -0.24239486429528576 -0.04735329247298297
Ni 8.292726763790208 8.437190053153278 4.048096381770933 0.4025478517705196 -2.0596917163427366 1.0614362313831396
Ni 8.759382542161832 5.631038232792988 11.950292813921603 -0.49488156560893487 -0.05741119092961726 0.24561439967384793
Ni 4.857063088310527 2.800184095272137 6.392489468758406 -1.984490291309234 0.7956173317369588 1.0669157664404723
Ni 3.8773399977547633 3.1768990509529544 2.3257896740114306 0.36384503588368305 0.5385329837502983 -0.37334474784400223
Ni 8.693247954071909 1.4346281780417363 8.032590301530368 -0.8042215284662021 0.41594252790987074 -0.7003798139881874
Ni 3.207698424705127 2.664275161066389 11.433383432288297 0.18476358693506245 -0.5325063179402443 -0.3821867716156644
P 1.9830122286345588 3.8461433915276833 1.6200230406564937 -1.6151258682692184 -0.09221467176204765 0.16555976031310196
P 4.7126090369119895 5.12853915203431 0.9503888579784837 0.3287430499742274 1.424961679143875 0.6155452367402947
P -0.03312456942506458 6.321298942679712 4.347823064832305 0.3458707107934495 1.1053239339050256 0.6071053335030577
P 6.507434690049995 5.892019968807572 8.22939774552888 1.583547065021673 -0.9921282890159365 -0.667639900553005
P 7.763603869248159 3.5347777969515044 12.373571729829722 1.152399033015957 0.3019611538946929 -0.11350134905496582
P 6.644886364332711 9.435934112681963 1.9295244139899639 0.2051838024626273 -1.7806810005966303 0.13246014954565577
P 5.2868316743029 7.259405003015457 11.348365520896987 0.005633801247009652 -0.06081764550800494 0.24022125368273464
P 0.7042747020828983 6.906828848658702 8.304248353155447 -0.41684189979568853 0.2574057358818212 -0.36590243263334404
Ni 5.02509242519663 0.6558742345064862 5.528787822362297 1.0484737576852008 -0.9649478719464027 -0.5909156111170726
Ni 6.337557760257344 2.2455644186197112 1.9273211594489041 -0.2973725060827459 1.0643896575845087 0.7526809373847488
Ni 9.002793669635137 8.768444985368456 1.7435475596096435 0.11890092280398232 2.2648819465632672 -1.4526174931879305
Ni 2.774059131573533 6.005767026099265 1.764829058503729 1.2287147741595614 -0.7652425760998434 0.6244165710879955
Ni 8.015061263829484 4.637541337118902 0.8965370675312987 0.21789276538886346 -0.5427627055609298 0.402492573052552
Ni 0.7594225789540274 -0.1502351696031292 9.074495055152493 1.2542759104581171 1.5738609480821604 -1.2570678713809575
Ni 7.0346545638982985 5.615278265300125 3.8857936590986784 -1.0087743822130497 0.5533649065568083 0.16030159723795617
Ni 4.2850575624074745 9.243969209691517 1.005483154655323 1.1059325140233018 -0.5576596772774202 0.4512730848903648
Ni 5.9712724665339945 3.6341690573593106 13.636837513381941 -1.097733008931645 -1.2090962285976854 -1.0825161919818904
Ni 4.383552740255604 1.052527489038328 3.2645451632538283 0.9091366785140537 -0.4497065117341933 0.1997240648996367
Ni 0.7392958256265355 7.467323870753954 10.434434289946985 -1.4680276570954136 -3.0435166276993004 1.743958448364616
Ni 3.1354667800235925 4.066200944662207 13.347061965715241 1.2839883499208855 1.0577713809370428 0.2229195291794935
Ni 8.749119163565954 9.084725177076054 11.868817661928603 -1.458314800683024 -1.4591943750744998 0.9037065086374179
Ni 6.702586690804238 1.4432471989507878 11.658016549255889 0.21831442630731432 0.9641690847988492 -0.7954234705585979
Ni 3.5165882447865293 2.060066090802187 8.534099996287587 0.3432319876190218 -1.0087723253305205 -0.046314309685507336
Ni 6.589634098462362 4.626280258353485 10.812364037963857 0.8451694316334735 -0.2575903410888016 0.10773693576736283
Ni 1.524642904448806 4.526519479364369 11.44164494396993 1.046271093606927 1.8943574417768794 -2.142398705724665
Ni 6.19994904057757 8.60915476293033 13.200484106270627 1.9394785024852341 -0.5308890940517954 0.4931095613101766
Ni 4.032205235181705 6.993065247571879 13.33312187723533 -0.6021436186224081 -0.08965590989593593 -0.6781981356848256
Ni 7.347110238289341 7.198951763113173 10.616828661681506 -0.838088356416976 0.4290384418618805 1.8546917477561413
Ni 0.906081732486531 5.601753885224185 6.513730362879061 -0.8386079763658718 -0.33704565630265176 -0.14865270014511817
Ni 8.016788763197107 6.8727315215683396 2.1954364516756755 -0.6304542926416432 -1.5503014155946655 -0.9643459766963457
Ni 1.4252239301474017 2.6123393244632953 3.652196945144963 1.375091019565677 0.619906599032784 1.2282789721737233
Ni 7.931790251531319 6.6799813915926105 6.026917345896986 0.050109515061881445 -0.5513152231166312 0.7209226711365455
P 5.018404138874922 1.7263169081631673 12.948593451152716 -0.6429945912004991 0.8216919173368236 1.0805477554016099
P 1.7569592365182831 6.77601927087503 12.341297976938124 0.25418388651041385 -1.7794337584530902 0.0074351161218065495
P 5.955355453644075 7.546899697239021 5.51476736359095 -0.32657175335452143 0.7418468228837224 -0.7519016360165631
P 8.079847109097628 7.261252595922007 -0.18789188442795854 0.17824815441404784 -0.14809297098690624 0.5119824869552795
P 7.576396517992077 3.622131989573144 3.2166139842756793 0.5778721476695532 -0.5193450979679378 -1.6354100724395513
P 2.935030663556619 0.4813561513325829 10.289965457805193 0.10373861324124714 0.8202865523488647 -0.8518041633411716
P 2.8685635087435166 4.207440184403349 9.81572715814509 0.9932752581361861 -0.8648779658059944 -0.2799849067339178
P 0.4933156202166749 0.6081416717657916 3.497235632886882 0.11419503268788077 0.7036839386607558 0.5864604035591965
Ni 5.11188310198177 8.990156134154342 7.640125540117673 1.4838337708897347 0.5772591966759025 -0.7128548065267465
Ni 5.507295697876865 7.2618068737939705 2.593214890287606 -0.11608736461458719 0.3659317432093827 -0.3030428169946458
Ni 5.683639202842439 3.515442737184469 4.308085036598248 0.33910202461104827 -0.7457140191486125 -1.1532040454157557
Ni 8.7792626418363 3.1697488664046096 10.159909697927395 -0.6749791145268956 0.6414043638952438 1.7494842632788516
Ni 6.352042888644688 4.6457169357303805 6.2552003826514655 0.4171568599329461 1.2250483810515675 1.2942020572290938
Ni 0.2959326510277739 2.3801615618618093 1.731758069272954 -1.1040118999618214 -0.4082402741696066 -0.6819414047773417
Ni 7.225178344421636 1.1407962401487088 4.017715487812094 -0.8817724275684877 1.4881645370546046 -0.3470493044825829
Ni 0.7092364128334357 6.127726633860568 0.6867170266919627 -0.5198886291762337 -0.01612981568232706 -0.7802814727108368
Ni 9.76452851111171 4.90307738964813 2.9193344380190314 -1.4308258512341359 -0.9052360579080668 -1.449367104571433
Ni 5.067106687891555 7.152457087619865 9.116234026504342 0.7363505756558415 -0.23091128913571843 0.9649974942374154
Ni 4.3820561900012995 5.24490055328877 11.29371464651772 -1.266279876897529 -0.2770703041902841 -0.06565851854007401
Ni 2.8825035972234296 1.598546620710768 0.11247221818617321 -0.5825811231094483 0.6109321634483156 -0.5842299715667809
Ni 6.2871369498376195 5.972732064930168 13.024323513002802 0.1310648118600259 0.3957362281653249 -0.20844987480840876
Ni 1.927381206218367 8.176060509706168 0.6619112443286352 0.9828630616639267 -0.3227454376298957 1.1741317967073586
Ni 2.24845590151846 0.7827807722750738 2.2851731153503096 0.016797531173313007 -0.8364346228636369 -0.09202852389317054
Ni 5.623075107365762 0.16133458398922254 9.885060853352705 0.4879616985606499 0.3436852731063565 -0.8607845124629111
Ni 4.742512328104486 4.588118226868715 8.617036594269669 0.13447563731378775 0.36780119231795366 -0.819687228201969
Ni 2.414840880717735 4.666049695666953 4.221310064352813 1.015438938717419 0.7964719664277703 0.8045809686881498
Ni 7.8757158068175555 7.736998531393852 8.500880275827836 -0.0021671828546478804 0.0678670961556186 -1.043603831187409
Ni 1.46913197557154 7.486834451847112 3.1147755870631495 -0.723901037038579 0.4693978195155335 0.827479213442562
Ni 3.040971640818141 8.14379229959329 7.822100508262408 -1.3420515726122049 0.7108768568647693 -0.5793816423355441
Ni 5.069000470620768 2.8599444878344653 10.03216620057214 1.7039605678154397 -0.7030517043933957 1.3058108451126156
Ni 2.684035167201931 7.2267672743212685 5.578489919141372 -0.03072596832894708 0.40161376999202447 -1.1967773020210164
Ni 1.0642135141722509 1.5388508939001682 11.38146422402136 -0.26951408910958097 2.322706056660587 -1.6253601444027168
P -0.10299868555784297 3.34446648961242 6.929775028761588 -0.44281466971036637 -0.11757449068307493 1.2899769634041525
P 5.7594274638690806 1.9144850077306548 8.12926375277264 -0.1401462053360038 -1.9267672255661528 0.4012435311367993
P 3.5002555234926356 8.153021026161502 2.822350591168459 -0.07111259967610978 0.1312141929536966 -0.023701200271681763
P 8.398963355916777 1.086430818873503 10.16677812455749 -0.26493341171743406 -0.48764442443054723 -0.5487975989010999
P 3.682391232220241 2.7802670437395376 4.55750176481429 -1.2257096687846505 -0.7312291952688762 -0.5134922387315867
P 0.8474843996588747 0.7885545001080396 13.470262232113292 -1.4934923770254214 1.0060019616742353 1.6709745998077221
P 3.0144679205736953 5.210904843808267 6.358782907567779 0.3926606745637948 -1.194080986135776 -1.0054702575404812
P 2.1362885361618678 0.8754264709810692 7.362045255549429 -1.1142276641525586 -0.08068430252494492 -0.8728622695630515
