# total energy = -340895.3962502269 ev
CRYSTAL
PRIMVEC
9.05350741504337 0.00000000000000 0.00000000000000

0.00000000000000 9.05350741504337 0.00000000000000

0.00000000000000 0.00000000000000 13.25072324447676

PRIMCOORD
 96 1
Ni 6.4827637707845795 1.7420667858537786 11.437361630902432 -0.8217873052641074 -0.1948867914119934 0.11710680701803702
Ni 4.571106689624138 0.4739402333413139 6.035558543958351 0.1584534882856239 -0.7543858358909976 0.11656944645732828
Ni 2.638563167545882 1.5863917309852067 4.996674939792594 0.46296749050915753 0.29569434704937464 -1.179237750475356
Ni 3.544393715075118 4.376918015481887 4.868845756762304 -0.5514098397129664 0.3914689682485387 -0.24590339166917652
Ni 4.865762132238417 4.470694242194808 2.7319546202063503 0.7460462056770506 0.07010421301625346 -0.9303246254455785
Ni 7.317297949771216 6.083178180689827 2.4835164260711964 0.4858474804311246 -0.4457500981896065 0.4026527527795001
Ni 5.067383735723331 4.310229882061597 11.414888110187094 -0.30872855452551345 1.0228059206054514 0.9682915916076551
Ni 5.944786270906692 7.954954563001996 12.201040347143044 -1.570830903006585 0.5267041094361703 0.9984660583085063
Ni 2.0115263181627814 6.440855086342206 0.34488882685029426 -0.5008220994630859 0.734644134487696 0.6156074574367978
Ni 2.6300347638421195 1.8333442446025392 0.14225685197117663 0.44786045966439 -0.713515322928881 1.1136802762895208
Ni 0.5539469810807182 9.026074989957548 5.06102093092184 0.11414129663180987 0.673244391223976 -0.21001979039868993
Ni 8.619491038861725 2.3202418573290173 1.4744605064515275 -0.17721508516384318 0.6730479589424537 0.3241153213942289
Ni 6.7591854500661865 0.628542447616578 4.764323922452785 -0.8421550702871818 -0.5073822691791069 0.32092226837822796
Ni 0.7663449740864265 7.5079195421095575 2.748650192679926 -0.07478413499042605 0.016347845230404105 -0.7127545335034564
Ni 7.634315554963302 3.90154551731474 3.9661268996290158 -0.2181447334986695 -0.6334195459175543 -1.284377357829188
Ni 7.461991100507449 3.667738696030595 12.628375841900645 0.585011844038128 0.4195410438944065 0.20918418187127197
Ni 7.596734446922625 8.795853357491547 7.012123237238252 0.6937723359739987 -0.1526502513402855 -0.14844778322316368
Ni 6.736678431374517 0.8257812483063843 0.596147188452244 -0.037513166454109584 -0.936818203589722 -0.4260973569556855
Ni 1.9310406398969133 6.459106956689111 9.232811824963298 0.16647224482504233 -0.31954672818693997 0.06783367181452189
Ni 9.112626517991485 4.8835884877508455 1.0044033223124893 -0.31493056957116733 0.215102604238236 1.1825439320304538
Ni 6.336748808009336 1.8932060336569734 7.20975767618905 -0.0024703159173634875 0.5989891321538264 -0.32084025018738294
Ni 3.3664108186714397 4.3581138812008735 0.49448264098869915 0.12884080762551361 -0.014618521244123212 0.0010556949580239885
Ni 5.940721246211375 5.491667293231953 4.702349950188067 -0.029802170963097063 0.753690866706502 0.4947982618665091
Ni 5.372640835171056 2.629364804315497 9.433892028722642 -0.5297138427967716 0.1254613496303194 -0.4847763588541329
P 0.26898241248396215 5.745011582873548 12.28273104720612 -0.12881869613832655 -0.6506114843158085 -0.055965459622026204
P 4.239359028353473 6.121383980721544 12.591035557149267 -0.9392147288463567 0.047247877243370234 0.3125774959579584
P 2.3199793056226383 8.375698199228058 1.580162012738329 0.6885537678875367 0.5534898621704468 -0.8766276501427548
P 6.3654936931042885 7.6153394040470745 5.636393941944516 -1.3986338398826235 0.2730832945180781 0.44711895351267517
P 4.664475508516815 1.0635426414990252 12.724191823766917 0.5567883304160605 -0.11111536532129251 -0.311048975128574
P 4.118775367068535 5.9888406365356825 8.218403471936341 -0.715163142944949 -0.12965250489353156 0.18937640311672546
P 4.6535479254271745 1.291229291972402 3.84718826058715 0.14739054560324294 -1.0851137775057376 -0.49220196189424265
P 9.117787017047904 5.560790820066588 3.511719607891595 1.3385255617368175 -0.24805411946359213 0.3254173280351041
Ni 1.4938196207187835 1.1264645159588433 2.7924311423939963 -0.956968453285352 -0.890572542358621 -0.6300776260285148
Ni 1.8850035562094059 6.592917791871287 4.6832425234186505 0.33499802974500376 0.28993867551252 1.0689633929981204
Ni 6.104435815399417 5.474827769995224 9.127680689624837 0.28074081106333587 -0.007524590511819298 0.6791059922110755
Ni 8.605992259750993 2.3828287520255245 10.064798347047343 0.15471073341374 -0.3009684509641204 0.4514823726876935
Ni 2.4721144392086507 5.3859585441394575 6.949355272399414 -0.834187221590357 -0.17862302125496335 -0.1532467472737038
Ni 0.7320032108920406 9.03463055418266 9.242538007658576 -1.0712287919935293 -0.08859301584906033 -0.8805298134106383
Ni 1.343766793769571 1.085941018105297 11.298666428630895 -0.3503248899100612 0.14098464207689912 1.3190692527844186
Ni 4.270285808663507 7.003494339605496 1.5436166259117818 -0.6860112039713412 -0.3254877762617233 -0.42572249011477004
Ni 5.498729028782838 7.637547657003901 7.979015163514862 0.49083079257832885 1.00615108565759 -0.2540381049611689
Ni 5.295649810652165 2.858002073036108 5.107292500443665 0.244332704747947 0.08184824092605904 0.022440331281387157
Ni 0.752055823804422 7.643278527008658 7.117745072662427 0.41417849403091245 0.505087302497343 -0.7800225626224954
Ni 5.190601967579176 4.373296612635278 7.102228266815422 -0.6228705667571144 0.17365796394020416 0.24388533279788321
Ni 8.218502155163911 7.229660000883297 9.141077164105152 0.4602526626811557 -0.6390428056416027 -0.6104655082245423
Ni 4.502897567008271 0.3248253497293729 10.529858900608776 0.15020358957200583 -0.3766051637628288 -0.2602938560628937
Ni 8.187575374853877 7.237446017003505 4.661352953912327 0.1501475395230898 -0.6004474618669078 -0.27427860037775986
Ni 7.408367177856297 6.138612804764282 6.92873681529225 -0.38836590384318276 -0.49658106479854475 -0.10671543648138396
Ni 2.1022877270059004 5.340971667277467 2.6414657219274384 0.6532306671062105 -0.7523986302576396 -1.0012338508616303
Ni 2.363590049402918 5.31439962389048 11.475668830213854 0.17123649898290508 -0.3576934144599904 -0.362233468422189
Ni 0.9799244497708408 3.3510289100804713 3.712362527257213 0.20567179784263934 -0.19287104653354525 0.14650968566018638
Ni 3.3539441393719907 2.620039691985481 2.6750026283391657 0.3386582522054103 0.811521404561725 -0.32548006295223947
Ni 1.2207205785489395 3.583704042975051 8.232780441237376 -0.382494018443438 -0.14621940811327722 -0.3468788403429897
Ni 3.349082406050419 2.794817646869911 7.30109488808478 1.8472260355067156 -0.07027339160426607 -0.103674335662215
Ni 4.234071780197425 6.834411040697357 5.938616305806784 0.08324872081801148 0.2611037535586987 -0.3231408732961016
Ni 0.8607531355960801 7.588722093124504 11.393514590586411 1.2790001526776749 -0.4698765589241649 0.07316768243292561
P 0.3218141532624182 5.706516070614104 7.746796327378954 0.1665383221762874 -1.2774232951088582 1.5147044923266624
P 8.561403737202129 1.48308216127859 8.015428369137506 0.20234556168288378 0.6603868185350176 -0.25222753411499144
P 1.7823186784938292 3.326475798780467 10.434877652098645 -0.9136435652454715 -0.19566814966270818 -0.4058864292254494
P 3.961968623810398 6.2729668503734475 3.659014736573116 -0.2393995291123877 -0.5721100483747954 0.34938695147682414
P 6.885834961119194 3.8374285799155405 10.519775104382395 1.3354304677512612 0.5170557877131289 -1.526267000353281
P 6.328962791889127 7.6882472968564155 10.021058138115299 -0.3625031771438079 -0.38913929167409755 0.5038565154140354
P 2.5957400788847393 8.448271112274087 5.7693383564956395 -1.3513515098568922 0.43169979074412745 0.6002124630379663
P 6.968900888913271 4.071226347692569 1.6548697427624337 -0.24370844090038674 -1.392095010322841 0.2185851634701977
Ni 5.324611979917914 2.913536285688846 0.3994045199524231 -0.38238731766224465 0.3040807713408569 0.43140437099089574
Ni 1.6392551590385704 1.177327118939456 7.113292557862523 -1.651541687894091 -0.5729438571300004 -0.13369967837971167
Ni 6.840992940371067 0.5823297258910103 9.245333730656156 -0.406407591836242 0.2128094373286851 -0.620984148367679
Ni 2.5270511203916977 1.5590501394933145 9.273041083835555 1.3511926156815246 0.031384427848552394 -0.14001353641288145
Ni 6.376231152544482 2.1400589586960246 2.707613360972873 -0.10019614730562744 0.09883577662299108 -0.059073409123388584
Ni 4.326761586056363 6.710070173959062 10.453800387322884 -0.3689116517733131 0.6585734194753625 -0.2910925866113051
Ni 8.219045365590903 7.466409211980311 0.15515900496293014 0.7039418203078328 -0.539083971157762 -0.09702700554902645
Ni 7.798184033772325 3.889848386120195 8.188072412394574 -0.2919258811458779 -0.4345768551816064 -0.49303551353913155
Ni 3.301877419944881 8.36198213594653 12.744439087082304 -0.03969217638329939 0.053809332510971836 -0.467635328298472
Ni 0.15090385661816547 4.857034551378091 10.108989420633792 -0.6004032388925337 0.4103879166402287 0.6205529743675312
Ni 8.435397025154394 2.246147955087413 5.783555984071424 0.6089529282347578 0.5514273232144632 1.6389615372362354
Ni 3.537304819002882 2.509107069286754 11.312367100950325 0.8239002378420521 -0.049485508324637356 0.4710001310056469
Ni 0.9425877864223099 3.3798552767394727 12.485241705089878 -0.3430674370166995 0.06018541124064473 -0.3507828033830862
Ni 3.0718821251567916 8.181464257550225 7.961378931651879 0.5637629619616806 0.46357298530364033 -0.1261732880956795
Ni 5.814406714921679 7.690999563019838 3.3707718930494677 -0.7896929958327238 0.6222535019984058 0.7227599814556004
Ni 3.307861788148901 8.509798746637962 3.6229066341402967 0.04647911739814575 -0.3011800527542942 0.25353853961693107
Ni 3.5232899899865084 4.17400176047931 9.421873498025462 -0.018396243119000576 0.8906501896740919 -0.5757288760743052
Ni 7.280178570593482 6.218763503266839 11.37471226700682 0.7306324422251417 -1.8369297957870299 -0.1949428414609094
Ni 0.5971104816094418 9.40261035093364 0.43341945153990263 0.6637919875618246 -0.8435097845428634 0.3897471004614256
Ni 4.537020235330437 0.545938248685444 1.6817948729269658 -0.5176911073042826 -0.33008028072841217 0.13592625371738526
Ni 6.135561772866015 5.617701165801036 0.4349169016169751 -0.8321293106200637 -0.10695969128170611 -1.429262620512074
Ni 7.999162838251966 8.710696069553553 11.116018260010073 -0.06043146581317979 1.40979602714703 0.791198890954289
Ni 0.11328200779546407 4.7819266563394365 5.6181339234412055 0.3551086844519497 0.268294357769867 1.2180884047939666
Ni 7.9366483716123915 -0.21680614562074224 2.584010355064575 -0.3152023351753152 0.5042761194499573 -0.36693138811849063
P 8.438755876294623 1.5383990897605309 3.8117030394439473 0.9998675666417232 0.3505933130800994 -2.040593562060705
P 1.6143036934254398 3.2854905720639787 1.4474692856850446 0.22851065011402583 0.08608619026680658 0.5090948809948395
P 4.586434277172407 0.8660421944535515 8.242876912373719 0.4277649744660955 0.7379207483564388 0.025662180652794516
P 8.325460288238485 1.536678923408392 12.505395717281964 1.0806678259192422 0.2855546875122114 -0.6721051354132102
P 6.393985079999979 7.634315554963302 1.1909110010170838 -0.17814299629475125 1.7750574837622655 1.0340089884101225
P 1.8645335766189526 3.403910445148068 5.902985323199005 -0.6378539275398241 -0.138129174905975 -0.09805467548259242
P 6.9667733147408875 3.9982460268262963 6.039666120137117 0.6408778019678123 -0.1364985812810875 0.46259648032298395
P 2.5387844656147083 8.424722940264017 10.227584026405232 0.19016418912534347 -0.13853952297051625 0.7549440223873127
