# total energy = -340886.39822750166 ev
CRYSTAL
PRIMVEC
9.09894490271018 0.00000000000000 0.00000000000000
0.00000000000000 9.09894490271018 0.00000000000000
0.00000000000000 0.00000000000000 13.31722560056658
PRIMCOORD
 96 1
Ni 6.584387796945947 2.2791947123885534 11.595134907875323 -0.16570477053139848 -0.03879177605621706 -0.3560152554266191
Ni 5.012272094097552 0.5438630455042511 6.0314512835699485 -0.13628235150522336 0.3680505893245984 -1.1653265397109027
Ni 2.8669956530049974 1.719564105236739 4.659883605859538 -0.0036301405534195546 0.8887051501325791 0.6905900815912752
Ni 3.649022671830735 4.259434490567205 4.539842135457243 -0.9881978436132787 0.46888488443485704 -0.09693264606300725
Ni 3.8408375296368873 2.4228215579115417 2.406276036473531 0.23924114915765252 0.6481977326679933 -0.12084467679391447
Ni 5.036720959090917 4.474679131535961 2.574539185255185 0.803231653749107 1.431506165130612 0.03193078727032565
Ni 5.725820453474064 3.1198553322627633 0.47432890844459474 -1.033875805266368 -1.5248379812162385 -0.547445969969212
Ni 6.150249838096511 8.546147617997123 12.297486105636342 -0.9188924723492368 -0.24040457333813436 0.11554640450945262
Ni 2.004606752667759 6.8338808665842325 -0.061792754723833866 1.6633222254687872 2.180886577387218 -0.12851710573750771
Ni 0.9107952872984223 0.22205156166154938 13.195492825853195 0.33612905802565335 -0.15644134295160153 -0.07679319500065483
Ni 8.133182903970747 8.82911570598695 7.218455962573467 -0.5070076594485075 1.4411768554511568 -0.08702747113415335
Ni 9.109954640866077 2.6231075334359018 0.9697346128961232 -0.9694038508352272 0.1817253143293709 1.7147723137189628
Ni 7.333331052051595 0.9754705877721253 4.929357958536689 -1.29223516331071 -1.7075156321565497 -1.5063131829391736
Ni 1.4631831342958943 7.6877440555337575 2.4069284308241166 -0.021592124348478944 -0.15440862879228892 -0.14655416574487665
Ni 7.645761523684339 4.275648810410218 3.7614637935434287 0.002961396621169094 -0.5401165261873343 -0.8129151995854581
Ni 7.939220695164061 4.373080312586978 12.480824386357336 0.31244071326977807 -0.7078342133837036 0.011394614990186827
Ni 8.418170957732263 7.159341027338857 9.216558789414186 0.7665062733036154 1.6303938501718824 0.22824916892252303
Ni 7.048879836040215 1.1380414366133815 0.312671593673057 0.33492552463585545 -0.8712494165499769 1.7203786041621467
Ni 2.422712370572532 6.555844406739698 9.090591176187111 0.42405718659720515 0.33354561356919327 -1.1387202499772842
Ni 0.8215364574465751 5.299980732389404 0.8940705166455364 -2.085937794523459 -1.3282987418024865 1.3184074508307038
Ni 6.7809614029439595 2.2139552773299647 7.18200649912839 -0.4928226261973771 -0.4167591102738952 -0.10047588332957534
Ni 3.6384314999467464 4.3396234921252725 0.4126544400046886 -0.40007727874284005 1.0583393376253707 0.019116409114476755
Ni 6.589146545137807 5.966978889567907 5.007263124920459 -1.8138464316050051 0.46331818898035687 -0.9652939424319117
Ni 5.340034287916309 2.9403058522054226 9.566175739030324 -0.352987781454205 0.4867018580116198 -1.2455503576596614
P 0.20860150128447738 6.163179438824302 12.233176582748321 0.6371427604054123 -0.7631335001766405 0.09405403896363157
P 4.283200934691757 6.3162600881165885 12.707869448989618 -2.399156523609842 1.3086534567677333 -0.48732123676317357
P 2.6721599454862295 9.04658048951558 1.1224422054467924 0.6904844092513464 -1.6331307894870712 0.4069560081405443
P 6.560493967592549 8.031693272360775 5.7430402067304644 1.1206330534582702 0.14529715340932395 -0.24094579055358506
P 4.56252034576966 1.4524645771830604 12.613184008388963 2.3680371764972183 -0.19911368500914742 -0.5601531331232352
P 4.4886733088191 6.157228728848246 8.097965437667503 -1.647374443890279 1.241135002200785 0.0768988673405837
P 5.0997402515896315 1.290012014625732 3.8981117483146828 -0.2554856360409729 -0.7454062581002066 -0.3231146480438564
P 0.4186743019621171 5.722790504816532 3.297171931237346 0.2468480149706329 1.3338916625092319 0.3993306303848026
Ni 0.7522898470463122 0.2981860733643718 4.344904519755399 -0.013475408778615503 -0.03946180554004817 0.7208663639773134
Ni 1.9838156635312354 6.412617914793081 4.811740447060419 0.751129533737229 0.7666785372154216 -0.7407718446519888
Ni 6.380817102306363 6.012691988833505 8.997104066632096 -0.48512114378806126 -0.6939934508458693 1.2053377899965176
Ni 8.65105845289608 2.729055648055456 10.195294988517208 1.230211927530378 -0.7901154280821231 -0.292623935654167
Ni 3.004353325479817 5.276933104913336 6.766735202565424 -1.2994260246321945 -0.37821930232748413 0.08123657548398912
Ni 1.0343680582232055 9.096633785506834 8.80546936793531 -1.4137172165783074 0.2030014500993278 0.38471519446447294
Ni 1.7984792545063544 1.315025014203983 11.085165432188818 -1.170125760871759 0.4497725890854383 0.9400889039211938
Ni 4.0813317427517495 7.121271041803971 1.5130635503337162 0.5670262060939847 0.24052952895177285 -0.250407193076801
Ni 5.720333789688803 8.031756964975198 7.774609862872298 -0.18090487531060456 0.47125389888766583 0.9426178409906347
Ni 5.701380687425617 3.163994314057633 4.86022781463137 -1.5174828264027478 -0.9809892416799814 -0.5905176043477056
Ni 0.909833528820641 7.501579642521382 6.7659899989766785 0.5416967261902607 -0.4280310836432887 0.242287392183144
Ni 5.31886104309325 4.411268584405793 7.212742735059758 1.3531929339410051 0.5731847694962128 0.5218640077350496
Ni 1.1319087477389758 7.606244805907568 10.754205869126045 -0.5029000650380371 -0.41707741284526234 1.683276814213843
Ni 4.8772437515216165 0.7331283789445155 10.379059099860342 -2.035942179331623 -1.0117272941937867 1.374529233524936
Ni 8.570232525193788 7.412810335906097 4.5663036870663625 -0.1329157490258356 -0.024712415145015505 0.588373047200877
Ni 7.744148415077438 6.460350979830369 7.044678853171797 -0.4628029399068352 0.06805581512765699 -0.6262739360117086
Ni 2.588613433253599 5.596488050416494 2.5205114701239597 0.3186555838312383 -1.3962493988108469 0.6587521111450719
Ni 2.694252183745958 5.512240919425214 11.29061050948141 -0.002910488778575633 -0.3755769796086306 0.32760019461903583
Ni 0.8548231276383235 3.6934164240832943 3.8381578903586786 1.8795874825565564 -1.3874050610463395 -1.1321472247454565
Ni 1.653842426097522 1.390264189726922 2.4242282547957896 -0.20231676532747736 0.48676922091444563 -0.4933152495630794
Ni 1.3081735086810937 3.5330657178019123 8.21390510370098 -0.6631985769521997 0.45299932355285205 -0.4556331616312734
Ni 3.884412376846871 2.8674960949754604 6.620405970401933 -0.5916514608418326 -1.8150983017342353 0.7497563075387862
Ni 4.085298882735787 7.328463116520725 5.9385501460676196 0.7921903083332809 -0.56662074312545 -0.712078076261722
Ni 8.45045401429961 7.719717747973909 0.04975303080897685 -1.1635769040096478 -0.1984038034263164 0.7338352654331555
P 0.5172550008819594 5.752243789514531 8.076524683863868 1.0001994960598453 -0.2750995536171585 -0.43322934001477653
P 8.960267898028023 1.782474210396444 7.871852106994774 -1.7926975654415318 0.03449546267370833 1.1862866869023374
P 1.9704129176677345 3.448072473327396 10.541782810976212 0.40362128734035646 0.1556556138255126 -1.817757336623637
P 4.343208476422774 6.34877971725179 3.895168239633866 -0.47909242109547817 -0.7475425877169191 -0.6587066026191172
P 7.027333534475537 4.0972275995226495 10.27832832025649 -0.09903709400051976 1.2518685865682053 0.17741023189378477
P 6.51807468638709 8.117723796555888 10.099716941420144 0.4168413855750563 0.01416292176394335 -0.19597359671826894
P 2.356399260013676 8.617628929269127 5.582661293719838 0.4883417076078879 0.1681645449258007 -0.5564761984922804
P 7.210713670343152 4.345301233753803 1.4939530363234577 0.4054040902723921 0.024180711011261583 0.128449742834682
Ni 2.685626383964153 1.891916319864325 0.12392126051512407 -0.09080185057492103 0.3658273564210345 0.6421011328519522
Ni 1.592870396205248 1.2815499958524421 6.7726486068673175 0.4306564370812777 0.5092486329638842 -0.6629777191906453
Ni 6.757404234552511 1.007071223470658 9.277471676164497 2.024784877163223 -0.2422146299636796 -1.3556064284785039
Ni 2.8393075636209963 1.784940024469091 9.024791246121604 0.9584157272548398 0.2394452947486586 -0.3768743582638155
Ni 6.492934301579994 2.45623288364866 2.645280752305396 1.2167177496986852 -1.080981500504919 -0.3767609726144028
Ni 4.5511193677880115 7.18640128952355 10.60420066321588 -0.1650177717667029 0.8919509107633864 -1.0171422945617707
Ni 7.359190253507176 6.511796414394005 11.359233842154822 -0.44150392131874283 -0.27749762153568985 -0.07513303368941254
Ni 7.923306640503325 4.3136551033306825 8.108765885284594 0.12810984299676 -1.1488126012162796 0.43041861003885873
Ni 3.342097061873089 8.671485584235905 12.087060265895902 0.36431066266619194 0.04851980197725837 2.3245649642461967
Ni 0.41548967124098657 5.185152047530353 10.324978610848595 -0.3543718062859252 -0.9788840224115206 -0.5768812445111936
Ni 8.672486468176832 2.5696967267700828 5.674736247023656 1.9274529387792676 0.9554602441709416 0.5498946886200208
Ni 3.9143206087907454 3.2957925311878506 11.594775499551082 -0.6002834254852178 -1.3920988669775831 -0.055107225386788965
Ni 1.1312718215947497 3.5118651761441 12.497830314408173 0.518835762431687 0.6292687569739743 -0.9766312218216018
Ni 3.1035409240256575 8.705215373045137 7.733685538316787 1.009766313812674 -0.3205872536363124 0.1835741946126516
Ni 5.828456552143645 8.043995045889258 3.4942532583617565 0.32744207177461676 -0.1673649318426408 0.9542685378556856
Ni 3.3622057301407993 8.995053164447686 3.392576188486484 -0.24524338948767443 -1.4278937651890053 0.4588457550313001
Ni 3.4679809648069213 4.340406001388179 9.030756514409529 0.33065620783654026 -0.16806452901282667 0.6839509790082028
Ni 5.207544550972361 5.078021070071522 11.134519019315915 0.950228563458357 -0.98908435998329 -1.3341508297078892
Ni 8.480289454684144 8.66530740063691 2.405024021652881 -1.3031636372977558 1.7475618494451581 -0.3310652703495008
Ni 4.9173700986078615 0.3207978613788905 1.7327976107247745 0.6140707090772972 1.2427208586306662 -1.904037902289437
Ni 5.9622565371557155 5.33193622693972 -0.021680056054965098 1.0445523111436077 1.5103876101188634 1.527926133223259
Ni 8.489552180610175 0.1474010878747738 10.834655100508755 -0.5982229434117632 -0.18336953480101323 0.41463435062140847
Ni 0.049488251511877135 5.121432136272991 5.560607271028762 0.09078873794879849 -0.15201158931502204 1.2418112023322032
Ni 7.619738541220244 6.3637565805860214 2.5088857482028497 -0.8035180746412743 -0.13137205868779955 -1.1657772540950764
P 8.76387627092836 1.8307168163491132 3.1272973593107993 -1.7151392101400784 -0.23417556170928702 1.0513248539807507
P 2.0418851299948217 3.6175312234712123 1.6352487321585782 -0.29041047294261596 -1.1540391397225414 -0.08659732557527022
P 4.753379814359473 1.1818710542810555 8.051608133101743 0.7214080954133962 1.1082043407766142 0.5039645017468095
P 8.676926753296579 1.6985637403671126 12.335599766106832 0.19064164298239425 1.136754641610481 -0.8285246239879408
P 6.5613219715800435 8.092164860282587 1.2418285518150265 0.7116314756426066 -0.3689013673606679 0.26082478886569915
P 1.9161559091245874 3.4042428556597226 5.853093765296802 -0.39815692179167556 0.22986330748717831 -0.10936675806130197
P 7.078751672204419 4.069484916469143 5.9953885252838655 2.2992478256376465 1.4372073292804473 1.1786921623845314
P 2.792138633168594 8.745041454949103 10.070046191938616 0.7458621146907026 -0.05248341461069671 -1.5868982408820929
