# total energy = -340876.78676793753 ev
CRYSTAL
PRIMVEC
9.22417353029194 0.00000000000000 0.00000000000000
0.00000000000000 9.22417353029194 0.00000000000000
0.00000000000000 0.00000000000000 13.50051035533021
PRIMCOORD
 96 1
Ni 7.196930882574541 0.6653977573452041 7.111123929654472 -0.10910039177379276 1.0392671514852683 -0.43010185012938834
Ni 7.159148667322498 7.593634918547347 6.3006068604311505 -0.48403433848178573 0.8287297980202114 -0.9778964616872706
Ni 0.3664579705891523 6.883318202800563 0.018432666195839286 1.0551439706165247 -0.02702640799017281 0.46160891959873407
Ni 2.2702259451140354 5.4869258996474155 8.564291944013148 -0.11234743795618071 0.5481828481352365 -1.31448934672322
Ni 2.585886391437318 9.033168681840584 7.21060940967348 -0.3721949505102752 -1.7392247903343723 -1.030432583912774
Ni 3.6430781571238198 1.6779878762035307 11.067029789375034 -0.334866646373462 -0.9522849317667536 -1.1980276294883496
Ni 5.016705199719828 8.664939669911492 7.022263775257735 -0.7964809652888348 0.6164944880274414 -0.22754160133253717
Ni 4.639141324061471 3.8134763168774803 3.398794366469558 -0.858692662930889 -1.2167737997476011 -0.8375088297644221
Ni 1.9628026858562004 4.634021907688209 13.290077775961702 0.057403477620133404 1.2253720829395736 0.9143537039386188
Ni 6.024123324415113 0.8900654203249068 9.045422996528655 0.8539014121898327 2.805785744538587 -0.24323587213934234
Ni 3.8183374563886683 5.090517037231265 1.3790905206462487 -0.11030983870086163 0.5004253782452994 -0.23991092153116747
Ni 1.1897339167989547 6.429581101177516 2.5683235648162515 1.0211706989948734 -2.485039853837223 -1.9129334050068538
Ni 5.5745002042379665 7.806252121076545 3.6431667091908166 0.2876403663966466 0.06388188625562546 -0.24893369385506806
Ni 3.0923027487499204 6.468073577800264 6.340636084383242 -1.27999465538046 0.9125390193273832 0.28255986654994564
Ni 8.798939240459937 9.06156068832149 12.645347702086646 0.45131679364410654 -1.2724561809115698 -0.3009712791775978
Ni 7.795727338947009 0.8005106856526629 10.534529313827637 0.649404608491901 0.5797883908556596 0.5701606379579083
Ni 8.842744841102503 0.76182265654863 2.2417324727230294 0.08146000434870486 -1.4335519919160473 0.8209123588583216
Ni 4.898165344201272 5.599968147673243 4.990558357104242 1.405913147152856 0.57762197933196 1.4857528422893187
Ni 0.4400401261768166 1.0304601104617896 6.914435030176355 0.3236669210029007 -0.10456985089329086 -0.6959454323659175
Ni 7.633750849731707 4.464481596083582 8.279255754192986 -0.8077493391138024 0.4479915859256156 0.4343014900330327
Ni 5.225466697665199 6.260382083997774 7.4412921562874255 1.665425902075351 -1.101236136988897 -0.6157293277266428
Ni 8.320232300778473 9.362628491937562 4.960721845030449 0.6478426633214197 0.3049428622308361 -0.852930563636131
Ni 4.810554142916138 2.26684067338613 7.313077987449449 -0.6422577130344745 -0.7770555095743714 0.7294944719659565
Ni 6.099816893350236 2.33801439723495 5.3035677759218025 0.13106609741160655 0.5742872585317723 0.04284306330745524
P 3.796706769189928 7.349627853102452 8.439155881920682 -1.2100835322116192 -0.7012663303581987 0.17084749107460254
P 2.439443410641069 1.85717667344137 7.512574725385261 1.2127147991868792 2.312744574572501 -0.6929380129981614
P 7.521142137867219 6.398624774423157 4.008747460866281 0.4112911451807884 0.052639737682902886 0.9386046060661836
P 5.71443091844048 4.238277185774536 6.701289282497269 0.33625555630118864 -0.9936802068840885 -0.22887034744628973
P 0.685167006302279 3.9921854570857525 1.7441039856425125 1.1197483368604715 0.9797317151237965 -0.5360480125449156
P 3.7602159382482574 6.046897809145898 3.311108449377896 -0.3742155804847297 0.8935570789082418 -0.2019051317113555
P 3.0013616207787552 6.9130753869810055 13.468500966786964 -0.5660674417251413 -1.1943751203374269 -1.7830245611281421
P 1.307268337390149 8.714685638381773 5.434468946542718 -0.45889023511599036 -1.1967348788188552 0.48261611797802045
Ni 1.8702473274970695 6.953790889452324 11.465375728256744 -0.7162052110562183 -1.6223835782728964 0.8270729791430788
Ni 8.222889596297318 7.496513594233685 10.21911699777542 0.347403345387892 0.3601673299217797 1.0337979008405809
Ni 6.0724395459703375 7.891437364692907 9.03382636542151 0.5212356301224313 -1.783272158362574 0.5916722867774391
Ni 8.261806384907759 2.9220521757745885 6.323477276567847 -0.40041640724981364 0.04938343552913431 -0.653471836582739
Ni 0.7923952576793359 3.3089693635095 8.056213390609624 -0.19991046987882988 0.5242718458455939 -0.0015346914769715505
Ni 4.382008259519003 4.378659884485679 8.826863581337015 1.1175513292091526 0.16882763243109633 -0.8792545462426407
Ni 6.38390299328491 1.1236888334970432 3.2876034100943863 -0.20276825104259916 -0.9449328622770565 -0.34545393497100507
Ni 0.15633590703106745 4.524844588419854 3.9534356260182943 -0.8736832228024503 -2.187566817620871 -0.7965652974725248
Ni 1.9357205120329588 0.7687813731468089 3.870420830460723 -1.6882390433151246 -0.9089294475992539 -1.1291940556544036
Ni 2.873265521363442 0.6799737965398522 1.6624119365857086 -1.36527171948241 -0.91175688974572 -0.46050771611475527
Ni 4.4993489724636415 8.509226394601498 12.810026874180085 -0.1594076246687771 0.3933831545521161 1.1906578193868396
Ni 8.316837804876922 3.719177589699346 10.679525021778904 -1.8623502927426636 -1.2952513244292145 -1.383268927390779
Ni 1.7294772134928142 1.0844768713299449 9.397705257059375 -0.5946822772483565 0.6179882989641485 0.10041751928781416
Ni 3.651462930967596 1.6778033927306206 5.063771545746086 1.3346136282769208 0.2254404958291343 1.2276269404120213
Ni 7.99726630892794 2.994009954383277 1.82996720602182 -0.6123061609777067 -0.6199155978938485 0.17927171058255575
Ni 0.6650204886431025 2.0336443394537813 11.423187125254238 0.6493907245348299 -0.4717802037047811 0.5937687642951516
Ni 6.2913476349257795 5.345002763937471 10.473992907026828 -0.7769457234693844 0.36519332238146135 -0.4703061902624158
Ni 5.885852961468793 1.4127652113739422 12.189907818008637 0.658400384232608 0.45494462020468096 -0.17745651175068794
Ni 6.470896174935793 3.739858187012598 12.81704739274169 0.1636499448848988 0.0735471772595314 0.2245023002855811
Ni 7.666801063903599 7.840123286702888 2.4873749841552764 1.1024108740232885 0.06289483975200781 -0.8642891831820598
Ni 9.85907351753936 6.571402770977361 4.591726304271414 -0.584234342442155 2.3013468742585204 3.1327017686064047
Ni 3.897360952009824 9.376741477615205 9.124252784503255 -0.8297626101600999 0.16750608540619538 0.25051620785083956
Ni 5.53361866664103 2.9696581359591083 10.289360002503406 0.8608811859417753 0.16238573346049454 0.5829233369402154
Ni 2.901491492718728 2.9239523555455653 1.2615385741251275 -1.0068159729350983 1.0105828961766983 0.19966107287218518
P 2.6961521631958445 2.6836995287743943 3.3715636834506233 0.23176669515747825 0.3171581733501054 0.8405201057869203
P 5.216067264720416 -0.07646655468661787 10.795412927374374 0.6344459302995396 0.41201131117626466 0.7651351039877017
P 4.90810900339114 9.46898321407039 1.9481915948016995 1.22855613709451 -1.1131143764837217 0.00018511942761258442
P 7.407149799955904 7.146253272566063 0.14780631366105668 0.7382624479665737 0.41203959331103884 0.3375889304006315
P 1.2132555595950263 5.050936108118346 6.264763566479394 -0.1999302673731718 -0.3584639740774278 0.16022189303995632
P 5.985898348828084 0.01503909271165309 5.2809537918124505 0.0867860445473086 1.2126032133096794 -1.348046356743059
P 6.025202552731638 4.030604140319336 1.6216945892796617 -0.19408769254946576 1.6363968618328526 0.00324087553480087
P 8.096204795449768 1.728139708314214 13.16577926883625 -2.6369182600084913 0.8592940439603136 -0.6146054985348448
Ni 8.092967110500192 5.4674997899499544 1.3780242061728265 0.07073541884234913 -0.6923068071720658 0.9006481814270683
Ni 2.59347788634758 4.61197613267542 4.52457432013204 -0.5484723543511972 0.6344593000359783 -1.0639312298908516
Ni 4.228951546218917 7.197355194562236 10.771206850893803 -0.3896493985412967 -1.043425910848648 -0.962895360292748
Ni 4.767043715830229 5.735646517825172 12.785955470634741 0.3458393433348818 0.35835444508275704 -1.0817047518241887
Ni 8.845493644848869 8.97828484864975 8.583692226024402 0.13919952515201833 -0.40232468001612 0.18634018739356295
Ni 3.2431641087223726 4.095164131664319 6.732286195615669 0.33680551526738767 -1.2339451693205652 0.6234570353882037
Ni 2.3372303424750807 3.6623290075220165 9.91708342317866 -0.27375666643601887 -0.9726439550390799 1.6846551826186082
Ni 5.829603950578422 6.411926032819994 1.409966597089892 -0.058474856307441224 -0.10190875912135998 0.47577749778963224
Ni 4.020642032782177 3.390354247583909 12.600931461148747 0.3940351863138182 0.7497858752251408 0.3349728329340231
Ni 2.170484955485046 8.98427133734569 12.53831592560824 -1.6162568965498683 -0.9814651528751356 0.413761718208468
Ni 6.794304927121312 4.426524121532274 3.8652368448719416 1.0864607784519353 -0.9671801037110311 -0.5467456014680777
Ni 8.011231707827255 5.661069073901156 11.967959441419634 0.4903988472472328 1.073308043120061 0.7513367646520287
Ni 0.45126871275550606 7.15323597201572 6.962415491810884 1.0824159189586005 0.14713086418395308 0.02561101569988492
Ni 8.867198125436774 3.797739876638226 13.168465348201824 0.01620309212242371 -0.5343518557894152 0.405759930949914
Ni 6.564355502312185 7.63014419783631 11.789806518882187 -0.7492181756471291 0.1762447508307739 -0.43010956343887213
Ni 0.18402134181072619 5.666492888004721 9.697456771096233 0.6147096282128769 -1.1322408129005275 -0.04825574968259431
Ni 3.496210864339877 8.092164607393032 4.6023507074763215 -0.9150587004254435 0.18781317239466366 0.3180560025740264
Ni 3.6685368763854505 7.678921628073811 1.7893983679114658 -0.2612361653715049 -0.5530666585900992 1.391420609963636
Ni 7.645207273399441 5.396086237586352 6.057314668443782 0.3660901231641179 -1.1376630123573632 -0.2906292738216414
Ni 6.652031272812836 0.027579356782735265 0.5013375273033795 0.4916172930353663 -0.14245531308515466 0.696443969268891
Ni 0.7704491037419188 1.6830150508403385 0.5041877969598447 1.9849206939784334 0.561386234199388 -0.004677350871011299
Ni 1.7891852895002545 7.619241224587307 9.265913031264303 -0.45460266348422995 1.179279402346569 -0.90322288413278
Ni 5.229488437374645 2.123045030426145 0.9206564698029038 -0.03994465871373766 0.07718708800496384 0.4097448837395911
Ni 1.4457508563303159 2.726914782303648 5.534898981943027 -0.30754224752689613 0.20077667453386713 -0.5047083218913694
P 0.8688286053408298 4.395567794777914 11.533756372325701 0.8112871770637319 0.9836403061495835 -1.7818367114676281
P 0.8080671287030716 -0.3366426741147434 10.759893401917576 -0.9170734168626271 0.142845863655354 0.03106921060097875
P 2.929874275025988 1.5462759007191746 13.018960864172628 0.25783125345501406 1.7483259813046923 1.4611718105158447
P 1.0827611750318784 8.256797658618243 1.7803125568706304 -0.3981391811798627 2.9138492104074336 -0.6622560105332724
P 4.077167768881912 4.743522073034157 10.908966194620163 0.7714276218646328 0.10002748293824709 -0.32325631582804326
P 7.916029011631859 6.896102907473252 8.121542678036644 -0.47693320866063027 -1.308966360022462 1.4930712303276028
P 8.236910340238506 2.0977431221164884 3.891522050092211 0.5548708016783734 1.4448797582240407 1.3639324318456962
P 7.982867373867285 2.376977306713619 8.788859063500114 -0.37398829496527203 -1.1140564286820167 -0.24520893670531316
