# total energy = -340887.2299644023 ev
CRYSTAL
PRIMVEC
9.07948101758221 0.00000000000000 0.00000000000000
0.00000000000000 9.07948101758221 0.00000000000000
0.00000000000000 0.00000000000000 13.28873823723388
PRIMCOORD
 96 1
Ni 0.3113971344070225 3.185208949810629 3.137204827288313 -0.7480676069824537 -0.22578553787337888 -1.4695389515336175
Ni 3.274941457780603 5.7421541516206185 6.234703269485632 -0.2933608138201916 0.026100296631477633 -0.20435770701690614
Ni 2.8282582447280067 8.117083003407936 2.1188493616237296 -1.0668980258286593 2.1882841554028705 0.5329305499618565
Ni 5.129470792537967 2.594743080053337 8.54083144815818 0.3460949109891136 -0.5466059905664199 -0.2484685812931914
Ni 7.123524507541672 8.088909374729313 7.33724368039939 -0.4297447239002857 -0.3028093608276011 -0.04970379498303053
Ni 2.501569448889938 8.291127569357185 6.111265005233463 -0.5342677807160412 0.17469488984515075 0.12094572114815298
Ni 1.2357990415142353 4.810563111678171 9.60816980436685 -0.9223084400093213 -1.8132519925541157 -1.1221350919250932
Ni 2.696206277115409 3.421121097395758 3.226983640609966 -0.08764530722381035 -0.37683167795133815 -1.928527659900685
Ni 7.114236198763641 4.063231053496591 8.907028696407513 -0.2590335012932313 0.05944930440556858 -1.010508848405653
Ni 8.635176332334645 6.151121201756361 12.870474440879354 0.224056213887098 0.12770000915285104 1.555960927873288
Ni 5.210450681092475 7.4695889152392905 2.612180222778859 -1.7777088053421835 -0.3624725810161886 0.5652215487850781
Ni 5.637549454228928 9.176449575543183 0.6970126680752974 0.7220480429902403 -1.5206131445016133 -0.24380022928324468
Ni 4.2225850196385535 1.7296592363954244 1.8235601339646106 -2.5341322404885007 -0.8947719251519494 0.6266007232235079
Ni 0.7551839931094798 8.478092236373042 13.144953498724936 -0.8267168813552408 1.4223772062461504 -0.4043100858772649
Ni 6.529109063670555 6.228487456983736 0.7471205062807706 -1.693546314460651 2.7865297245224525 -0.8369429299586232
Ni 4.444206064568139 7.691573139397733 7.42494964827234 2.6789725088660634 -1.201689394610653 -1.647050484891957
Ni 5.556614963078029 8.93975659261601 5.268465839058248 0.6608231347414877 -0.9107906691777089 0.0799458816970236
Ni 6.951386632543926 3.972073067053351 13.16803626256305 0.2097554809937097 -1.3823340742813353 -1.2581909292418074
Ni 3.0922986235881518 5.6317113481250445 10.558127725860695 0.5899020822508937 -0.07419638080775609 2.014110942389144
Ni 0.06146536063992034 3.055535806147048 7.270879939910254 2.0044955307865675 -0.7884249277535778 1.6237298078881455
Ni 7.821963562038308 4.580625262407748 6.294675963494948 -0.6482447838558448 1.4066618523934225 -0.518217669231714
Ni 5.142663278026217 2.1723837958534737 4.9155573187928105 0.39437148660731436 0.6148790639112056 -1.5573678355231437
Ni 0.8259939553079045 6.650020508437948 5.984277571967284 -1.1259956033217642 0.5548386628888573 1.806521615808818
Ni 1.6047255816684345 2.0556398327372207 5.030478122180198 -0.2707446190825724 -0.5274584711036916 0.38970236326641916
P 7.791883242408183 8.268910080031826 0.8186277725986016 0.08963559818096176 -0.8802043117504196 -0.2833275979539056
P 1.1354889385037856 5.347732429600621 2.70550729716645 -1.2102539963512122 -1.7062581056003647 -0.24882647885324247
P 7.800826530918799 7.988544794834535 9.508464394772448 1.6251580556942398 0.6395007191146277 -0.2607761950159509
P 4.180792169877773 7.432571872337987 9.728007146564897 -1.3964610006010207 -0.3318101189353253 -1.4068289740989062
P 1.2778642756966585 5.130651125031754 7.43411901585292 0.7304820326902065 -0.5409765601947845 -0.7596010615433498
P 5.76956510391864 0.5740710514185909 11.728773321665962 -1.3252995499648466 0.7139498393631383 1.2419662398528288
P 3.5938400591596777 3.505188009395555 9.776271850183917 -0.6535793086948808 0.04877742651401922 0.6487901148363536
P 8.159275350320458 7.915273385412529 5.261835094287382 0.5248210334808445 0.8803007281189676 0.1764542957384187
Ni 6.674644060154488 3.702902781585593 3.9885350735493907 1.1561795831043118 -0.6895405572808383 0.1465258836101025
Ni 2.522207108569767 6.920725226147628 8.35922730656026 -1.8807660762456901 -0.4191738903629749 0.5326027343087925
Ni 1.607331392635487 1.955711067917072 9.500703254651762 0.7177561004831058 0.3483603099845226 -0.4260215094124276
Ni 7.122652877392414 2.0150636333931136 10.520800164718716 -2.450490397997128 -0.8568044447692406 1.085332835495079
Ni 7.295735018385191 8.101802237353755 3.140819368563517 0.8060531823583021 -0.3804823873300479 0.23893158833703368
Ni 8.603343672925282 6.153445548821048 8.165039004682429 -0.9678041104482753 0.1962672166992878 0.7164965170443919
Ni 5.518989594968388 4.387568263827807 1.7688771454236047 -1.4879300524462955 -0.7197913857455798 0.562654045168218
Ni 4.698903657765924 2.51717707625009 12.885637173684156 1.2898887745657206 -0.7061252011123968 -0.3186195883869803
Ni 3.67712613581743 1.2822133469622274 6.367059399702398 -0.23942112637894253 0.17304629849813422 0.9322755785243622
Ni 7.9795470294395905 0.8781773628062985 8.579886834481446 -0.272461344663363 1.196523277028681 -0.24039274626359247
Ni 0.34951370242369223 7.241421564709548 2.0065461725283322 0.07786380235701428 -0.16813214902596849 -0.051292222516072954
Ni 8.895203580715913 0.7509956286526804 6.284695798285943 -0.6401854038864782 0.15082862475051442 -1.0845982713218998
Ni 0.08589733531323845 2.6441717731008465 11.869328222974186 0.07687315630897083 1.0010533594197084 0.23605092435512898
Ni 3.8875794194596467 1.412939710389495 10.730562499878033 -0.03988963710608614 0.5758288919872793 0.7437761786959514
Ni 0.8549665782900139 4.217718417971862 0.6313090058346096 0.37272279798928715 1.5617096574316072 -0.08828345502844151
Ni 4.46416276319386 4.87564482948944 4.009437854066286 -0.11278632526581221 1.0978883035625866 0.5594183118397397
Ni 4.339056598333163 4.998653634303485 12.851764354956687 -0.0008083548339082853 0.8793347646612727 0.38907861363949126
Ni 6.478463720206373 2.0333587870468115 1.8080124311772199 1.6021320271127115 1.3483070666036134 -0.26610352076613525
Ni 6.4259026063099665 6.627412601441567 5.543250875404143 -0.8888015665011274 -1.1022681777978371 -0.5172373075963156
Ni 0.34363564660463314 6.991517937332683 10.473651329280361 0.6745517971814899 -0.04726973162024117 -0.13664616260254533
Ni 0.882984039900228 8.982157767585127 4.174112395911011 -0.2623921333528191 -1.499303841500876 0.3461738438561651
Ni 6.290246084850958 6.456255310361734 9.72021967595012 0.3555822816542586 -0.21574717980077038 0.5506948159238129
Ni 2.9761902241223996 3.3903234987886397 7.424657288993108 -1.3849231751647504 0.5081700551877248 0.8880585176875156
Ni 2.028982477339078 6.679846602607872 4.1030836182272 0.4891693457155059 0.7263901220090199 -0.6837337207910741
P 4.113722045788509 7.253342922896796 0.6569739739898991 0.8339285686123314 -0.18008829294658016 -0.9745370582967345
P 6.394206139111426 5.709413544139112 3.398979875708459 0.8858023746634873 0.8156084301469051 -0.9168026796997436
P 1.9345467983553994 1.0589670749835043 2.66091070375889 0.6291664270681552 0.07479390518243893 1.033194462928627
P 1.1870785479629975 5.362631857464501 11.781051155763857 0.8721089363367948 -1.2487074152314042 0.24642018340459496
P 5.564850052092373 0.7046966326098505 7.38327573970901 0.2681046103565641 -0.21241271611089868 0.49551817075166915
P 3.3378441002187267 3.379555234653014 5.253436574620052 0.7966750835775118 0.655091117353717 0.8070916509251456
P 1.581037216466202 1.1228684603009864 12.01693878875104 2.4150346282926796 -0.5591277771825145 -0.18272290235594982
P 5.554381410820555 0.7554073483352274 3.206067240871989 0.8251058281143788 -0.983479612202003 0.7105773233464795
Ni 3.448159790984201 0.14582644781509144 13.075347475670176 -0.955193106552484 0.4523627184101177 -0.5498988023850787
Ni 1.2986926044716376 4.465969579857426 4.996379224382765 -0.12058550959525684 0.03847861569117244 0.8292854134133655
Ni 4.708618702137862 7.302199608658856 11.736373754977876 1.4059393724051015 0.28631213450352627 1.6273666333097843
Ni 5.79816546819117 8.896792489842165 9.730186221938041 0.3251270504881949 0.6282626843069631 -0.5791826389508606
Ni 2.483319692639847 8.088301049520977 11.039459145294371 -0.5561419550813133 0.8681682065214918 -0.308845539719352
Ni 7.296307025670642 7.742499946764281 11.88838423711234 -0.8794846599755758 0.8435864034170697 -0.7449773980929041
Ni 3.424580379550626 0.4324629303466797 4.16667085351172 0.11048287394361618 -0.028290876524893212 -1.2843089664850977
Ni 1.4682246685023321 2.012258073850189 0.8424577777000883 1.1041044596756275 -0.475075329516285 -0.6213248195365493
Ni 8.242370757883062 4.801864969147033 10.972364506607159 -0.3131868474071832 -0.7714651599707875 -0.8427171134382389
Ni 0.1405403741390701 0.3520541411295507 10.67012584440385 -0.632567225219588 -0.3258554440137872 0.027485092794146213
Ni 4.435171981250307 5.368742347990028 8.64332698217828 -0.5260001413906102 -1.290751379676332 -0.681540055573865
Ni 7.758216527893089 1.2061000600744107 3.9483629110973872 -1.3060576710160992 0.5244284260281161 1.2531921904756353
Ni 5.137860232724576 4.175081176503988 6.381331435448426 0.9229363034013073 -0.09410468969590889 0.3918970569248928
Ni 6.857976934881768 2.3075137074306387 6.551932154360034 -0.007096501835465197 -0.13129106893821904 0.4790389421497234
Ni 0.6839046217577569 8.40200618792739 7.931954207393955 0.2264429689517197 -0.4733701738997202 1.043339778892745
Ni 7.876830864037959 4.842223260953826 1.8228165244935248 1.9425514849836027 -0.4742507767324607 2.063015638509647
Ni 3.6562433301581225 0.2800829133468542 8.642689602631634 -1.734029105066046 1.4527180233215369 0.5311688300757432
Ni 2.0663173020656322 6.671284652287556 -0.025685850960948733 0.9358746087295301 -0.8730193639662062 -0.11557571508549126
Ni 7.608305221701424 1.0723139116440186 12.721680818764497 0.3470991838839119 -0.5671964131232619 1.308068530798541
Ni 8.930005230321186 0.6390492631496357 2.1145574910867055 -0.16352936014663452 0.21724047651684522 -1.609402078411564
Ni 8.533776691637621 5.983840848944583 4.158710872763235 -0.8379109502988472 -0.2637854141559199 -0.8313566941200973
Ni 3.1371512583520564 5.89954694992675 2.0789432279568643 0.7410664930742721 -3.0736998361509 -0.3522578452667159
Ni 2.5278091481748945 3.284420435653784 12.099967008156302 -0.06785526908107668 0.2752635899988485 -0.5434473903327802
Ni 5.6712070892633 3.8287080664618416 10.901084227307363 -1.4442202702631708 -0.059879449964451714 -0.2727737336974593
P 6.265413705077824 5.685189489574315 7.674431987743731 1.2738831431660835 0.36731371115857386 -2.3284565859911193
P 8.399127992538693 2.5618753598417303 1.0314771312032058 0.3309266878891075 1.191573903443206 -0.5278441365778844
P 6.392072461141888 5.611582139365615 11.794060235741535 -0.14149269206156923 0.6847395363477691 1.2672908346605465
P 8.701093362372285 2.8542618775142055 9.670493175934945 2.2796444495844224 0.9745414291721086 -1.3223990884885999
P 8.501853237421045 2.8343142583692056 5.077122138490442 0.21521367589480356 0.40682822431342835 1.1082277378153818
P 3.9674243729239747 7.36466643602235 4.655842404548358 0.6791183335062497 -0.403906165570627 0.7486288788025622
P 3.490588204395482 3.5827812516409656 1.1310136624561888 -0.466925446715641 1.3801242111142102 -1.1655114020281991
P 1.7409995078165008 1.1556453857053786 7.293576825817706 -0.20078130251955742 0.1364949817366617 0.7455340419273225
