# total energy = -381172.79018654564 ev
CRYSTAL
PRIMVEC
9.19647098416920 0.00000000000000 0.00000000000000
0.00000000000000 9.19647098416920 0.00000000000000
0.00000000000000 0.00000000000000 13.45996487886595
PRIMCOORD
 96 1
Ni 5.953436462014932 5.519933226654044 12.168709319618435 0.5637171963254098 -0.7496028126800574 -1.1624965264612752
Ni 1.054844384554483 1.945835250834433 2.0785283674717885 -1.047798585995047 -1.1324202759011854 -0.861658173317116
Ni 4.241292727870973 3.5301112565118102 12.990426850782779 0.6337321920619667 -0.39276814667593646 0.9182656373985153
Ni 4.042428245681574 2.986737785823659 4.1538526845553605 -0.15433792345535355 1.1547929871694305 -1.0499873661162498
Ni 3.070775134984162 -0.07722184473252666 9.230035968206295 0.7256547865048921 0.5801797127568072 -0.4322705756459329
Ni 0.36478720636906503 0.5805253729795279 5.664814425896172 -0.20799478954886114 -1.5816264509601923 0.015617909042915037
Ni 3.0465332382466825 7.09389079221782 1.8514178452067096 1.2764311063989178 -1.8909088211066467 1.086440209626645
Ni 6.66613535103786 5.943145611313399 8.955035744472797 0.6596111167112575 0.5073398459769456 0.45168189029300926
Ni 0.6155133457176691 2.4931632039190625 4.435718073658556 -2.4188200634770407 0.9597809830334827 -0.24763888630304448
Ni 0.6428231850771603 6.695370931359729 1.20546326185978 0.0031424022837236204 -0.30328758601560024 -1.805802478254606
Ni 8.660757878880004 9.009607601544195 1.3141894562332714 1.5650711177046723 0.14473793847174427 0.8701122176217402
Ni 4.4767131810510685 1.0765204659695964 5.208804667816911 1.1044003936494915 -1.759584584937647 0.6132140175039569
Ni 6.449080249824663 -0.05153150386145361 0.9825224194053135 -1.9986987215991319 -0.14146261015458217 0.8206619334104125
Ni 2.22489295743613 4.572393262104458 5.406813878232186 -0.3298527380986384 0.29422187626890617 1.09815904072547
Ni 7.835889636857443 1.888807936088944 0.2718136466395905 3.38169408361355 -1.095921666754519 -0.2621337374851099
Ni 2.1728133439215833 8.944156319647137 11.603660687162238 -0.7351311014264437 -0.765815674994494 -0.03554318721193233
Ni 8.69752536869656 3.163199665413474 8.761656037402608 1.1808274635599794 0.36371956604941225 2.8820896586076494
Ni 2.464764502429936 2.144147944782462 5.629172584092009 -0.12945221595726739 -0.6079854221151658 0.6081970239053396
Ni 2.9104806508664587 6.472963484205252 7.191618927293758 0.8864281811729443 0.18435606708399863 0.15146754388609399
Ni 7.969909804215291 6.6212197881904205 6.828764819063622 1.7208853685952363 1.5253660858055667 0.7509559842738421
Ni 3.508094905681186 5.359951422539783 9.539117392667949 -0.920548262785105 1.552915713289061 -2.1296342069701453
Ni 2.989763424680499 1.5908882681031158 12.600398091312288 -0.3166061575013773 0.42456420814061074 0.7848631785442484
Ni 4.6331727368912565 4.288691337804572 2.0855268816664854 -0.9756027805570874 -1.2450587627352234 0.40707787843038923
Ni 8.873095190629495 5.046747220268033 4.917718897200437 -1.1879743590174057 -0.6580111192139892 0.9271909649126032
P 5.1285682199923714 7.495197183694825 9.06906830243412 -0.9551619962042323 0.868696054000504 0.6645041831375007
Ni 7.56548580917455 4.324226500548737 7.255486576938085 -0.44971808169841904 0.5964044021457857 -0.762276551492984
P 6.887558775828562 8.368162967423387 2.9297500159021346 0.6734763047291241 -0.25755665963738866 -0.4893405811860475
Ni 4.9209119118238265 4.569431998542444 6.206093860208328 -1.306369545829563 0.12084570523517897 -1.5811891063124575
P 8.810016598170327 6.729066799965998 8.963798141745738 0.07071433579642661 0.353213781422082 0.973094155202621
P 3.072292552647927 4.186610513151302 7.460252434368925 -0.18765324977803166 0.4571405994147353 0.3573874531837974
P 3.609320458560334 5.300753740711576 3.970528398537052 1.204242242939494 -0.6311430911785518 -1.3381316687325082
Ni 5.665890412966842 6.215471501370394 2.9605324425939745 -0.5532805743731181 0.9473617834335233 0.29427715498687385
Ni 1.8815427242442517 3.434707069579105 11.582864707992108 -0.659644026831722 0.5836496735832787 1.497762208045369
Ni 5.86404676691315 8.001030661028503 4.696424222999389 -1.477789364467868 -1.1928142036082103 0.5074578596120486
Ni 4.259667276308561 8.891810008482596 2.827332600421629 -0.32624188081892846 -0.016914516367151515 0.3480474067297941
Ni 7.927265769628154 1.4297293157406012 7.529342759717809 1.9890645409434775 0.20927519892318155 0.3681274653091208
Ni 3.914532927802923 7.707359762501217 11.077079971953085 1.6776183303764851 -1.505959913364813 -0.5621709348842125
Ni 4.124782640705901 8.457341143699312 0.3523453011732624 1.450709220421624 -0.6783326043801607 -0.27295293958780087
Ni 3.8918820204947244 2.3385705316288394 10.559045536955667 0.8757660734734078 0.25817346728578117 -0.40039943796894917
Ni 7.483811952981244 -0.10637557646525929 12.444356055241402 -0.39949029589111845 1.0373195408405942 -2.474158173927713
Ni 8.03351259550376 6.734226020022797 11.295520981299186 -0.45406556003383736 -0.6428243841712219 -0.33055747747514685
Ni 7.601719903691116 4.287744101323555 10.620423701984352 -1.3833321765285467 1.7862816346128594 -1.436986214408577
Ni 1.8956960926353674 3.8070905607376835 3.2049387672847653 1.3777762797073239 0.08277846604981229 -0.77618493404396
Ni 7.95762331937414 4.337855670110553 12.948943410796655 0.981227840053349 0.3526756495304249 -1.0503956572982618
Ni 8.438626325846212 7.741211971109207 4.60060251629738 -0.11809642462481598 0.12050940494168277 0.5064535867172504
Ni 1.0128073170328526 5.758324139866843 3.229583469438444 2.205621104019421 1.4798835279927354 1.0860789696324844
Ni 5.8482380337979265 1.3981026530394665 3.238736716715687 0.5947943773461886 -0.014034109495562927 0.2683925739106281
Ni -0.05166669198058903 8.597697679362215 10.363351997860004 0.0812831124512084 0.7848719202949966 -1.3381182989960696
Ni 1.9946777066662817 3.4840461348281857 9.283323997969438 0.17069425332618993 -0.29674489980107605 -1.2767193270632982
Ni 7.195714115691785 8.589595588684778 8.301998039400827 1.8150821037843192 -1.9885940290649622 0.7329544054900989
Ni 8.179690497113105 6.28415994095015 2.8243308723885816 -2.3309955503628887 0.2657638780385294 -0.8624927534032694
Ni 5.252490662533166 6.9205833020744985 7.0353883635737375 0.33258813475193044 0.7200148146102955 -0.4197045660554643
Ni 1.3613719491056682 1.269673939860825 7.5362474699114745 0.8073271639747194 -0.26043089586139023 2.5644589164964997
Ni 1.401818027198018 8.117034942305652 2.7371915536645153 -1.4979159600144136 2.676620977914751 3.0104180453731186
Ni 0.6451931155738403 8.145166946144784 7.57452777915645 0.2847249925220645 0.3025615064828531 0.5334882222375392
Ni 2.0027338149902696 9.214495772035203 0.7335813150175381 -0.7516936337708151 0.1357691593142307 0.3752525063896763
P 0.7948261312212246 1.2931249401190088 12.876219559878356 -0.3909832868613718 -0.28037879973822677 -0.34171195143006955
Ni 5.858142632730501 0.018702862441203234 10.211106264889738 0.7747723699671496 -1.2565965881714938 -0.8838812463813746
P 1.0634798705319084 5.514268200709322 12.683055050222299 -1.4776710937224486 -1.1367240454828618 -0.6334275163373543
Ni 3.0527684453741526 7.249384718635612 4.5560630891011415 0.8026814376725918 0.8937802506626413 -0.029464328007704096
P 2.507068267601562 0.4200819060366554 4.17622309950753 0.2785738853190041 -0.7026997203706157 0.4622362687700878
P 5.032446708345886 4.324106946429774 10.49608006108598 1.7655060926284043 -1.230919495120364 1.3748999866007934
P 8.069765082961705 1.2810683670450955 9.738621029570265 -0.3923364584551566 -1.1604375870497177 -0.17190550002547167
Ni 3.7948132723672225 2.1717925356750505 7.593466071247304 -0.1642613532166526 -0.1262895019585696 0.5417183234568154
Ni 5.034396360132057 0.5055860922721311 12.09629538976237 -0.3521112923865226 0.7407232508022404 1.582148127791617
Ni 6.131572099270233 4.061786816482938 4.157864185070113 1.5815809424342373 0.17205539533977465 0.086053023036026
Ni 2.468387911881593 4.777732059659253 0.738110576832109 0.25632870076755854 0.011917834483508506 0.3539596584491711
Ni 8.744602102156028 2.5492156927714666 11.322912669247813 1.1999353880340238 -1.1272850115571489 1.0225166714998066
Ni 6.9267173480243835 0.27838360530015777 5.941631872237911 0.3418831869006112 0.08973998496930996 -0.7629656071402086
Ni 6.052307718397573 1.971116348759824 9.15090493615863 0.5891297228612435 2.18126632932414 0.32542632689616857
Ni 7.721347594419922 2.6809643318690113 2.5693725172286768 0.24927565057551912 1.5912647453809046 -0.09083758890886291
Ni 5.26255160146746 0.3793093532348289 7.765484216199962 -1.039220871628365 -1.0039407082698322 -0.8147900480106678
Ni 3.401425042153863 5.206839382030568 11.770847006414641 -0.3323729334173308 1.3551037778104726 0.4207610323444367
Ni 1.1428270196407748 6.815384873857493 5.7196097572053235 -0.8935786761747967 0.12853870300406248 -0.3031919409780004
Ni 6.317938577792623 2.7192308464079535 11.803379521478691 -0.8787241276604674 -0.7423692710460957 -1.6541313029981386
Ni 8.478704545110983 0.7257845471669938 3.5702556903655447 -0.4000842207213755 -0.8818888985416942 -0.2662014797965802
Ni 1.5875959315962807 1.4917043317170326 10.326928456047234 -1.2641993402194165 -0.5644810710746279 -0.8231147658262791
Ni 0.5338174179947086 3.263183694749542 6.797753400251614 -0.007563928390186973 -0.28743082148900173 -1.9923095302433365
Ni 0.1905122475092088 4.333882794772696 1.2969736631025577 -0.28452316092390356 -0.2599832668010103 0.8604862644962019
Ni 2.501099758124087 7.01550007606066 13.106223291822346 -0.45480500930302314 0.19056785232166534 -1.2663312989607547
Ni 0.7235360100834151 5.336987835228142 10.42262968898321 -0.25145826004913463 -0.9160637446511901 0.5319990392865225
Ni 0.21808418628335025 8.141258446101753 12.694374985993985 2.4596792635852474 -0.3862390873081671 0.09126619180584927
Ni 4.642654298172115 1.4773394445000592 0.8965887579886388 -0.5408243508876364 1.363748340859348 1.3362712184850019
Ni 7.684340996365439 6.983514751002635 0.2780819610615427 -1.0775164247744542 -1.3805492144667706 0.6665404968412392
Ni 6.815734339743693 4.863433970014553 1.3787174124731036 -0.019692336222604793 -0.3324102144131694 0.5926958429459469
Ni 4.619488388505305 5.953850303195959 0.47429694004530043 0.12334276062541982 1.0920832668450353 0.20317808488650818
Ni 6.1725699656039525 2.577228142491634 6.730143706683736 -1.2776444099807285 -0.5459827551601242 -1.3536932706161913
Ni 1.0990058368053843 5.165629996870991 7.878682654269749 -1.5543740430021424 1.3645569528035726 0.19664748285684197
P 2.9423096359227623 2.8456271395642188 1.648643943327212 1.2156579409756032 -0.953363766653229 -1.111965350480943
Ni 3.265859867720182 8.890071875522283 6.751531938566268 -1.333570531724387 -0.23808878072076414 -0.5642080199188992
P 7.485862765944999 2.2200188279707036 4.957937822466757 0.08222876419392935 0.2441822952130117 -0.7771778940848486
Ni 1.9048925633248512 7.098056793440156 9.480296766138009 -0.20977887803247747 0.879181269802544 0.13702488609820274
P 6.227886736801198 2.983620182259924 0.3962299396564102 -2.119947575810001 1.9442041900956777 1.812722602413207
P 6.583311936008369 5.8358503877791925 5.607811941621545 -0.6729438292644218 -0.6267117948800756 -2.2575946688732347
P 5.9687209963008545 7.620039273304568 12.601447408617958 -1.5266678353361256 0.5617654719156776 -0.27719397425234193
Ni 5.248260286016003 4.15598626575532 8.369729126381806 0.17623806596255454 -0.685829169867522 0.6623400856066465
