# total energy = -381169.7246402042 ev
CRYSTAL
PRIMVEC
9.23438497371887 0.00000000000000 0.00000000000000
0.00000000000000 9.23438497371887 0.00000000000000
0.00000000000000 0.00000000000000 13.51545583497347
PRIMCOORD
 96 1
Ni 5.608199103212973 2.2440110045912958 12.723490498787944 -0.17747116703870724 -0.22894182411417344 0.040275559690595146
Ni 5.506399241009511 5.125757883967903 4.567048030659803 -0.31525632834170225 0.2858043416291723 2.116121260085375
Ni 3.8071153836896245 5.260699954575594 10.611646632058319 -1.139509835758115 0.1794987389916973 0.11742048160371392
Ni 3.930098925491666 5.3354984745182685 3.082105334586015 -2.097573321879858 0.027676897089978142 -2.1818689959051456
Ni 0.9401712237535246 6.97375228019604 7.214131637328849 -1.520346521103788 -1.967689160591495 -2.3743114395417044
Ni 8.397334333638337 4.148963088598002 8.074714465547816 -1.8742390737604495 -0.11103977488835069 0.08943453791374921
Ni 3.569800918997429 7.732504772740456 13.669532021199194 -1.1632377755026742 1.206969926283302 -0.743979552956009
Ni 5.101979342134276 3.3810962578827937 2.2640006781863455 -0.08820606482328679 0.01867957868737428 -2.018418054404931
Ni 2.2272782986485637 6.864214003213323 3.7109660417766475 1.0023869906294671 0.1915394722063153 -0.357372797895778
Ni 1.4718409503830887 4.879670753356505 11.213287142059443 -0.6863719297448695 0.23846030512756997 -0.5418859593829313
Ni -0.006089153586444369 1.1699688989107404 6.442222916221183 0.44594138826480617 -1.2061242904535552 0.1687996074066383
Ni 9.016287468971376 8.704183718721685 8.38155646312302 -0.3366412217753816 1.792300330003113 -1.892962875422198
Ni 3.3432906849636197 3.366145788279437 12.429164786883147 -0.627760547859564 0.6348079416246486 1.7338828092961687
Ni 7.626844937532545 4.289131821216502 12.287753106019672 -0.6491999486802625 0.1945882863349681 -0.26385251994842945
Ni 5.160506875393123 1.885726094065886 8.470973938241158 0.2337814115946619 -0.00992677219540871 -0.3778279804263364
Ni 5.5922420856252035 0.19981085616834596 4.517487085408898 -1.5969751655021207 -0.6956492412817374 -2.639727447322512
Ni 1.6635467866806093 2.9361466424608413 6.338316690758595 -0.2911884887592211 0.6503798279209767 0.421107617050578
Ni 5.393102569259305 5.192614832657404 7.186884660422324 -0.8231476759467435 0.39191711152955083 0.5334787091558425
Ni 4.359710227132782 5.524249307558795 0.29951358949785944 0.6594709915889675 -1.2604139050350551 -0.11870629029467299
Ni 1.9536911689767604 0.05632236207831588 10.165541795050586 -0.3179027648256138 0.24731158487061278 -2.876920455701884
Ni 2.9821892869588873 5.17784905075761 5.5378497100491115 -0.24722596713534198 -0.17999958988751583 -0.11780948951201645
Ni 4.12174012109294 3.093242003110813 6.3431684367311725 1.153122284335227 0.3162163782621264 0.02876858749226013
Ni 3.085171150465147 3.3566990122422324 3.8964515962181943 1.2806569715548073 0.013383620395757596 0.7067918881621181
Ni 0.8780496677833568 5.61011985533002 13.440174826214973 0.38921179678324586 0.8872303653592655 -0.04284563441061653
P 4.654508739558699 7.199403716408286 3.815250877031538 -0.9800037378382604 0.7911382129196826 1.557724190421298
Ni 0.6600064415193546 3.232671984915065 12.651224047261108 0.09785310099474762 -0.22070838046078764 0.9032601651286185
P 2.126152546563104 6.793469378363839 11.734227436550562 -1.2914142100713113 0.19908514576405711 0.4630232834477574
Ni 6.049297980015655 7.935845934362393 6.288998609837874 -1.0670396936128461 -1.7091457115608049 0.9183026612840378
P 7.860992008108649 4.548738091728651 1.4726711216106005 0.6449941381290311 0.11419580401882913 -0.40352744207496954
P 1.4774000502603095 9.07293118765389 4.964037943220735 -0.6540040549371253 -0.5211412706364121 0.4991501110773017
P 2.589377010252532 6.37481005754396 1.4560603095522198 -1.1808246353465017 0.23596067863416784 0.7155117845336193
Ni 3.7707042029323454 7.840842579650018 11.055453954033739 1.36611118466457 0.24689866570291025 -0.854556015054696
Ni 3.2818173828329553 7.574495207957852 5.80792962023027 0.45536139602712544 0.3101084655921756 -0.40472017683149003
Ni 4.434250184290469 0.3576237285466571 6.748213503482968 -0.8156027737199502 -0.6219154019326967 0.8105924649895523
Ni 2.846554637462838 1.8009267349753209 7.963103992531131 0.2577957722313883 -0.5589442004167987 0.8802374789812003
Ni 7.476481443677414 1.906835898583041 8.38773241993014 0.920204763402757 -1.0016524264562878 0.5434165370948448
Ni 6.094250967062685 3.9288707522629776 9.461995227416452 1.0094984048632678 0.01765062320222767 -0.2163609021253693
Ni 4.343346896597175 2.7701770376547072 10.440500230921337 -0.06437013874595365 -0.6557328647027739 0.6861338455921344
Ni 7.2417987787609785 7.747427539188279 10.950546721217846 -3.9182354908551167 1.6247878168390144 -0.22391197499974985
Ni 0.39776744779292783 4.767140535576082 6.335424481320811 0.6115443431110178 0.8970820613423648 -1.0157011912398701
Ni 0.6637057362217047 1.906328007398245 8.640295624866946 0.009085507241035965 0.052187737747148834 -0.17622983843243842
Ni 2.9749310602088945 1.4402778218443157 5.202112397813089 0.008416249088153248 -2.066662491233615 -0.8473085894636634
Ni 8.087382195135143 1.8831127630604814 12.084669583744207 0.09725120574469058 1.2271610565191962 -2.6914379883229262
Ni 2.4228256391801777 4.252074233496756 1.154879913529712 1.6686248686286231 -0.7435620058026163 0.29117203369898886
Ni 8.204594246200868 8.303365230065909 5.597953552857863 1.31920397859007 0.576340284406059 1.737134997684879
Ni 0.503650755122149 3.3969794003891396 1.830438906566036 -1.8730990466187352 -0.18006026792212215 0.07629491520799762
Ni 9.06966221530084 1.0757042950126146 1.638222408768166 0.44639878751719897 0.4940513563981555 0.0440720506185499
Ni 0.4998766618998563 2.201440488920218 4.398659016937005 1.8861296545504485 -0.09437851218258585 -1.4932195829800088
Ni 0.28230346584141974 8.298055458588498 3.197000478410552 0.024601343488447953 0.8587744240114178 0.10115928254984513
Ni 3.7473412084317324 1.8326560824472997 0.9391111163350778 -0.1011752233894451 -0.5177965225338953 -0.6589662840384071
Ni 5.658369517885634 7.289614425213221 12.723612392672297 1.435616844864876 -0.4913817799857924 0.1312141929536966
Ni 8.037830484269417 2.9598420748278658 5.522239905344038 -1.8201695456095555 1.8476104154293278 0.6057745305067761
Ni 0.26361491711796486 6.605614280685589 4.741938051547989 -0.8862836851752801 -1.4517978255001127 1.222655969559991
Ni 1.9643753526278311 2.5977156600683635 10.734177688986634 -0.6097327438235758 -0.26925363635934274 -1.5741314281347276
Ni 6.75876655886451 7.164137599413092 4.273113856686557 0.28265782558039065 0.2379435133921515 -1.5920746428767096
Ni 1.0297632287515277 8.722144597893104 12.092332276565001 -0.608211679193359 -0.5480890028698495 1.0843738140159196
P 5.230244952258194 4.3900913543687565 11.937945361087765 0.7359646530713325 -0.18503329565668133 0.46632072325210655
Ni 7.990310338142873 0.8065247373863219 4.033120496854192 -1.360539089893431 -0.40971505894292015 -0.283974230398969
P 1.6712113263784387 1.9057185379764896 0.4867453661765868 -0.22339646881591205 -0.27170903987837075 0.3118377895784565
Ni 7.5098545117110955 2.9081941585267086 3.0361661152019637 0.4419011567571615 -0.31055969419698126 -0.16746469064529867
P 7.877697010895847 5.576165021030118 10.359934837434935 -0.2329792274083407 -0.25681155394124805 -0.17642935603775423
P 7.485004781196808 8.878178004247594 2.0899759191893486 0.6088706529335964 0.29802659472697707 0.18522124329777132
P 2.9037062473301476 5.758211690431336 7.602268544819529 -0.44560663063320677 1.3777613673089886 -0.8045367457137756
Ni 8.136232092727335 6.650742721051003 12.623868104609482 0.3976085054873733 0.031445362993474876 0.921566419636974
Ni 2.726664614695463 8.71020453785781 2.284990435696185 0.5063098620505345 -0.5797279699313693 -0.423550936384748
Ni 1.294429942341279 4.368879971614643 8.882249444672622 0.2614873621503626 -1.4110088165082086 -0.8524307411815771
Ni 5.460698268763055 7.809362560577848 1.9349398264340945 -0.9526281740387853 0.2867543642472674 -0.6502975526198155
Ni 0.42535055631993623 5.96977145486179 2.310291727645683 0.31232912739257823 -0.06992937800128601 -0.6901308825666695
Ni 6.518423215833894 8.512948836068247 8.438848435645038 -0.7591341492092603 1.133403722860377 0.9986977147033381
Ni 8.850641067646476 3.293969833727345 10.270705743774432 -0.466805376198009 0.7993688283595911 0.6815588246269424
Ni 7.92653767410286 9.272061469634611 12.984596433453017 -0.9988627795262927 -2.759369619167893 1.4038110132081887
Ni 1.2175352169631743 4.4617224801953395 3.8133587515085434 -0.8690308116321033 0.46175907202335315 1.3024658398997826
Ni 7.858323270792177 6.614036039968023 8.203841643808852 0.2033500916879982 -0.8459307352795303 0.5411087148972746
Ni 6.148558386295138 0.9042854795128793 10.744301345457393 -0.03160708538231976 -0.6622110162279499 -0.47785854868837707
Ni 7.37688859953152 5.526641013319924 6.129461677746811 0.7042490671356065 0.2503390588430269 -0.20161356861286567
Ni 6.550678923261025 1.045350870932174 6.2343956902797215 1.7975443520108718 1.3195053118805726 1.5899982199636553
Ni 4.244899116213365 7.303290549662 8.510872022841692 -0.8651898406194584 0.8974798110014156 -1.160886501661678
Ni 7.447273083359058 2.5776124035356225 0.6515181946636379 -0.04914817958987665 0.39415397127986956 0.2978551021461193
Ni 3.5841326847938526 4.025527061922234 8.449322998752566 0.8877389295645678 -0.9145653057287927 1.1713706890224538
Ni 5.560124893975743 2.8485492646613095 4.385224833379894 1.0235420274405276 -1.1682799659122718 2.1471063956129797
Ni 2.0513355578500736 1.658828015854596 2.7409206585334256 -0.20514446458425958 -0.20792202732939674 -0.5425176794296592
Ni 0.38034031608480257 8.250202874595542 0.7945495866873515 0.3979386351332824 -1.6622706442758208 0.037254256365768096
Ni 6.048162150638748 5.45344927639824 2.1390511357798854 -2.2899136927209147 -1.1749674052347763 0.17456093537044773
Ni 2.084145328387891 8.736393254222925 7.497159078968233 0.9937917927612885 2.3488361780887357 0.5514502060325985
Ni 7.606196852274296 5.0936776298591555 3.830739711290778 2.7589309889685776 -0.7045190329675415 -0.30124510166427476
Ni 5.767085934587499 0.9649009072604976 1.9475770825503351 1.7176750891880546 0.21511674530562305 -1.0589995969171893
Ni 1.6187046122557172 6.525302832791585 9.255371241863697 2.2386770060331247 0.7953514796700819 1.6074130730059932
Ni -0.08952921117879199 7.578798431450849 10.215495201671562 2.213399976633891 -1.0470380536799386 1.2437287310698903
P 4.842705509488539 -0.009832773337649325 12.561278365310784 2.219817964345093 0.5772831079353025 0.5349604359076916
Ni 7.553293059588916 6.797652554849522 1.6960278131060862 2.966822163060039 1.8954067089770001 -1.5534199066189893
P 6.355085410803521 3.218007781252229 7.011710220470653 -0.14123301064227936 0.6470561628643825 -0.20861082586630522
Ni 5.679036071914239 6.172106068499312 9.757807675334925 2.123572831267414 0.8948287465318138 0.3414931505510441
P 4.284099081294434 1.5927190523645214 3.1915263348769694 -2.1402556912397332 -0.7314801349374177 0.9005450801903008
P 8.6436892614199 0.7871574613522762 10.064446516436213 -0.5212934799435602 0.20349433057534633 1.199917647422211
P 4.018739788816324 9.435694774990683 9.246383414769845 -0.10100270236732284 -0.3156913589965918 -0.4314411377661021
Ni 3.162176688465389 0.9055745996837432 11.916213159009608 -0.7412528980534653 1.165635072090257 0.8485175221701
