# total energy = -340872.7801399672 ev
CRYSTAL
PRIMVEC
9.30146479751446 0.00000000000000 0.00000000000000
0.00000000000000 9.30146479751446 0.00000000000000
0.00000000000000 0.00000000000000 13.61363393763329
PRIMCOORD
 96 1
Ni 4.43584062982242 5.282543663584647 4.025510233429983 -0.6515761622219229 0.9174871073612779 0.781037634150571
Ni 4.695807267823721 1.7586372397418197 3.492359576032701 -1.9007715728333396 -1.3655329435635968 0.8673624227907449
Ni 1.6544794375900944 8.089576898497697 5.304852296615607 0.5311053238276595 1.132153909613676 -1.8757578243978212
Ni 2.267064603861794 1.3676129635624672 4.542869794139196 0.25550389087341807 0.39819034613277227 -0.4819900543582474
Ni 0.13054419732443628 7.370555071213121 6.989103862543552 -1.76019470771782 1.516271579703466 2.487466461000845
Ni 8.480322130734868 8.982722145703715 2.585269572889384 -0.006532916022511329 -0.43637765583577104 -0.2698416476523288
Ni 2.816157971822395 7.280526194000534 7.518701360410385 0.22428761317161372 1.118587740893467 1.4342744719043685
Ni 5.1761535098954665 3.3240644539169635 5.436549875567729 -0.1476571690010683 -0.8191982043806924 -0.3564027206730249
Ni 6.683372157731487 8.33512626615294 0.6295873136688365 -1.1210973946891982 -0.23012633134057786 0.2110623727305913
Ni 6.4368182318843905 4.408912889401876 12.800110245296825 0.3977566010294633 0.34457153236605176 -0.6832434114182169
Ni 6.208327750561195 2.0157390266033883 13.528058688291798 -0.44515797313156236 -0.1118923526966331 -0.08981326140940661
Ni 8.283438026596132 5.340073222997795 6.282882711033328 1.0345370929994506 -1.355972039348039 -0.1838259056121415
Ni 0.9696963020112244 5.999444756908642 0.6919406126958331 0.17057212592602883 0.1795254784645747 0.20656474197055394
Ni 3.873334549707613 8.523248390507167 12.270227192462492 0.8761617662499297 1.1121525267910846 -0.6818215913700257
Ni 7.886814268643664 5.822856448831261 0.5480729972786899 -0.8517571121533201 0.9395602851112335 0.43254876900798406
Ni 7.676424437703329 8.96731892009528 7.54300143704205 -0.24722031070838715 -0.20122147538076957 -1.0771446432573322
Ni 4.747551316168965 9.299790475740153 7.7235586801237295 0.6917776741414731 0.10038589471893035 -0.6528429447494886
Ni 7.254044923887481 9.076183263405138 4.553147912676225 -1.7547727653713003 0.6548445485605496 0.7169318048095975
Ni 8.96717009665945 8.337991117292672 0.21777426379694007 0.9839781491049763 0.4717570637763294 0.19151813205007662
Ni 2.7874257472424095 0.6544696619931873 8.83662310889559 -0.07982426851749477 0.3932492000774131 -0.12601053726557007
Ni 4.297341819852854 9.135721939201995 1.4808638776434238 0.29869122489416944 -1.2123661575982088 0.5466887800882133
Ni 0.22767567301202415 4.0710836900671135 9.976071142400743 -0.8865155986804281 -1.35025981945461 1.6244134642187313
Ni 4.108159328518335 5.150286136455214 6.906850079706624 -0.18867937704970084 1.4336656346757761 -0.7040472355374455
Ni 2.250675422990983 2.356163334600442 13.006697637451698 -1.4287566274099328 -1.4445393441654863 -0.5826500286741707
P 7.506058809536602 0.523696648636162 12.778219248032663 1.14870564332477 -0.9504987864006081 -0.5974886363489
P 7.71947161651724 4.888431301111815 11.050853532744684 0.5137267233398959 1.08335899959816 0.7088464566983017
P 5.574618957866335 6.587632181168913 13.26146289637073 -0.026326810819986918 -0.18773398241729602 -0.3794297776958175
P 4.219163008718254 8.730522230759806 9.91760027475597 1.5557354421260432 0.5466697539248199 0.3838140228064422
P 4.989603333082196 3.7177582504765216 2.766385834001902 0.7113455689710717 0.013294146005744845 -1.3562492042688254
P 4.486961480030125 3.2775850346142152 7.755428288760312 -0.4009972194539481 -1.0084355108163923 -1.7018129253448175
P 1.190466567600723 4.040965547240958 6.704714368576025 -0.5043398828083573 -1.5414637626983776 1.4741301704487257
P 7.247589707358342 1.2885877191365822 8.962058941785154 -0.07607020079170125 0.3308025036064174 0.38145092189090435
Ni 5.117377554207241 5.977688630883201 1.887312772800112 0.15934231864848042 0.2259871123612237 -1.665243610861216
Ni 7.754296300501528 8.504729174211036 9.845897143372934 -0.4233786724729418 -0.26448089756104776 0.8008806370184273
Ni 6.8121881429073445 7.240381072185312 3.106644575926594 -1.2323911945698838 0.8858602244846163 -1.4042419300980202
Ni 5.194691329121078 4.731506289493512 9.111659980067659 0.1319675261799534 0.11975735726700665 0.9559294704978762
Ni 7.1200945301754786 3.552573538169637 9.554429234738729 0.16749322989038895 -1.093809762617839 -0.9316852532385309
Ni 0.21265008687200831 2.209990816220877 5.813184785795239 0.5625699700948441 -0.8441150222270302 -0.9931600727145604
Ni 8.049087622487118 5.6554021791279645 8.697042538576834 -0.3265794666640053 0.7635883283258721 0.6749654876801409
Ni 1.364627193381122 5.418186923879219 8.674266972015957 1.0113328869688454 1.1810321233716174 -1.0683452997981473
Ni 6.023963417961682 8.802552773701668 11.521082571619392 0.3962525056801111 0.07006256114504061 -0.17802883931439017
Ni 3.0884397491386535 6.75446325273467 13.297212145950114 0.16355892783298928 -2.339446252233403 1.915696569574288
Ni 2.7462481628411153 3.919358197238131 5.148199817914168 -0.7689709327940241 -0.3414931505510441 -0.2248149464299935
Ni 4.239970385340277 8.455366300839076 3.930283697721022 0.9793272805965264 0.013284890034364219 0.6952376076656155
Ni 6.913778740790997 2.241736715376426 3.460368118208032 1.1434472231393082 0.15870571350574603 -0.0359494215114155
Ni 5.904486103384176 6.485632318836726 10.649741818055459 1.6656429031821636 0.3960591587223824 0.44986669146114133
Ni 0.36936023465483175 0.4744528340128663 11.771968189595624 -0.10238647008872688 0.01084002803829746 0.026726874471883003
Ni 1.782579209981018 2.8469365186450477 8.660462668196223 0.13378555322529864 -0.2054198297328333 -1.8950863495231038
Ni 7.10276590136599 5.174060680329103 4.154091821694407 -0.9958003385508851 -1.4950113847731092 -0.6067975724546517
Ni 0.4702076455058072 0.24799565288170267 9.13888722765281 -0.3244781040502863 0.6690113269792348 0.26785444201897096
Ni 8.589791069252787 2.7523964310338545 7.821278008382847 -0.0542217374580421 0.31568595967995305 0.8190868756138088
Ni 2.9254687854397443 4.7007742499945575 1.8542042090602417 -0.1590625826245325 1.2600403237457203 0.06394487828307698
Ni 6.49799396547538 4.152871469520599 7.26776086379219 0.33746628877983814 -0.4549477055284745 -0.3951713568007904
Ni 3.1666929719911687 4.07251611563698 10.28696516014317 -1.4645584675998906 -1.1202075358850772 -0.1705217323040676
Ni 5.254239306382673 3.1234876682766872 10.993227238098246 0.5027553119300567 1.0163120853509915 3.092372987080371
Ni 9.297874374003838 4.002996968174755 4.224664825111605 0.3585681037554599 1.3222250248045808 -0.23183508650156845
P 9.024485722383591 9.181280513495544 5.620048241800005 0.48293930564539406 -0.02860275133835719 0.19306336505000943
P 2.3744128084191316 4.3652983212388605 13.251933545745223 -0.47551087439180684 2.800428851102048 -0.2628305064418183
P 8.678992116103569 6.230316413205121 2.5738203999416656 0.5741710446688821 -0.8743280554753007 -1.0104833944843563
P 1.8284819384699238 3.3576055357672154 3.162460805534745 -1.1414139947593631 -0.0010744640111013753 1.4332280329177252
P 3.4277106755080218 6.8528634482127115 5.527298686151145 0.9117972560653522 -0.22842991747476143 -1.026429890511284
P 4.668042395576633 0.7612858227674314 5.591799693386467 0.38925679108856837 0.23641293568023797 -0.36341874697954185
P 1.2589067451531784 2.147029201399924 10.601454194007374 0.18934220744468036 -0.366318180014524 0.8687058241925169
P 4.072162659976883 1.2343322753117014 -0.023271334631487953 -0.18369066558585784 0.8117211792773569 -1.9442502128422645
Ni 1.7114137032599201 5.955104674495955 11.230199725117295 -0.1028163585372939 -0.35144974754312375 -0.2381486874244221
Ni 9.203938881600704 3.9465649816008557 1.4885422367857928 0.5631469256442366 0.5783020361181201 1.331328529767746
Ni 4.3637263736979035 3.5367610481126683 0.276227458658709 0.7013298366062825 0.3305248244649985 -0.4228019740338654
Ni 3.004103368346575 2.3024659786599244 1.7811532954364688 -0.10112560109843229 -1.9699370760854074 0.1346108773400714
Ni 6.747580168827518 1.5772772802531303 6.472466095498116 -0.6256589281355289 0.07195309329953414 -0.1390491156170831
Ni 0.12842160307090675 1.857418795274176 3.241147476644116 0.5646384225880985 -0.6284565454853241 -0.899379856237606
Ni 6.79891495272423 3.814577196948866 1.489549585417069 -0.4330197951071316 0.1335898922747248 0.47534529534822
Ni 0.09608041017203643 4.179929430447493 12.470333323986956 0.03418384497056048 0.43531116224446964 0.5844677986091998
Ni 4.922428154734297 1.948554546790751 9.268379429315221 0.7246245454681649 -1.9735703019626205 -1.2501487756636211
Ni 1.5955825628602562 5.877958325947427 3.7601124701673485 0.28813041865918765 0.4365640608149643 -1.4691545716110053
Ni 3.1179812011509664 1.9150041634757597 6.650110119823417 0.6610522200331582 0.5727885624990587 1.0092122410814168
Ni 4.262033459702117 5.406318254871753 11.806710090543733 -0.3280249408612802 -0.8667903523373587 0.5562208879483647
Ni 2.1591304070258746 8.2860517381879 10.423878070374668 -0.726380094706691 -0.8023808757130375 0.4008558087800774
Ni 3.4716507949369158 1.3459312492549416 11.177732952961799 -0.18659086995178834 0.197079428187938 -0.13216961488843043
Ni 1.378486375842818 0.35440254920741343 6.969009908267041 -0.32919530702029753 0.4485682843646919 0.1214288314321586
Ni 1.4482194569940492 5.976674771226607 6.090835368559076 1.1690204436227223 -2.4519374148562996 -0.5927390374790567
Ni 7.7543056019662675 2.288355656650265 11.434976122087408 0.2869829353183057 -0.1443818406839062 0.23881743135667255
Ni 2.1716873844240556 8.910672999832375 2.9560371191592867 -1.4079610308208204 0.04616827102594629 -1.2456390607187258
Ni 8.632847549531437 6.91051392666747 4.561247628171289 1.5395372350996261 1.34483659155651 0.6889911125352716
Ni 5.2389104924921535 7.023926686234892 8.361820539808525 0.582916652071996 0.7493421028195031 -0.3894869048215034
Ni 5.7086902706199485 6.833516401554773 5.276127513207413 0.19109647113162573 0.53488947346044 1.198636466716942
Ni 8.7864333353083 2.1756591098677767 0.14865228887908705 -0.0006108941111215285 -1.0570836108413988 -0.324257503399048
Ni 8.13293102564801 7.116606480898206 11.983769052736925 -0.19021638251951759 -0.6996668470815628 -0.9905475747923779
Ni 2.291666978097489 8.862798360818719 0.33488900633064034 -1.7333331074402856 1.3598464347017807 0.9405493884973801
P 6.061318100355085 0.3033189048586658 2.5207955399018065 2.0698447456163382 -0.8205315784801352 0.8153911719297763
P 0.2778728877711077 7.308867757061465 9.441885231977967 0.1722122326326131 -0.06859086169552057 -0.2619804997366972
P 7.046678068987449 6.859337267671329 7.111585550231882 -0.20136211472369192 0.2406272308719017 -0.08298852517808934
P 0.6629823625226801 0.6785055770262535 1.3303764097712545 0.21799612373594718 0.7097568843277131 0.8801837429251292
P 3.0579681506524015 6.9937527346203 2.2000317379244083 0.15841826417231428 0.14552983824542032 -0.3946656208089655
P 7.576591816655421 3.2877422341096323 5.346414031510639 -0.9095202871057174 0.24596818346884086 0.7472456253017905
P 1.2494657584426943 7.691855567705981 12.440669092640084 -0.4411190271754984 -0.20534681040305278 -0.3042916018000824
P 3.6060104530974515 6.077781692943811 9.507095010826431 -1.73240571053001 0.38823709157480235 0.5171596602808448
