# total energy = -340871.45063624217 ev
CRYSTAL
PRIMVEC
9.28425643555315 0.00000000000000 0.00000000000000
0.00000000000000 9.28425643555315 0.00000000000000
0.00000000000000 0.00000000000000 13.58844776045822
PRIMCOORD
 96 1
Ni 7.946515770137063 5.4840524383341185 11.663154950746447 -0.35398614081173224 -0.09571111495108033 -0.08800706143860326
Ni 1.1787849013523832 9.070588548372474 3.249147159952068 0.7784300213243948 1.4292515647684805 0.08525212440128543
Ni 5.880527324739552 8.803331942900696 1.1115278909529303 1.2954228170100723 0.32136681211481427 0.4328560158357577
Ni 1.2476555155186322 7.832635080818755 12.188959529162645 -0.24678476583286532 -1.6786781390995669 -0.49172862180224985
Ni 5.444455084678275 3.826255610951343 11.66879420809945 0.612174777606165 -0.002945455781569121 -0.13430388762261386
Ni 9.260154496073534 6.2589814694225945 7.07223034048273 -0.7443909294618148 0.12793449376116034 0.08783608307837776
Ni 4.860196827805526 8.533550019681114 9.03952435479754 0.282336694795546 0.4465088307325019 -0.17662964497401837
Ni 5.822695691463525 5.150255567058957 2.234104047052509 0.3918266086982736 -2.008284308405038 -0.11702915970256618
Ni 7.26269314735452 8.209613028730102 7.871040335949532 0.5212605698230958 -0.516036602419995 -0.3976982369877022
Ni 6.787506334971537 7.235703813924851 10.08209807327639 -0.394024901901173 1.055200791996389 1.3130248463625518
Ni 2.095920888114145 6.389332429640191 8.48049606476178 -0.9986403791028414 -0.7698566778330871 -1.9172335750441045
Ni 0.4507060850395516 0.7692693483713352 11.638002971663436 0.4124550835819026 0.24281086878678185 -0.7195926394712123
Ni 6.6585387289613776 2.217888164779285 6.530649025122248 1.1145796481753385 1.0143806726562339 0.8326296472952499
Ni 0.43884173375307955 5.402118875376833 13.389974654100854 -0.31948630726264976 0.17742154474769445 -1.021305681910841
Ni 6.974862629643269 6.938236238043666 5.17501110839259 0.6335167336170509 0.33669341516955564 0.9924239658794842
Ni 4.454511959025744 1.659467993539412 11.459477861703881 -1.1399268686908754 -0.13126124414154816 -0.1429636201801409
Ni 3.47098425456341 4.5522937477017935 7.249994141415372 -0.7656169287201267 0.1256089309517772 0.7724923156837212
Ni 5.390615681665323 1.4622146815178254 4.860642472113962 -1.5780672728540244 -0.256537474344255 1.4160497213662255
Ni 3.4240801911004968 5.161164568359219 1.4302796246901568 -1.6689472849650484 -0.4390580308814116 1.0587183182313444
Ni 2.760107308556217 5.662616542170661 12.280953512382878 0.4465800502900696 -1.0365206990883826 0.26563737976299406
Ni 6.245695698477339 0.2210869266921415 11.16258405286981 0.17497076921435675 -0.4883345085190364 0.03405888935692199
Ni 0.5432478393889051 3.358059843656955 0.914545679218976 0.5061759075758315 -0.27754930070923167 -0.1451914810693951
Ni 0.3829913607983091 7.30962506358671 9.785951647084591 -1.1032588238458805 0.03260904428427287 0.8347083842011495
Ni 5.180234431057719 3.349295505591042 8.29680705137822 0.059903875444483924 -0.9556196525669414 0.25912014746976664
P 4.174062425172969 1.3941796504298944 9.21419092778655 0.5351100741116784 0.20814057109810605 0.043214073493628796
P 3.116288522073874 3.4824410269927917 13.593203313558057 -1.9264725771438693 0.1783368574731122 -1.5249783634488445
P 0.6099097289514671 2.286313134637098 9.964544532116054 0.21960512009427985 -0.08133324896285347 -0.37201805861277865
P 9.141381003618854 1.3252626149815168 5.272603498237554 -1.4962354869881973 -0.6100664730139106 -0.5742373791304433
P 1.9077197261076693 3.609523928948523 3.0716006106197886 0.18672842397091713 1.0088535721904173 -0.07344639001560899
P 1.3106399111109526 4.40279865073429 7.184538276762516 -0.8850747524688434 -0.21690366200271674 -1.324796642186499
P 3.9367196939049736 6.994703085625107 7.809648190334228 -0.07049244959360762 -0.32302131699910175 1.0358740666433193
P 4.842389623980928 6.9303167673124975 1.7027279863552163 1.1459139395122457 -0.22621979719732008 0.5064363603260698
Ni 1.579317007815871 2.39506891440839 5.161354895615946 1.3415509788267024 0.863449460889584 -0.1631210689646223
Ni 3.676927630599503 7.435630991797054 13.556066287855037 0.029017727388588734 0.736521554016067 -0.3459966948483525
Ni 3.2103473239231954 4.398045111444303 4.705842351024782 -1.014847327880007 0.40412085268459436 -0.7889008389487316
Ni 7.5514985119904745 2.223403013096184 10.753476078745852 -0.7053844662916303 -0.1030359307472677 1.9366286917412645
Ni 0.7242518458141354 4.6402342245665436 4.857149734846592 0.18496541853322337 0.31700390716042826 -0.506180792671838
Ni 5.763954201057775 8.543892681339404 3.7460767724585247 -0.7589706270482025 -1.0711514017883745 1.118337572555874
Ni 1.823790048018846 9.04109246570785 0.6420991744052016 -0.728951454978293 -2.3172252360516743 1.7943435856853869
Ni 7.308529521328471 3.8601617154181995 13.531946718086568 0.4949034199858058 0.37331158061322156 -0.1614871329056251
Ni 0.8907176351022763 1.4663368913708605 7.279521790551843 -0.8390872299951355 -0.37131563322911537 -0.1375545333494276
Ni 7.227468678475206 6.806501923618631 2.9168821909871547 0.06727394265630995 0.4041859015945749 -0.803329612779552
Ni 6.251619054076971 3.7073428546502756 4.174493214671124 0.30612402702313085 0.33183711551851885 1.466882744857693
Ni 4.368799703703176 2.9496639720008524 3.0555666997725095 0.637123734242019 0.25301557723392554 0.08925996000909789
Ni 0.4904872669726258 7.283202069799012 4.652331610689301 -1.4137586113392038 0.23343585532978509 0.709218752436056
Ni 1.7450038479898908 6.119773328574826 3.097241870016438 1.0115889688437094 -0.7494302916579352 -0.6918964591075245
Ni 8.903128415221135 5.148101619568182 2.2314543202685986 -0.19674081390159667 -0.7376821499830715 -0.8602751769266603
Ni 2.9007266563806993 7.429308413171116 10.164879288845347 1.018530176048233 0.9990442994094794 2.405106056325058
Ni 2.1327793861243913 6.294252359584037 6.029724397075789 1.7845484539718364 -0.03648601074117587 -0.7218451829508148
Ni 3.397833598184888 1.4351325055238988 6.762603173960735 0.6287992735367236 0.44592827563868365 0.38087268078993114
Ni 8.290878125224735 4.086437613026695 6.3544876868486915 -0.6167706245069635 -0.17357260331524946 0.29732056979888793
Ni 2.475684112953219 2.721104147311621 8.704868689802995 0.5309919381782467 -0.7124331456082956 0.2220759502322756
Ni 7.1229186668647815 2.708783939034644 2.168920211112927 0.3446265539737033 0.20782432540926787 -0.44672480339805004
Ni 2.0538167852233467 8.588921325004314 6.718061025332534 1.7549969655669646 0.4557920558066408 -0.554262221560097
Ni 8.202482719795123 5.6044599599197324 9.196470995972355 -0.7192396270071678 -0.8895294458060874 -1.0417593217795025
Ni 0.05475111699396117 3.306439377929758 11.911796622084585 -0.7543758085886686 0.8776728035778175 0.5320034101618967
P 7.7590759171574994 6.2158839510942405 0.30108100848208735 -0.9119561502407197 -0.4733562899426493 0.7718914488749287
P 1.6980255104755715 6.74988652793438 0.7844723182685087 1.6020803479391699 -0.08861692710846028 0.7541554650477464
P 7.986855864306968 4.999033598396263 4.095544540154719 -1.0091397359722685 0.30332075324638086 1.025414304762576
P 9.139403457000167 0.3355367409293486 1.4842657189546355 -0.1915870376147991 1.3191309592602896 0.9572394475585513
P 7.042470584935615 5.856926744905283 7.072556217883275 0.5446635221280685 -0.5108542868881072 0.5527411569298804
P 6.203238793842363 1.5779986434034137 13.129049911511443 -0.4650847939624765 -0.4685185022343738 -0.9111472811861793
P 0.9593886377553716 5.645932733373579 11.164744499340083 -0.9218587540664124 -0.32299971973254693 -0.3581395008584735
P 2.7169540846893088 7.830871072097861 4.2913541503021 0.059415880064471856 0.09217687654557673 0.7273846247118053
Ni 8.013984461583023 2.8849527047133416 8.564268838917007 1.4035145650136926 1.4452831643100466 -0.8589119780305466
Ni 8.067684600749589 8.981598950531613 3.6181555021475473 0.59601693689938 1.1284101263005275 0.21593229922838297
Ni 8.576963202727942 0.6324156949531393 9.421427600742751 0.0179216174754272 -1.3300658610052383 -0.813884762587579
Ni 6.242594756831138 7.425455446754427 12.671241370306188 -0.6108123500409998 -0.845088441883893 -0.8695362905136123
Ni 5.02624575398015 3.044874021646968 0.5720206784779618 0.6345107220992039 -0.3533271670714947 1.0511842146378283
Ni 1.4698927615819246 -0.05861986664657319 9.106229880365303 1.617750450376259 0.5103367238217404 -0.16474112106654853
Ni 0.23494924996143599 2.227673771052031 2.9438826655245354 -0.6452692461672888 -1.2617277387504722 0.7842417429101655
Ni 2.2654792632177045 3.1749835911974955 11.365391207085281 1.3901150037783352 0.25174519516193417 -0.09666010912791095
Ni 3.134643497027591 0.7854861590702011 4.3709963587735094 0.4229657533052393 -0.9212465744037103 -0.14214163849947778
Ni 3.7994055413680603 4.748609349824378 10.149823010199702 -0.45024618628774715 -0.21992599376880834 -0.7451733161537941
Ni 5.111772324174203 5.33566216788128 13.50212011589319 1.1599166815492412 1.0915451349533782 -1.4082906462460973
Ni 1.7953059493046302 1.712351118140511 13.326774863759457 0.39115452233191345 2.202914503721535 -0.5521935119565264
Ni 4.447038132603011 8.32010496445301 6.293883774603935 0.34458130255806463 1.792753358380132 -1.6703752756608266
Ni 5.64765960506877 5.63160712570864 8.755635003939023 -0.25619448918253945 0.32021315812634527 -0.41736769039217153
Ni 6.445919972555168 1.3309631484269302 8.71640530683764 -2.00346528974984 -2.1291030170570235 0.12135452655079744
Ni 3.748648511488459 8.641182404424889 2.3336117789981063 -0.9348327977285772 0.4624237021905455 0.7683140159363155
Ni 8.320662019838556 1.5229522870551133 13.456911357653619 -0.010229905258124316 0.9703543876739548 0.4044558674265099
Ni 1.0475705052871906 4.442386720133709 9.313196381459516 -0.4627204074953579 -0.21815553213194688 1.2112772954094042
Ni 4.982275515547776 6.029883157860669 6.256610270331457 0.8887979669567015 -1.366353382582363 -0.561004168269621
Ni 4.061128730010088 0.5938563211656945 0.19639358987656147 0.5543524672810582 1.3461501681616106 -0.2969585584737789
Ni 2.6986269625048687 1.8364073525014468 2.051842023881589 -1.1039499363756342 -0.8896708564799581 -0.7979066419917678
Ni 4.380033653978339 6.2859893713651145 3.9874488710152978 -0.17320030757749527 1.5398956468803093 -1.1843745574812894
Ni 9.282316016161811 7.527526561899174 1.9154544401359657 -0.2074702845039588 -0.8065738307484625 -0.45568895456987324
Ni 8.30147146180652 8.4064021279304 13.311678662811179 0.3051927734581131 -0.322863965485631 0.5802617309476522
P 6.895055161407481 4.097244487506274 10.030639153611 -0.9696643035854655 0.6078573811777338 -0.011608273662889685
P 0.10731393474837193 8.40417390638822 7.134994699197761 -1.5284802059545162 0.8588294456190693 1.210459170383483
P 4.529937258228577 3.30098951940784 5.789521186403019 1.6759255160550943 -1.1693891398160505 0.9343458307898296
P 5.921545169628536 1.1266816542910474 2.9612627935535483 0.30515857778606803 1.0879512469545327 -3.0406755587060794
P 4.7479780203874276 6.429319722065918 11.075563645816853 0.6519618276961159 0.609791107865337 0.6842461416511184
P 8.214598674430732 8.529938443931496 11.170750484821903 -0.002659806220350258 -0.5087889197186463 -0.42762999155012804
P 6.463587912533379 9.360015958188953 6.228699938664353 -0.3725140244125907 -0.6657426835302922 -0.4423063626153802
P 2.73560615584865 0.06647156230583402 12.165207615948637 0.6528383167637982 0.5988238102205558 -1.0060713814595899
