# total energy = -381171.09546781715 ev
CRYSTAL
PRIMVEC
9.15754896720914 0.00000000000000 0.00000000000000
0.00000000000000 9.15754896720914 0.00000000000000
0.00000000000000 0.00000000000000 13.40299857274574
PRIMCOORD
 96 1
Ni 7.563741845283607 2.2633890120455926 11.897855108002544 0.2983191862667314 1.612891322511745 -0.06308330161373006
Ni 3.6262429531595273 3.2121568944905725 10.979294317271604 -0.4026527527795001 -1.9111403176621735 -0.35249952896387676
Ni 9.521287029928036 6.0366197870392435 1.489207057388353 -2.116768920971703 -0.7766981262349526 0.14498887814028577
Ni 7.063501563960895 3.1687684264916887 2.691885390098896 -0.10927548389907633 -0.5770424526794061 -0.30121116310254575
Ni 5.294556104609206 1.6445584688854946 2.2934138685310166 -1.003507991607788 -0.24396400855461856 -0.2987336480963307
Ni 8.040676163951789 6.831449267825035 6.104878327092024 0.18435426731178572 0.46408566327400075 -0.5648896193669561
Ni 5.157540853828434 7.910263506127369 11.964388365790448 1.8158084404273827 -0.8935287967734675 -1.2410059328220886
Ni 5.937150487882664 3.829769483610178 10.56220641398255 0.3432101332421508 0.3788235115703863 -1.0273955968586628
Ni 1.9919409393518606 0.09168996113102997 4.547047343438742 1.2283247378099942 0.4949885235004443 0.12278354568784015
Ni 3.7133129307309463 3.383247385757592 1.7884556178725048 -2.0114225969237034 -1.9491841598087718 0.14815827700720288
Ni 8.759433883727297 0.6941990043936164 10.632719542642617 0.14276538812640574 -0.5586786054602378 -1.55770413581664
Ni 7.189994790737716 7.578458026810454 8.366794805230015 0.5950800269074075 -0.11063174081665464 -0.1938048712017243
Ni 3.600849069292726 9.568173681712393 10.73342968971263 -0.5623732807030057 -0.13940109963986316 -0.15094509572372067
Ni 3.028960123212045 4.805268252101747 12.585348954889032 -0.12369628731009666 0.07937329702300525 0.9192215735538813
Ni 8.3146791928658 7.316002667408175 3.3725962403102505 0.7597008203460077 -0.6248570010595238 1.2368556580991408
Ni 1.209419204659462 7.959430387656707 9.637922155016211 -0.03081004340232113 0.6903332283854626 -1.3761893948361783
Ni 4.394854370652621 1.6829377574847602 8.957197568481092 1.2226292300871135 0.3071846070771612 -0.5194407430055377
Ni 1.9805306330777768 1.1349591723042656 8.968898169064076 -0.3329123508605686 0.10831363420643926 0.4665287254978546
Ni 8.95027720856831 9.196102458665827 5.354525231147299 0.8759509357907043 -2.9421048628190167 -0.8026768096869015
Ni 3.9903654235207773 2.3176383333679618 4.157998939973618 -2.414913786444099 1.06915468307332 -0.2001719510703327
Ni 8.597656619972913 2.0032505125850015 4.374591461589487 -1.1603733094706854 0.7194288601998384 -1.6565576530514439
Ni 4.457015814463601 6.611741347979275 4.018835328156008 -0.7246222314753198 0.3661546578534661 -0.30388896704502505
Ni 6.092728090844469 7.447972108592622 2.6032915963444854 -0.46416279636883934 -0.44554878081207777 -0.5544437414432838
Ni 3.4035130420854784 3.898240478803857 8.447856514786645 -1.4229107101521172 -0.8354846002455417 -0.7556932418485115
P 4.99960060317906 5.6204915949039 11.912518175744168 0.5270856611453051 0.4567294800192457 0.06867442254826238
Ni 0.7597560674392909 3.669100283306166 12.150206943398246 -0.14486058009253763 -0.6573297768762487 0.7289887359741316
P 8.944865097004921 7.29018753627925 12.99696888556472 -1.985132809989239 -1.3256057683513556 -0.05623696811585798
Ni 6.253846011058136 8.054183548987321 4.9344885970233685 1.6496156745159718 -0.03612888451207326 1.4597175945678216
P 0.06573746676445429 6.627858634530148 8.417069750209725 -0.8443361370989008 0.2940670958585968 -1.0359360302295062
P 3.312642681605757 8.267472026860261 7.974864521039004 -1.4520155979378733 3.743860960463862 -0.4763593384350312
P 0.0712072708876567 3.09853002430692 5.949926184738984 0.807626440382693 1.539115317070859 -0.08384598808237817
Ni 7.838834622549638 4.020008410205535 0.45808899821759047 1.2447584578859854 0.198093214164433 0.9099206078679298
Ni 1.9910160268850208 6.724507408540324 0.24652305534477428 1.8672731839655776 -1.2942136271933193 -1.7500699605789924
Ni 3.989962491357005 1.0205264377930696 6.277281095156056 -1.422186430391583 0.4806816199594689 -0.8139215293627853
Ni 2.36411289543937 6.958308796568921 5.023698693837366 2.1291048168292366 0.6075105393612763 -0.6133240607192598
Ni 6.008551898812866 8.994663849427448 10.00044663304614 -0.5364419055492246 -1.5984167830446536 0.10249831307624283
Ni 7.276515315358537 9.107026977824725 12.459240345177626 0.5103354382701598 -0.36853961314587497 -0.7938985492736391
Ni 1.0396657155722309 -0.5242165765769693 0.713791580857021 0.7087235579671923 1.9816371381311548 2.0667532511752085
Ni 2.5100659142165345 3.234556259776615 6.1626047698367605 -1.368778704194404 -0.5153040951293447 -1.030576822800122
Ni 1.6051535347784462 2.3705964402564255 3.4908247789551607 1.2240587634447886 0.2418485048735125 1.0300353484743552
Ni 5.376104080027115 9.026623696053894 7.512729717595176 2.16053963829975 -0.05922407576863993 1.3226263740080575
Ni 0.976643462138648 5.79845940560257 11.314208784533985 -0.20412270818796457 1.4034582578544603 1.4706188148613575
Ni 5.269272111332524 1.7334416411938867 11.499142742891317 0.5760482070869369 -1.0780039059338338 0.37492777606040595
Ni 7.126597077787892 1.657223359396777 0.8147270036367787 -0.41397229155737736 0.15489816683419774 -0.7615142194056627
Ni 7.941902838532633 4.893217354394122 11.593728321072 -0.3489292951141152 -0.3381910827610046 2.040717489233079
Ni 9.174490642608975 2.0208604796516654 1.8744358470919045 0.1747195724354991 -0.7872887572666055 -1.4727816268406313
Ni 1.6602178779775358 5.36698316104719 6.974411431041111 -0.921006433368446 0.3216935993266137 -0.1779715037138935
Ni 6.946779442155541 6.479716961499769 0.5729274121573114 1.1315314455383285 -0.36105873138779754 -0.724846431670984
Ni 1.9936625585970675 1.7880755795816743 11.581665081541622 -1.1102144292281073 -0.9473319586368524 -2.655931053665568
Ni 3.800822470662843 5.152797243354939 6.041991605386255 1.792366921574991 -0.296145061433548 -0.4491938337638329
Ni 1.175737738787809 7.83200309086387 6.617918114898914 -0.05785830576936487 0.23120490911673733 2.2846187628705623
Ni 3.1230814136494707 5.653715183316721 2.140512101438624 -0.1473985160230429 0.7721115353055347 -0.7841196155100044
Ni 5.413256257036712 4.6700387234104195 1.6305950379009657 1.7700798280420158 2.0499896585636246 -1.487713051339483
Ni 5.715968202619466 8.762162833381932 0.5942525969249347 -1.454983936537578 1.3548137573738794 1.5602359010995581
Ni 4.4566128822998285 9.191889986044576 4.098408935971436 -0.4861295304479176 -0.681144362797343 -0.9687939851653702
Ni 1.5020853187954508 1.1441075639317213 6.692559466727808 -0.3376336675956379 -0.045502355307173246 -0.25213780261466257
P 1.7499527023593549 4.121959405188981 1.0003532727118665 -0.713649791624216 0.12325302912509097 -0.1758601137978455
Ni 9.372751582283064 1.0751145884349742 12.822716292567009 -0.9987722766950154 1.5728505045397752 0.8377327728497701
P 6.755597287994991 1.640318523616714 9.758790815088746 1.8764929027916328 2.8056962701485744 -0.7999779226984997
Ni 1.1959942375665191 8.31443193903803 11.873288150826392 0.40250979944373266 0.6890751876086455 -1.3944002614172502
P 4.711797147655862 1.7909144198264304 0.15128912268238767 -0.1963762314733263 -0.08521458629513066 1.1033423846986223
P 7.266405381067535 0.7538338803867628 6.07100913146225 -2.970810715394142 0.44583700147645794 1.3172607388207702
P 1.6471958430483646 3.5093102077231104 9.801318473465026 -0.07188727305860523 -1.6459711357848492 1.9979363895118107
Ni 0.573997013901142 3.2516259314418567 7.912058385765989 2.042039807588928 -1.2611438412225442 -0.16702143246029302
Ni 2.554012992715192 4.523856765903839 3.914586704084145 0.7865145981047422 -1.0031547220334271 0.8242303674879612
Ni 2.830168045685713 0.7411598323263039 2.0938031061082936 0.623001950128656 -1.1061546573364371 2.328136740757855
Ni 8.257471983159379 4.916367638712649 7.392022230388152 -1.0165542832687846 -0.5333447546811396 -0.5143026504480239
Ni 7.4690161566005235 5.475234549864159 9.601425658527662 0.5671329068751781 -0.18261003092716938 -2.3733457331943253
Ni 7.837964655377858 7.32800821437874 10.918806873450112 0.7241257514548756 0.4335016198395566 0.5864802010535384
Ni 5.683541320985012 4.575587761202635 8.090478579393984 0.11685715290107618 0.6130777490364087 -0.34794507682397496
Ni 1.6672508757451892 7.5645110794144435 2.6921930837512305 0.6103364388458457 0.2305801310485448 1.183850052436387
Ni 5.7901535084993645 3.773020151362588 12.95982861336905 -1.1413520311731762 -0.4174818473725326 -0.9067229268662383
Ni 6.952988260497298 0.4162472402746403 3.345361689058947 1.238533560022196 0.10085434971491664 -0.5541735185010327
Ni 8.482500439076762 3.1998399908480017 9.712362956518136 -1.0571910829535405 -0.26936290824369735 1.5929814709616952
Ni 3.7863535429637647 6.399588406204237 8.285908004862657 0.07849912194816804 -1.8608821928375694 -0.8445647081699389
Ni 3.271442867860089 8.592913009499417 12.96614182777142 -0.08683540972800528 1.552494309480926 1.2459509355321898
Ni 4.5040581445839605 6.68840834968604 0.5260352658434485 0.05256748968407076 -0.7824910787676459 -0.48967199638353726
Ni 3.2298492794998257 7.414986616458393 10.862621646231801 -0.6730330465441183 -1.8926923953696306 -0.5956641815456516
Ni 4.48203423881416 7.394830850720625 6.196622317763197 -0.6410955744055733 -0.044900717167432345 0.33200912232000884
Ni 5.50158081884533 6.650715877275022 9.718206388647747 0.4212739674251132 -0.001477355876474875 1.2190032032987521
Ni 8.602867265454416 0.4964069312373726 7.987865493605067 -0.19939264970214693 0.2361763941893997 -0.08682512531536014
Ni 0.8015309752732517 5.609392645301821 4.746109568665785 -3.179863513893872 -1.000321109239374 -0.1589103733173844
Ni 6.087270191535196 2.1088645272391005 4.640118262985609 0.9873948880960093 0.15326165967203928 1.949653900356339
Ni 7.456433684031831 4.144944853622328 4.897482940800598 0.7251683337867769 1.0524219436996716 0.7038052947299686
Ni 2.4575931574344314 1.7234232823946511 0.2522272927268985 0.03165130835669388 1.7685392230277737 0.08107845263957005
Ni 5.29155242847927 4.554149938580139 3.791426825207619 -0.38821035210192495 -1.0221826851991556 2.118414684105242
Ni 6.904196838484202 2.5433444479244156 7.560202452526838 -0.13516186474753497 -0.7720498288296639 0.13284170125479058
Ni 8.009000201349817 8.636979136137372 1.4153834747009324 0.0240873799665069 -0.04880082355278693 -0.4701694075742354
P 7.253969429285669 5.3801425592140095 2.7267463483044994 0.3295766016191163 0.6127201085866738 -0.3023370491768729
Ni 1.79455912439873 5.555115851331922 9.275504820311651 -1.459740477385957 0.7483817957887627 -1.0321999602258416
P 6.202719414004998 5.5701800197274824 6.159482045567529 -0.16938993269246957 0.4570912342340386 -0.43450332163119365
Ni 3.734082252263548 5.17732116004996 10.201182858262671 1.4454536284496395 1.5853103275696827 1.7878888311989791
P 0.399661087205924 0.2554342664485551 3.0907314554280996 -0.5096764645299222 -0.5226229973882612 -0.4407621580567119
P 4.490770540728667 2.9925771803332855 6.8977728177367945 1.8731949487666515 -0.3773009042782728 -0.2691687899550203
P 3.8877642425457895 7.998111875378802 2.208667161185709 0.0577498052159586 -0.4648312831907737 0.2477882673967152
Ni 0.028501040302432414 4.165430291130455 2.8085177679223188 0.9712236776527854 0.3891176944075428 0.6187791702965602
