# total energy = -381174.61234353186 ev
CRYSTAL
PRIMVEC
9.20497317976570 0.00000000000000 0.00000000000000
0.00000000000000 9.20497317976570 0.00000000000000
0.00000000000000 0.00000000000000 13.47240870153648
PRIMCOORD
 96 1
Ni 0.8210881922748764 0.21624506623348358 9.223480498363397 0.6455620948173592 1.5490449174797452 -0.5871124353208986
Ni 0.7534767452417521 0.7328944256591644 5.7446349346787144 -0.22821600169174247 -0.3462008404393586 -1.5711816014777844
Ni 8.239159599742372 1.1752909500468742 13.50501167234196 -2.389161617180659 -2.580223635529924 0.32181366984424575
Ni 1.0482531179541665 4.546483434236779 3.919622012827967 1.360037210556348 -0.36326602345176146 1.2144076135082698
Ni 4.673806620491857 0.5160409107117233 5.877459012786456 0.6115021770191726 0.8012210510769814 1.5442037873373597
Ni 5.565924986764515 1.7548544587941433 10.196673505149276 -2.3037577976928585 1.1318669745008765 -1.96621514714913
Ni 4.085231443197471 6.800735292098067 9.781844033841141 -0.2450248457189651 -0.9354084677263891 0.6490716506325144
Ni 3.190756603842013 4.732930161940409 8.839489527531823 -1.685926336021548 0.8693997649357479 0.0023656720186991517
Ni 6.946974697826409 4.480078759161293 6.951924211797588 1.085606657981756 0.2011739099722858 1.5156010359990026
Ni 5.839146994747686 2.0661666449672738 3.842937223928762 -0.26388568717921007 0.4714770706420654 0.5872291634044209
Ni 1.0838027236017311 6.976209692009907 4.290449872298583 -0.5801228913769428 -1.0685018799806694 1.34004688347735
Ni 6.442183184593166 8.73133109502046 4.751893326775869 -0.8709105451533194 -0.13825541607119415 -0.7674683801065686
Ni 7.19969723098381 2.242101293528097 11.58635195788233 1.339068835834797 -0.013129852513738677 -0.13532461557764439
Ni 6.834701642393125 5.575627028285108 2.971784104114647 -2.3365835859736275 -0.7003839277532453 -2.965744099504512
Ni 5.494457576550198 4.163059489740754 5.13618069773739 -0.5575452631867429 -1.3903733996460441 -0.7007040300968256
Ni 2.982337605635862 7.371498846676753 2.9045703119142456 -0.3180722005239425 0.8869043494784145 -0.3133367427214862
Ni 1.0941951380958017 9.285424443532925 13.283066886839451 -0.1457003023850136 -0.7602482082090456 -0.4426907425379924
Ni 8.938314117441779 5.79770620639312 2.535170143752779 1.0857249287271753 -0.9104466555747289 -0.3360398407459568
Ni 0.44411417234572015 2.7011717059712184 12.764365738936597 1.158788738592385 1.6866426453622825 -0.39700583890636787
Ni 3.433454921424531 0.06546300633966444 9.581576959705805 -0.2683131268229444 -0.2259500884757012 1.1170008560223215
Ni 5.32580406161631 4.079496745031125 8.977932321146367 -0.7626501327823189 -2.480330621287012 -1.8523859824411
Ni 0.8181333959483957 8.958021964591296 3.3905873622581124 -1.9526656905994695 1.1594443698985128 0.8667276174202234
Ni 7.962651416405452 6.0062172543290675 4.845715013871364 0.8685420449211428 0.06246880795818274 -1.0995335524754934
Ni 9.287909786237442 5.63535809795032 9.013458914361482 -1.572238581987389 0.1476664249724489 -0.9727218594648669
P 5.271614385684872 7.661805284510229 6.615208141195109 0.23151292727545936 -0.4303998409857813 -0.36512210282389373
Ni 4.158696332548381 5.995419821023891 0.8259852379000717 0.3158787924170495 0.34180888201925 -0.18617846500471805
P 3.194199263736417 4.318126464556619 5.248122374143405 -0.15690979794758786 0.7567764476103611 -0.7390281224880046
Ni 3.5107398745620118 3.323934152912174 2.26477958545816 -0.6003829271775595 -0.4797030580962835 -0.2937644770165134
P 8.422587096308664 8.189701279922497 5.450599562291165 1.7128306166115599 0.1684154845943422 -1.1435199853587723
P 1.8047914372089637 6.05607138798707 7.516552651885309 0.1277447463478574 -0.4260263945084341 0.009263941800429209
P 0.3710727117518766 1.562304834004979 1.587817337115489 0.5956677810900773 -0.32304548536881783 0.4884311819979007
Ni 5.536294178742891 8.221081032810261 8.86737783416839 0.8280703100593416 0.9108495474401022 -1.80618608684627
Ni 7.659945879968332 0.9826584805008927 2.7570882348336454 0.5515941878096307 0.33152884024948065 -0.891390410274226
Ni 7.210807633370296 9.016869356850458 7.066871311881473 -0.6790975075706434 1.6601111747306572 0.7027040912459898
Ni 2.7264945866383465 1.8114006078083815 0.3737743713214158 -0.43384023412589795 0.5315519244467749 0.11904233347785306
Ni 3.376310449166613 5.50778637742479 11.791725030529502 1.1795285422428976 -1.1139083331399267 -1.333008231463014
Ni 6.329974563970739 5.347279263577928 13.211851692884778 0.5153930552987253 0.7467871976081332 0.19223341294954635
Ni 5.9008663385765106 4.388065849256307 11.042969515929034 -0.574314512225282 0.37234253183173294 1.0071350468374138
Ni 4.861615684196481 5.464237650257874 7.1631452037787575 -0.8879317623016643 1.3286892923726858 -0.6173136414946271
Ni 0.2132525295177862 5.0918044434996 6.3295391687488 0.8378340743143249 -0.6647677212115325 1.1049485528434775
Ni 7.649792794771733 0.91738049411812 9.181514106051692 -0.08921085193871733 1.448013418757016 -0.04921734226491523
Ni 3.303066479167216 2.187948437488578 4.581063756229582 -0.6441222770470391 0.660261862921379 -0.03217581340159619
Ni 6.335608007434311 9.009302869061152 10.936079528694272 0.5722915682579822 -1.414992226635989 1.521169788336032
Ni 1.4167558012501136 4.5334860123894565 10.788772346100286 0.4433854546121718 -0.52889906020496 0.49287096293680926
Ni 7.644960183957395 3.3596494480733727 0.4139421119128909 1.678889226669109 1.613103695632867 -0.1195483265799941
Ni 8.07217218491781 4.535419056715191 11.561508656307444 1.634034275137947 0.2414569258620487 0.9400143419295166
Ni 4.500145600257017 7.526436951870902 12.081584106676166 -1.1375208303525444 1.5226803114432874 1.2188191123124041
Ni 5.853626417244739 3.6829741239849993 1.6966339251948994 -1.2773417911386453 0.06853326898470778 1.0983536732347794
Ni 5.979108608903879 8.881924452968196 0.1743624391758921 -0.9515999898845869 1.7918203050429011 -1.0897466482920586
Ni 3.21464350872431 7.754628232037428 7.724634748080405 0.9736806238337102 -0.3193083869238888 -1.1620432409739407
Ni 0.7464579533447382 2.182268969160109 3.6546200457156592 -0.04747721964535694 -0.27839622209055925 0.2833329972705443
Ni 5.675408935384953 6.333987932189884 4.635142051987965 -1.249678520895422 2.4706753575854354 2.0218556193315695
Ni 8.651183395286296 1.9528626325602643 7.100821093225167 0.8179026254977205 1.3121732969955335 2.6841229427187514
Ni 3.9320422828694634 3.06061669585515 6.909931125064241 -0.08002738566723636 0.13503433803073517 0.15425333416134723
Ni 1.049965242928389 3.6978769752391187 1.577403751183565 -1.1677091810104663 -0.9246455727829301 1.2103172454889801
Ni 6.612291085257844 5.9543288216425525 8.959596014970824 0.2563644391015004 0.4801193196980957 0.8996588209306055
P 0.006741722210325272 2.8510470760265374 10.507360673657082 0.5231320758141959 -0.9464549553485379 -0.1161747821220709
Ni 1.6250459298345488 7.265936216545662 9.371770772071613 0.32204301224623244 -0.11690626097145673 1.542696349553898
P 2.066157439994294 8.501584174420367 11.158280212445614 -0.5771877200080188 -0.025230235321698484 1.2279257025993626
Ni 2.518637091783957 0.8381919525684391 2.577513939956653 0.6898136084365668 0.6437867480844913 -1.0798790114693595
P 6.660341044211829 6.985368640124698 1.1112068486595674 0.9404717411819092 -0.4582909109690945 0.20903608632918194
P 2.1307027105278835 5.647453432445633 1.7677285340035382 -0.21263563075498218 0.29655335261556026 0.040151375407905046
P 3.913650746856042 3.325452973453823 10.897615628601338 -0.8835110075261494 -0.15432275394670197 -0.6143036510237098
Ni 1.430692130341365 2.9430047560936448 6.045136800584496 0.6942405338596689 0.6584479496410918 -0.06261844616216958
Ni 0.7587962991267153 8.221872660486513 7.228148881966735 -0.44477025077484045 -1.7439342799949 -0.1234494614066132
Ni 7.633610452273437 3.8150931011624962 9.359942381792711 0.39351479503397385 -1.2625075543392903 -1.2722216963032607
Ni 2.6611116635636054 8.816292995623003 5.19547269019147 -0.37086029085925165 0.09252783212709226 -1.3610448258852559
Ni 7.84523278107652 7.8799263242369735 12.803651643116618 0.8553198898039142 -1.3973639720312643 0.12385826680925766
Ni 4.895048146058717 1.3215487657211755 1.7992942273454928 -0.04831385661403938 0.10037535319596906 -1.2960990171414903
Ni 5.356106832665452 8.193199169654777 2.2432233797343213 -0.8639341138354861 -0.46494261195765735 2.0057682268514037
Ni 2.8463249248879565 2.358608636532039 9.022836020335893 0.6573233491183454 0.17475633921070546 1.6930344078212392
Ni 3.3265759801573456 6.676606231466942 5.537847057684565 -0.11472827948353145 -1.7961896377551905 -0.4288903463197904
Ni 8.094632318988253 3.5832750616419724 2.8806972144914185 -0.5987669888406913 -0.811043436484042 0.8198908595723429
Ni 1.8770780900184727 1.512579569968691 11.384144475442875 0.03623995616864082 0.309565448604512 -1.4422623752058517
Ni 0.5840270001451209 7.5648493041151506 1.606275148934364 1.1389367368634642 0.7768516210936814 -1.5775545948836638
Ni 7.823361765276776 1.4067223807022513 5.159217983613661 -0.6939641402698307 0.9362289067451554 -1.4305659127045298
Ni 7.802475681585858 7.883709568131626 3.0749828971845523 0.12081202378376613 -0.8125760710784845 -0.4042424658641231
Ni 4.07516120275769 1.0412021086517238 12.039981310797156 1.2657677131478007 -0.35968010587271604 0.3689049669050937
Ni 8.826261981360007 9.40932337983956 11.148781600827872 0.019586920992992075 0.1126773104917737 1.2764064238085693
Ni 2.514835437943345 0.7590926992566612 7.302018790128751 0.25375888315785333 1.0693629424293842 -0.0029570257457949074
Ni 4.667280294649257 3.5347372391200644 12.975546229036654 -0.5465468551937104 0.13159214511840564 0.017889735796227255
Ni 2.032319959320952 6.757407484282664 13.198433603772283 -0.4844061199989077 0.4040239220954139 -0.5709162851770103
Ni 9.333842601406097 5.319185686043913 0.07640863970981433 -0.45613761207151765 0.2447913895519204 -0.4286021256554102
Ni 7.624506733996523 6.816641485406972 6.931594108474644 -0.34634765042986804 -0.7560511394085624 1.422818407548627
Ni 4.1269299707954685 5.336389780542954 3.1714187966062792 0.1510404836510044 -0.35552880270850384 1.0020766584779
Ni 0.11962966983865278 6.496308425713745 11.242118185847339 0.27667178320028485 1.439979492708946 0.40749002626714337
Ni 7.998495581188367 7.848583391241128 9.174494393657378 0.9828987999978686 -0.1899029650441568 0.5747693403745133
Ni 2.555236064351206 4.204150489122092 13.479144777771731 -0.8464315861753486 0.6521847423401994 -0.37287989239244174
P 6.061115713179941 2.0593917848542214 -0.06426083686851687 -0.3495162779658368 -2.140444667322088 0.8945598091411432
Ni 6.33531344829896 2.224289670812396 7.15194919514356 -0.8516298425468366 -0.5979635191027896 0.12220710435907986
P 7.799944314016443 3.7696849694536834 5.183401288625903 0.6158352571768878 -1.3019660174452288 -1.230482150472629
Ni 0.9832844186635116 3.589387163700487 8.498341262439622 -0.855747721369952 -0.7000723100500975 -0.4997085546839329
P 4.608672231687568 1.2966216988921737 8.196667603473525 0.5467502294537682 -0.020324570489964996 -0.5840736484945748
P 4.223913566109487 0.4383058343955355 3.7245281335072162 1.4474390343107846 -1.2598361781547143 0.12742335845269667
P 6.011574548603247 6.567656171279325 11.0923864133705 1.183855965973658 0.24614790357981475 -0.7633862396173949
Ni 3.1946318974664627 8.581934383560085 0.6058869699772896 1.4604850688614652 0.33844665041523647 0.4141178159963061
