# total energy = -381169.0222810527 ev
CRYSTAL
PRIMVEC
9.27301886484548 0.00000000000000 0.00000000000000
0.00000000000000 9.27301886484548 0.00000000000000
0.00000000000000 0.00000000000000 13.57200043981231
PRIMCOORD
 96 1
Ni 1.0982870758512144 7.962750532514743 0.6330764131580231 0.3983451265430817 0.4803124095455083 1.9623649201651043
Ni 8.27495453009796 0.8253904777379834 4.488749418216665 -0.306672186217117 0.2964913890293733 -0.5241867423309553
Ni 5.500318931284251 2.241362832596065 9.207842478490079 0.7857887756823112 -0.6411235994300314 0.1079559937567044
Ni 2.467754314032345 2.379512266954945 1.1426974175770532 -1.7596851150712534 0.6208167695518791 0.030338503082541296
Ni 5.871517874591135 8.9281459756772 9.1124852440732 -0.19544446368767632 0.014522104875574988 0.15286519556456898
Ni 6.5331477672952625 5.660148683640919 13.445645461438923 -0.9440856837854129 1.6421445629499072 -1.1575366113528387
Ni 8.540784160569569 2.8838253954022326 2.8337798401403553 0.550921073002006 0.6093002842718473 -0.6760147548802615
Ni 8.246319447986252 5.305919364771996 10.084579516030184 0.21699699304747144 -0.6210157729365627 1.7129861683528176
Ni 6.29635195874456 4.024165611595608 6.42749562738602 -0.9875512111682154 -0.8195195922758531 -1.2073946725255462
Ni 1.0034982774879124 7.1555991554909815 10.264313803280887 0.5895197592108106 -1.7601440569855429 3.039645060559036
Ni 0.30323327917814424 2.7582038094672243 4.9308572818253005 0.059679418138503665 0.44065802837867984 1.156421009691157
Ni 9.06384733306798 7.368368572282799 12.196885109218965 -0.37907779367303746 0.26911453967831717 0.1430096429267279
Ni 3.6543298020550514 8.719614328485463 0.42108871185260965 -0.22211708788285614 2.5570528538404154 1.16141434914069
Ni 0.7283780094619912 0.436451322129315 11.098775148027183 -1.3900098456590384 0.5910827328225562 -0.31711086505193775
Ni 3.9468379076676516 6.732387849630804 13.37664492841003 0.8400853322423468 -2.270849991221244 0.09161097673977771
Ni 1.61695483742963 6.119645312138116 13.05597930115488 -1.6254102809143618 -1.1164372702093677 -2.686862967357734
Ni 2.163052188673341 2.4413911215311837 9.558650980716838 0.35927104335975546 0.555025839198999 0.43554153308772087
Ni 8.48109373843451 0.13155168146947588 13.343447521039593 -0.6306229570090236 -1.6402959397769428 -0.11198439818980714
Ni 7.252242557617995 1.2653405098675403 10.401540572267322 1.6137004486766016 -1.036791436251266 -1.141289296256041
Ni 9.048250115415165 2.1490777493137734 0.3905396786567515 1.0287081450224993 1.1315622987762641 0.7008300141517285
Ni 0.1981959404165718 0.6695267955300116 2.1808573121068546 1.0192151179303996 0.2591746548567859 -0.5019037625630388
Ni 1.5004764480497206 2.849645048037027 12.262139342645158 0.30128058288790044 0.12698678513591033 0.14853288673780224
Ni 8.21050704930898 5.108070235259239 5.387432909394651 0.6718392833463332 -0.4039897264233687 -1.5214042729443409
Ni 1.9608540133346795 1.8946817510454481 7.2085369653223665 0.21553377823838366 0.14422140384664195 -0.7202953219651917
P 7.022624065632858 3.5897061339085194 4.371310344087153 0.30108697881985563 -1.5714721361350097 -1.0379044668097868
Ni 5.186111961636225 5.437855876522442 11.490164235207716 2.0896329839868595 -1.2941295521199454 0.38186898326492946
P 5.028646829078288 5.864934031229959 7.499859979129955 -0.06344171339441332 0.18046418822876018 2.4399941264514946
Ni 4.764449249918746 8.092535703899284 11.6830903190297 -0.7257077512300147 0.558831071877702 -0.8517964500316878
P 5.104824678672744 7.346057689005349 4.24092428108317 -0.8592919870777846 1.570789251135372 0.26555279046898783
P 8.22748594676576 8.525928784422238 9.889319413371569 -0.8243445244683222 0.6487124675208827 1.3916047009499841
P 1.510852956107687 4.706390879095753 10.97924593545597 -0.7876481974885533 -0.2874223368485695 -0.1450122751790535
Ni 6.6422633797332375 1.3987792506665928 0.8359376093422114 -0.3677970785528956 -0.424036874882231 0.157192105074697
Ni 4.437297146000013 3.2634535128151865 7.518861321991062 -1.1248913145139916 0.16286113043501632 -0.2511255593000643
Ni 8.053245923165052 5.5547422787303695 3.135525727100003 0.5801182633912526 -0.7439970364575058 -1.5367627576782825
Ni 1.5963038245207009 0.6768738083399553 13.306979519931849 -0.004681207525753228 1.9743323769396257 0.7762019033248245
Ni 4.1466900092452175 0.2924200119338235 3.6101522131015584 0.3976252176579217 0.07927893753698605 -0.2076183800460489
Ni 0.7704496958417897 4.1154028437514025 1.0503631872950236 -0.3314226536889196 0.20262941147188976 -0.15443382560326951
Ni 0.22077481393787915 0.28804407435334584 6.318635022965556 1.202870816513264 -0.5376888905824482 0.06881994698719116
Ni 1.8044830969973324 4.05560114539052 3.3351293117732324 -2.4032975423614094 -0.41406767948466117 -0.3919937304037571
Ni 7.551241776403586 8.81475550156387 2.2741921011194064 -1.0580256630396938 -0.6372887990649734 -0.8560138305471451
Ni 1.069475806381954 4.786862136403201 6.256176604713157 0.001136684707604494 -2.0066848251284024 1.4939562040357175
Ni 7.942238614888091 4.889876102458564 7.552981394733948 3.728039420050573 -0.6186580713376636 1.3666385179229497
Ni 4.470967477330198 1.9557260339280167 1.799823405041007 0.8725506518599038 -1.5573290118654082 -0.25395994342506584
Ni 3.8036717701279317 3.3272147902115927 3.6520894407084876 1.3191913801845798 -1.640806560864774 0.7470401941592038
Ni 7.930944077967088 1.980865187945128 6.976537162104623 1.0049115568235338 1.250162659620692 -0.35972175774392884
Ni 3.139667984606253 6.133156100556755 11.211191955164566 -1.8714000616497577 0.43183014567440475 -1.3962008049610988
Ni 5.933795468976572 5.457644498681246 4.225221351015824 0.038233589559901894 -1.2712138238640365 1.0385544416889596
Ni 8.716674781519979 4.462028287189108 12.484272653839957 0.7029324052067121 0.6504947562322861 -1.3807160790619382
Ni 1.815490170334961 1.5031656235071023 3.6906883815407365 0.6523266672347025 0.04057766431204624 -0.22167717213196014
Ni 0.7648905210600642 8.530899122508984 4.15661492128672 0.8864834598909119 -0.10152746452254127 -0.6926173964339492
Ni 6.115416815556853 9.054435218967143 5.350435418912367 -0.5296169122075911 0.24810914107124363 0.23335743668336584
Ni 3.0772420219197194 7.88302111671278 5.090911441237379 -0.38400325599911284 -0.20927211359938797 0.514180780158179
Ni 1.2640979253458535 6.077351073306671 4.508103135792878 0.0822282499732971 1.25343361706248 -0.2300774803805134
Ni 9.201152922714371 2.99375703349624 10.451675148509855 -0.3467423147651254 0.023004688425289414 -0.6082872696263008
Ni 4.772637325535533 6.831609150989377 9.700980691959122 0.9958391622086205 -0.021874174365272007 -1.9738155852042072
Ni 0.14436792077860516 1.0037671950336506 8.803139190889862 -0.3839245802423775 2.083730759569811 0.12809698748095358
P 6.751425357265305 3.6578350031684663 10.983250024981823 -0.09510536304628137 0.9225416390660499 -0.6527776387291919
Ni 3.304968818065871 5.5091282991618815 6.436968943411059 -0.285415847941502 0.7592462493070924 -0.6394428692934987
P 3.0942209193764993 3.4681739492724954 5.86849208855064 -1.1731023270015797 -0.6984594570370228 -1.2237461173003763
Ni 4.263854602017701 8.33360637412534 7.117889497163433 0.9953815058459116 -0.1692760328224246 0.6030414478463292
P 4.508476838451266 5.010684991626741 1.0353260599788499 -0.002634095188737399 -0.14183799121612992 -0.17445192059640924
P 5.958480245071574 1.376755830972517 7.112745753624779 -1.468373984691239 -0.6349593796008485 0.326900854559166
P 8.719688512636012 7.082778138708844 6.173875780792807 1.3346766203043723 0.8422486584422526 1.0325095210464605
Ni 2.4762205802136887 -0.0947739615331922 9.349113210983285 0.051653205399917496 2.5920807919788262 0.8197065114756787
Ni 2.300589603790196 5.717622854278344 1.450250068920882 1.773269024403275 0.020526144977809812 2.2597027163551733
Ni 7.377604499026083 2.2035938269480773 12.399542298989145 2.5568510222422547 1.7136721386762488 0.2189014091590359
Ni 8.498489921738125 6.688164822885099 0.8966833010188224 -1.1302032136452083 -0.6962552502968525 -0.004714374756533816
Ni 3.5248042751974307 4.818724229063767 9.012989461357597 -0.3859439246652514 0.24714266339291632 0.3621715048360021
Ni 7.6901052332114945 4.104516319658416 0.8232289370513775 0.22071043734331666 -1.3280822549163063 1.9877455650217382
Ni 7.56735828311024 8.912520938967928 7.487958059476336 -0.4730449293498177 0.37435262028322625 -0.9581136226333887
Ni 6.240611842626207 8.175482857231287 13.521105579376822 0.6100410190926138 -0.03234961997529912 0.7598417167992462
Ni 4.183327706597341 3.2444160051806863 10.896484242500337 0.07474248311921322 -0.03942143922041599 -0.3371976084994838
Ni 3.554413024285087 5.565962631500824 3.810909361315816 0.28360244888184705 1.1669897863459384 0.4122918185311609
Ni 4.500520588304943 1.7683832347366855 5.497284799526818 -0.04891369498156738 -0.19228354946119142 0.28491885370042547
Ni 6.57047166803996 1.6695606731873107 3.159127414596998 -1.2826230941422427 -0.27101484202482357 1.2935356272896883
Ni 7.45107462712552 6.872836992656686 8.629552915115863 -0.6610941290146872 0.6294150527438516 0.4659188598279976
Ni 6.2926612972547735 4.656659679171826 8.923671744097245 -2.6253261842955173 -0.4461200799345156 1.391094594082785
Ni 0.8577653683392156 5.260741217087981 8.698240947410568 1.1231889871109042 -0.23613037144281265 0.4255232296197704
Ni 2.841030413554586 7.667775803896407 2.8376605985159227 -0.524833888996651 0.3438292548833885 -1.3503670344564356
Ni 0.4615209285052871 8.084458904508319 8.499913330126773 -0.19801788084180735 -0.5939307437943125 -4.627043123895683
Ni 5.560315363040322 3.379180787670793 13.277012832317796 -0.35305154481260487 0.654029508858422 0.24461681164726903
Ni 3.3065915963591195 4.376688695001916 12.858506656206155 0.03727868184580031 -0.6364087104528653 0.9121502685293968
Ni 5.794496180284191 3.7755837961265186 2.2432480373218775 0.4475673539040034 0.6414457586561405 0.8351040769776715
Ni 2.6682926190024845 7.194360374152555 8.655163138488957 0.6923047502895368 -2.6705426329311552 -1.6544670890710023
Ni 6.9745991011715445 7.168386648441773 11.171560927337811 -0.35348451858496543 0.3394424386696025 -0.2996250495623485
Ni 5.64233521449047 0.9546201952952922 12.086693826598037 0.3664649900050334 -1.9475725923472782 -0.5615387006168523
Ni 6.617643514769965 6.615928006288532 6.379545774377138 -0.8771593542765086 1.3960128573200086 -0.9771513559911301
Ni 2.2562553008186694 8.309069966331435 12.06865687769406 1.2390410957862341 -1.556866727517009 -1.1948883125284198
P 0.5638449819605493 6.682165179709493 2.615949209677369 0.5692268132897293 0.986158701696063 -0.9379595162830169
Ni 7.846197958984285 7.72686347980826 4.31504073859426 -0.8652775152372582 -0.9335919833429406 0.23663533610368928
P 4.337510190493508 0.680921481054256 10.241472503327014 -0.6445431666345416 0.2970225789424949 0.7123650113745215
Ni 5.890091731284707 6.362700408391344 2.130925814976446 -0.11845535062613145 1.587474425100537 -0.7824710241629879
P 2.122686737756157 8.749325080780123 6.906560180194138 0.6843219891943763 0.08564138941990412 0.7001455864901942
P 5.276904088888728 8.816897568910957 1.8724070325413895 0.5717027856340476 0.7699194127502224 -0.24019939930586376
P 0.2964203922521495 3.249831448170725 8.00819945234826 0.1130894583285278 -0.5345655144621181 0.3038884528243928
Ni 3.8756489421975804 1.852851163154932 12.730821823584018 -3.1776901603916374 -0.05959457173418124 1.2965888122937155
