# total energy = -340890.9464331687 ev
CRYSTAL
PRIMVEC
9.07936176886065 0.00000000000000 0.00000000000000

0.00000000000000 9.07936176886065 0.00000000000000

0.00000000000000 0.00000000000000 13.28856370468097

PRIMCOORD
 96 1
Ni 6.3243383142211655 2.16419296190578 11.350479536893008 0.137699286457408 0.3145004240122842 0.6316477987291121
Ni 4.667554557854252 0.18095530956002986 6.387241039714023 -0.9510374325128977 0.4154756155757812 -0.7822301117967754
Ni 3.030473016282088 1.472418238568677 4.913552598449592 -0.47270297262936656 -0.9545241055099174 -0.5421037318206922
Ni 3.5070759477202245 4.321331259804408 4.7688003355589546 0.28929050040555987 -0.8369020494183587 0.6117199494569335
Ni 5.205134482177889 4.647334819445079 2.704833539043845 -0.6269318813106816 -0.6040976570249854 -0.4391580467943856
Ni 7.284707793444469 6.21382432413744 2.4506631650214294 0.49602056430938446 -0.31540493810442455 1.3768591672096933
Ni 4.75034925680048 4.824427768556405 11.433506667497644 1.9740284725459616 -1.3111435701794387 0.07645483782462961
Ni 5.618717564357798 7.980994959524886 12.562290134024765 0.05745335702146234 0.4243158395752305 -0.17853508952684738
Ni 1.78918808740462 6.449669822528407 0.47834072125920385 0.7483596843015756 0.03383108961683206 -0.6509925218043111
Ni 2.8172260490543137 1.5936186373221812 0.31264237102686804 -0.7379338609825613 -0.49155584366981153 1.1757197100197687
Ni 0.761534182752999 8.891636774955177 4.761677576339379 0.24223571300960214 0.8604340711020279 -0.5879914954917422
Ni 8.686497677686717 2.5541424656936473 1.364655295066891 -0.10585180292950802 -0.9105996362128254 1.0935266841597813
Ni 6.997809044458631 0.7850969421241201 5.02926906276253 -1.010396491197505 -0.6497599349487907 -1.9991329809230733
Ni 0.7993633430950827 7.612218527120131 2.3700947255533915 0.5312899290346399 -1.1562914260918278 0.30843493454449467
Ni 7.830005175176188 3.924009314351408 3.845816943828893 0.8041089141477378 0.03348321935911008 0.37797273353431676
Ni 7.698817478600461 3.9257979485977517 12.632015091866364 -0.10074996292656842 0.1200823447065932 -0.202326021298858
Ni 8.02617386312796 8.86820294251958 6.968562604690499 -0.1485549982249893 -0.2447469094672301 0.5402461097866631
Ni 6.811182765607909 0.8657815974213624 0.4599876996066206 1.4077257748815626 -0.9017635259784341 -0.7725686774476114
Ni 1.7877172308162563 6.459475533117499 9.141163055490258 -0.37647172350875807 0.9567090289763782 0.3227089279650055
Ni -0.08655627848054391 4.9303294429185955 1.2838417128341255 1.6031954353802196 0.5176576829631859 0.5829472481996154
Ni 6.362135696797451 1.9790829364517053 6.852925130823972 0.45474741659221035 1.1463338006584838 1.2094649247910136
Ni 3.497233919684507 4.222565963704279 0.28702495211286616 -0.35880541657724657 0.5612759338737688 0.7618284082119718
Ni 6.1180188999373515 5.566511234832541 4.79933786055465 -0.5876577663014073 0.4998088277072231 0.005129607917081488
Ni 5.1226030847197 3.1330970410862573 9.336265826383551 0.995704436402969 -0.5544226583973614 -0.35702415630710777
P 0.21861196203063873 5.718654098111624 12.24550394233784 0.8560901923110352 -1.3740463803512464 -0.30713678455836135
P 4.061552564086731 6.28260048868593 12.807995819174762 -1.1291716870569004 -0.2816440396038956 -0.0691197376157971
P 2.3939916054334742 8.522106755532928 1.1177965309865088 -0.24451422463113376 0.6537266329060225 0.013655128889589386
P 6.193096141475499 7.884208964265889 5.92297877663949 1.4548407260914944 -1.3408115295575165 0.14102603683779583
P 4.7290672330774886 1.1627212124631991 12.555127425613898 0.11130511273459541 -1.5008529311555507 -0.5091331904319426
P 3.8273050333473195 5.965540100276976 8.124813864037227 0.5067232954388692 0.4919541075494947 0.9340974622244493
P 4.824091832175113 0.8324158512696468 3.8101232493484334 1.3491231347470056 1.1838335973761547 0.08492636563075051
P 0.25332962513301716 5.847117986190382 3.6488002434983975 -0.36264895869305286 -0.5842847360641162 -0.19857066802148382
Ni 1.3653634852761032 1.106147709981134 2.604810751354282 0.7148898346789043 0.15504240572154587 -0.7198034699304378
Ni 1.9009187119503255 6.094349004098683 5.059381673632697 1.3156509711314892 1.602552659589898 -0.8044470142134468
Ni 5.835487323908319 5.6684543075124685 9.01741952753675 0.7302974274832261 0.007269794188535867 1.6439515342516593
Ni 8.604411168949701 2.335965405086358 10.35504647088821 0.1617154468663473 0.7163281097873276 0.05030826133624885
Ni 2.259871275042676 4.843222047185498 7.207996266808141 0.4786118819146338 0.6559974312180703 -0.2910931008319374
Ni 0.30933021989455267 0.12371901367703562 9.429179473896022 0.889628690388113 0.1779581339774548 -0.8809679293893216
Ni 1.4741069998367984 0.9967595607428229 11.67862764175696 -0.21705509997891648 1.1354117544293412 -1.019310248747367
Ni 4.215320633102339 7.0118003407714 1.7389547031673356 0.3105944040896586 -0.15512648079491995 -0.6498956891957066
Ni 5.654608280986205 8.010539202355353 8.268236908381345 -0.09136029418155234 0.2722600272858343 -0.5407605875292365
Ni 5.504126940890274 3.00341651854552 4.7918691776559585 0.1695179736299016 -0.6006181831168173 -0.03477417025639173
Ni 0.8180577487459527 7.442280114994179 6.753739460279145 -1.1155175866085756 -0.38686206560414665 0.43380141046816256
Ni 5.246790593458215 4.560254661796951 7.0530115633305535 -0.4441675841938351 -1.1333304464202805 -0.8019964957904253
Ni 8.140464867660818 7.201132269395776 9.247471485254662 -0.7046151922257736 0.10326938691431246 -0.040554267273278544
Ni 4.478658438589389 0.5734279679522575 10.450298961963412 0.4789199000733559 -1.571410686769455 0.717204855965326
Ni 8.04790985493378 7.4036111136988625 4.710623417808341 -0.0028932623873950173 -1.0573975425373918 0.8901868768844283
Ni 7.223521975240869 6.061972000431367 6.905668050623132 0.3570125863428819 0.9889077251961098 0.5744862619164558
Ni 2.401318650290323 5.386531048714428 2.7810575039592162 -1.4903851988550074 -0.7772108042053131 -1.6519800609830904
Ni 2.325633091521186 5.388909841468448 11.488999725942579 -1.3931936427036586 -0.22490904880569654 0.864131574558273
Ni 1.3028793183556135 3.158346745853168 3.8705736392578522 -0.2476427429577864 0.637069998185948 0.086286993423703
Ni 3.755360171580688 2.4983951851223303 2.7405399446306236 0.04262657642127498 0.5053040464938394 -0.41435127216335094
Ni 1.150972518479602 3.067525891202535 8.252769307863218 -1.087073986555902 -0.19932220147552768 -0.9821935464007276
Ni 3.861979115513747 2.468778307398611 6.89976737348253 -0.08751238119037186 0.7207321523922943 1.0266324934403932
Ni 4.177468774356114 6.706452328899416 6.181853167936173 0.5923402593787411 0.31180590789925655 -1.7058991795990492
Ni 0.5928151288975236 7.802549185526732 11.529609894760068 0.528057023919639 -1.732146286221036 0.4724736302273799
P 9.15708099234655 5.793722260288115 7.912489359953763 0.26138786045802076 -0.9786870759093661 0.4503703705704373
P 8.562618867244526 1.6440998881326898 7.991742199917764 0.764745838969083 -0.12195462202864157 -0.4245181853940237
P 1.5647825847009265 3.1002660693361133 10.336336630322522 2.1652460426364843 -0.5934126665073135 1.6534525317635589
P 4.037682922291618 6.206442803110651 3.784516725668419 1.248713071658359 0.5747086623399069 1.0888171944992537
P 6.943523541114019 4.178567377116559 10.414765064248108 -0.5170218491513999 -0.3941470293013341 0.2621067409019163
P 6.082073707139005 7.7548734574681015 10.339432692647414 0.9032462811715476 -0.09325519721142005 0.27636993568914986
P 2.548985388272718 8.192407895698034 5.700341933586495 0.6661388905274463 1.2569729976743063 -0.6589660269280909
P 7.094831103120698 4.078403859321319 1.7973177478319098 -1.3553318346608787 -0.3225415491492058 -1.5210576882381999
Ni 5.289300164734259 2.6221922813096126 0.5643249999553841 0.1634329437780863 2.833459556304772 0.6328708725029358
Ni 1.6426381109059827 0.8858369993845518 7.0280950711364385 -0.874226754010746 0.5828896554888027 -0.4948607396733284
Ni 6.893659686896158 1.1175877056684078 9.104300847164598 -0.581844759164056 -0.9492854828187974 1.0690299845699975
Ni 2.684785400569981 1.4664894154069392 9.173082459330082 0.22348131522023446 -0.5963714920253214 0.36018121387885066
Ni 6.506370436073664 2.0621772543326005 2.5788583039951525 0.0021998358647962114 -0.40248691662559716 1.2291827149349153
Ni 3.948632543164016 6.7006596961625275 10.27742791602239 0.4028869802774932 2.1526288680931054 -0.11835507760284135
Ni 8.149507911870758 6.917574725499554 0.21383530986311922 -0.044890432754787206 2.0192102112889225 0.7326620710606607
Ni 7.6899469422619955 3.790533618638226 8.328473933291834 -0.38763391077316467 0.03241106934085386 -0.3330807581176328
Ni 3.13644732553753 8.213562808357834 12.258753454803268 -0.02303811276638613 0.24772347559705077 0.6914871394842478
Ni 0.3105232480162255 4.768825757771593 9.89192729944624 -1.091974509181313 0.6174686790152527 1.1912008363745032
Ni 8.83927609628176 2.20007459917253 5.764273350755041 0.33897629766646137 0.5338186089937645 0.44346104504511363
Ni 3.4859664318687082 2.7004109819809314 11.597713278609806 -0.5171948843941545 0.73033702247191 -1.2270055047779385
Ni 1.0908853030364463 3.323273350344696 12.995098764512452 0.7620742056741908 0.3935369065211609 -1.7420229219047998
Ni 2.8648019041347217 8.091835806628248 7.802021674614484 1.5216055903218697 0.20207019653431005 1.8109665389540488
Ni 5.892351365963395 7.882847060017404 3.662288543175392 -1.6233814234097914 0.24128594750182317 -0.21864429884290731
Ni 3.139815768712116 8.695041357005547 3.16319603291394 -0.22941310732363715 -0.7352151764998177 1.4867977386140652
Ni 3.269078640616651 4.424808744604294 9.550450691670447 -0.9692084469949696 -0.84948117163495 -0.5210080874926576
Ni 7.235724637307295 6.155453108047375 11.38423297178746 -0.15298449475125267 -0.4958655267887589 -0.4346683864541482
Ni 0.35763333184365126 0.24823610324368342 0.5275190836719954 -0.2031734569008178 -0.582324784124268 -0.1888930357224037
Ni 4.662406559794979 0.4260027409899272 1.4180891542881153 0.17684896007367606 -1.086602189125806 0.5417599753280283
Ni 5.916620499671397 5.692369346115864 0.4116119527642695 0.44568042129393565 -0.7668695701803051 0.08282166058292188
Ni 7.818483465234005 9.061774933037574 11.261964840103142 -1.5875690416968722 0.22586678473327554 0.3059481635668989
Ni 0.2718233768912771 4.794965239980847 5.9053847896213965 -1.8820305447804104 -0.9472869643315298 -0.18597303386213135
Ni 8.042507634748123 8.833937431627698 2.835035216943669 -1.0994178528332357 -0.06445781336375352 -1.2991982248921046
P 8.651006452971199 1.5246881236255294 3.644202454755512 -0.5515494506146243 2.0184116266470267 0.6227880343456371
P 1.9335590171056816 3.3442375964097075 1.7136795761877863 -0.006459125361782425 -0.21751892698921246 -0.21178922359428684
P 4.87346540086352 1.0965871421567697 8.413162587079622 -1.0895967529777557 0.6864043256447017 -1.2165020341434534
P 8.484872293379349 1.7516358475930618 12.499887681359183 -0.3395776786958862 -0.14834493909671226 0.3652750834619903
P 6.5388927095274845 7.9213980296111846 1.4054779209471446 -0.9941113808842365 0.5432383596457676 -0.3495741277869657
P 1.894463285812507 3.0601171320907765 6.02993819663467 0.16204197696783063 -0.2895730646429851 -0.2262802181216103
P 7.239011366226972 3.975970501111937 6.130971517276609 -1.3287772241008018 -0.2848985419854513 -1.3884949516764087
P 2.2451354710740685 8.413163495015787 10.276165884752128 0.5467407163720712 0.6759911007311776 -1.410437774496087
