# total energy = -340868.11641313194 ev
CRYSTAL
PRIMVEC
9.18936722011737 0.00000000000000 0.00000000000000
0.00000000000000 9.18936722011737 0.00000000000000
0.00000000000000 0.00000000000000 13.44956780211552
PRIMCOORD
 96 1
Ni 1.1504536140306996 9.18445989265306 8.984580132844247 0.29020144225560346 -1.7714905923466138 -2.156887900479776
Ni 1.1808244720140813 1.0649557433264996 0.29600053878193583 0.30187733593163496 0.5272440411000403 0.06395619113698664
Ni 1.4599423057167222 6.536396757512634 9.857860383232603 0.2380723256605319 -0.47953619350111604 -1.4433918608246046
Ni 4.6315880052502285 2.2977001389732905 3.3643016979321114 0.13249151700422343 1.1167792269298185 -0.4626977817875387
Ni 2.9140861208472075 2.7450752827139695 -0.15239830044417407 1.2186213944793014 0.17969362861132276 0.1365911409948938
Ni 8.364042394953115 8.926725715993484 0.7210740077147879 -0.7891458650800022 2.0930281257113372 -1.7057958212519655
Ni 2.990183269095432 8.118134933641379 10.395748954194072 0.9452827894173074 0.5093710174743614 -1.0675258892206454
Ni 1.5516338097887892 5.829486321177509 2.817630848914752 -1.3054868861142936 1.7580084986997788 1.4084307713683872
Ni 4.5304957787221865 8.061941954346862 12.199295476638664 -0.9570394157326033 0.3979435202292888 -0.07768433935635652
Ni 0.24082114666913376 6.813915641354728 0.05738300232291247 0.615175769216018 0.11279480990624445 0.22316146998697053
Ni 7.815538267216336 8.7959150765401 10.121202830581215 -1.0093335971506294 1.1119748635626399 0.15254380766940825
Ni 4.001565002726587 8.1799793736499 5.402947148205822 1.077486342867467 1.948618517113289 0.3061715924316147
Ni 6.856499168100564 3.7534153358632785 1.8063309006500277 0.12270589837236931 0.01725390198444125 0.05131639088578904
Ni 8.715039457444263 7.3364046710730655 2.1233236294402045 2.439382975230057 -2.4644319477788845 2.0174091535244414
Ni 7.8329980645441495 3.3500388813886905 6.185429100995934 0.5262104576292034 -0.828474744586612 0.850429137370516
Ni 1.92185502807456 2.830508827849067 2.6839953980410676 -0.3669275314637487 -1.220110320320002 -0.23507184827131128
Ni 0.5911391149378985 7.07938726504063 6.865506585648313 0.41479992966499524 0.1076654590994791 0.21166555353222902
Ni 4.793853847994722 3.189564965212052 5.561772491940034 -0.4398008225847071 -0.6103865753574906 -0.6933064520811737
Ni 8.709893411916065 2.2177618353129467 2.222675389855674 0.6505857732841956 -0.5666572527903403 0.44218860609059324
Ni 7.07952510554585 6.346921199037794 3.2407405501165756 0.2626893528782637 -1.2732956460937297 0.5653981835722586
Ni 3.3547805947682443 4.429265711688925 3.548089957161591 1.4993629768735854 1.1075492236911184 0.9172521085323364
Ni 8.94109788600438 0.08625875029301222 5.049935776465066 -0.3077901018716441 -0.2848831153664836 -0.6501515139602544
Ni 7.666302946898601 4.391947692242476 8.65514592005295 2.021562256460867 -1.5578578877856848 -1.661502655761545
Ni 5.5513149922773755 4.219077319963089 9.39475120528946 -0.1703633523493324 -0.8920408993740314 1.5681839523020413
P 3.8438662753883692 0.7421755511905032 13.12550004847443 0.46736356269432416 -0.2867883028089964 1.1861383342499314
P 5.881562464049468 2.6987792516942184 7.505531295230687 0.36724609114543205 -0.4660183615203394 0.26976065790274834
P 5.555045875285319 0.5278657283586025 4.283727273721178 -0.24207013396601534 0.8725313685861941 -0.3852366141855817
P 3.3290503671272553 4.769961493756661 9.771944396329237 0.27780666813567645 0.4555675985006606 -0.16084410000498753
P 9.078092969458615 4.557484949644181 2.0860680976894557 -0.11232044137298719 0.19771809021320141 -0.6496378075486295
P 8.711979398228387 7.300749927056266 8.838154920959589 0.6323664220626916 -0.8889000397522047 0.8416339076763892
P 1.2544037337002945 3.0372695856784415 11.886834943660107 0.043916498877292105 -0.08900130703107252 -1.6314816839194226
P 0.270650750935353 4.9524531333003745 7.3830995206212515 -1.6915657936955126 -1.3006861222915405 1.4929203065720353
Ni 0.6779014425433129 3.5666138831897 0.3410367075839795 0.3474568243336468 1.1130362149476185 1.2584169292096845
Ni 7.34223991912736 8.721839589035095 7.885507945539199 -0.06183605947019028 -1.070114475883428 -1.261067479458654
Ni 1.8216909276149964 9.189918376659755 6.277397205015141 -0.7377181454273295 0.7968931131255889 0.6400640478172654
Ni 5.481668779673427 7.869498230326295 3.200163062190035 -2.4406500148679386 0.4317113607083533 0.37865896096806395
Ni 8.940794636892896 6.924886437423507 11.23026753557798 -2.8597519143423975 1.5949964445091949 -1.439840138917604
Ni 3.0396680104692626 1.4213929110903123 4.835738063910744 -0.6264590554393211 -0.1670196326880801 -1.1897574190597573
Ni 3.0857802541487205 6.068189318749768 5.713053365355228 -1.3920597862095314 -0.9979742062737522 0.007161036524813473
Ni 5.215884717509026 5.997054428689448 4.878776464323805 0.3991946190275706 0.38201682169670337 -0.3407956102633873
Ni 6.170411837420611 1.634641362032022 11.21827081694037 0.16058004771032344 -2.1355516008958446 -2.9295794766584966
Ni 7.540160505888653 8.908788071580908 3.1745284039659984 0.38382096478497774 1.9195578523019072 -1.1297882375949768
Ni 4.917386508772512 6.413130588378268 10.461732285105985 -0.2947854620818601 0.32506714378453694 0.5763220295736139
Ni 3.6909184507967194 1.2895898199993467 6.981696942181408 -0.11768761922217152 0.18069892994738557 0.5416992972934219
Ni 4.385891899379829 6.076652725770251 8.010400632635157 -0.37727725012918895 0.31446160035454873 0.4478656018707125
Ni 2.7970595319157816 4.733507274809588 1.3870807335943522 0.4222201333884663 -0.4530468889613358 -3.0400844620893
Ni 2.7950562499065903 1.1764043864800398 11.237664976024764 -0.7909551503745991 -0.40944637866256584 0.833483767765429
Ni 6.598700665871886 6.250239868676779 8.944957420150528 1.43054662943082 2.8912777528648204 -0.47565717016168396
Ni 1.7570069731989535 8.478790020864912 3.979417709284606 0.09755279614550941 -0.5665981174176307 -0.2828789404522612
Ni 5.114185992758019 5.798536533072205 13.110544353658105 0.3220432693565486 -0.3756152890457337 -0.006162934277602289
Ni 6.085906418353992 0.5436530608897521 13.062408611362024 -0.03671123937810452 -0.9851068633927809 1.6800709056820358
Ni 6.020073793061118 4.650867297246941 6.748629783399226 -1.8968555256083848 0.6257928826102318 1.9216165346031489
Ni 3.8844924669600878 3.4071599867516857 8.0164536686877 -1.5073141133998622 0.14104532011150547 -0.5661083222654058
Ni 0.38054547212671785 4.224223365491287 9.957319659242144 0.5076383510539708 -0.8576539372537294 -0.20583120623863904
Ni 4.847749485535578 1.4849741414645985 9.141495926112817 0.5901319388735127 -0.31725587527023424 0.5812963428597537
Ni 7.352090920567054 1.9319725211576777 4.115151092647732 -0.7718104591253482 0.4910117982408834 0.4726803469215472
P 2.800156348599715 7.702996089388053 7.359481928456928 -0.24867246977388138 -1.5105634735750952 0.48961774610683423
P 3.377680497368724 7.082309483751286 3.6385785730914413 0.6913002202844223 -1.325258669424582 -0.9727231450164473
P 6.028757744889953 4.295725830232192 3.90435528376223 -0.16628249741173942 -1.113234961221986 0.009967652735673155
P 1.0110784845196719 0.5708600198099933 2.483489842338558 -0.35729875012473306 1.5347732380520793 -0.3274032481168813
P 8.58456882457042 0.1968151059094311 11.977687458523738 -0.04560571365425694 0.5388132339948785 1.2498096471566473
P 4.6084399897403525 3.2946821344925064 1.3162187677343673 0.39463965266703643 0.008114144466702155 -0.4466047328804179
P 6.6361381470895235 5.291531586773535 11.433262490804754 -0.6049324942214549 0.404096170094246 -0.03900903427334572
P 6.649352456856575 7.574822798267871 1.2721447256587564 -0.2661096914137223 -0.0698481311413894 -0.2954002128477235
Ni 6.057676682885021 3.3465836793911863 12.5406188924735 -0.133982242617137 2.1305168666854146 1.9478762396306262
Ni 6.826312097457476 7.5541467224849335 12.073394715981202 0.15072886594785656 -0.3675371400232896 0.6510619415896658
Ni 8.213980031604063 4.456916517035973 4.046853879121533 -0.9634538038993794 -1.5702143524685086 -1.327761381241778
Ni 7.653051879663491 1.8474303446229998 8.546474303611234 0.4113914182040786 0.13552490451390853 0.36136135022988086
Ni 2.9347805753641745 5.8214456250397 11.68378760904135 1.9587592050917169 -0.054912849987795755 -1.217751076059206
Ni 4.702199101390714 8.583153662050165 7.797884574244513 0.9399696047345102 -0.3466163307102224 0.6775257922081493
Ni 1.3108264471701774 8.423074888655156 12.14829448970742 1.07061841210304 0.10393658818466615 -0.34759797789720137
Ni 2.342728037345021 5.192598861493932 7.814373974415582 -1.7859995845960663 -0.31028690015156885 0.4442200346983253
Ni 7.848638367203065 5.240052752757527 13.24711121260946 -0.5651379879323364 -0.7901282835979296 0.24011223890869618
Ni 8.029292133343851 2.3059889480204947 13.444053131783692 -1.0621437989731257 -1.4254895266228869 -1.0889737746817763
Ni 4.424625081346531 7.765529731922672 1.1855873209377685 0.44353997791216515 -0.7217022296150474 -1.4209379026964626
Ni 4.186170196683667 3.0562456285636714 11.070339467802011 -0.5990019876696329 0.8933153952110808 -0.314378039501807
Ni 1.0520998188730197 2.7544300583348718 7.609590768367756 0.09416099685514107 -0.25604562230950095 0.26378772814876505
Ni 5.034017954922309 5.35804422522549 2.1223017718281763 0.19687116883187383 0.8474517999097468 -0.016028771328088526
Ni 0.898125541985835 5.366250329969563 11.915334846519308 -0.05075409062441581 -3.938049954477883 1.7974435647669496
Ni 6.269822409784974 0.8935804810603947 6.318714436986361 -0.4033631485829634 1.5773319373498964 0.017267528831196068
Ni 6.837229065470866 8.096218293311466 5.197383764898454 -0.17759715109361027 -1.1625731453354815 1.2732995027484715
Ni 6.025863094280341 1.3204660931685335 1.816713966439868 0.7610478212922055 -0.003142659394039749 -0.16654449282387446
Ni 0.5543641870820152 1.6416344703301622 10.217004738518929 -1.1770086040345213 1.8569116382255952 1.7082414545789806
Ni 3.5393857887253244 0.41273398690559493 2.077016571180036 -0.705677829162333 1.7800119995540635 0.30056658754001137
Ni 7.592071240154348 5.857523079939172 5.974755510691726 2.7292807702023127 1.24911082131741 -0.7022240662857777
Ni 0.7697914369428959 4.9460665232252 5.306163815870944 1.8295671847743717 0.4542861606850757 0.6579470987452734
Ni 1.7723624054804148 8.056455902239124 1.3622529017942009 0.24911829906204838 -0.6715957998769594 0.13402620848119498
Ni 0.5428875866174326 2.6365304795370554 4.933409089099237 0.6221216044062319 -1.3968687775624007 -0.276942006142536
P 2.6045514823261118 3.555366097963782 5.219427218493171 -1.1323675682863787 -0.7110864017724141 1.315710877835147
P 2.6681970382695 1.7774349360724957 9.19992100265519 -0.5079486832055381 -0.05680518191450217 -1.6539891209933193
P 7.456684295927674 3.1212512108252266 10.554399699955008 1.1463173455982518 0.959032277792916 -0.734646191370225
P 5.483111510294726 8.672915399049158 9.888188970127718 0.14535166079634323 -0.4037984363481691 1.3682711684303661
P 9.217945946054403 6.88460025243133 4.672904318284747 -0.8524921905471318 1.0835515752249403 -1.3821543541703616
P 9.042566876580022 0.8769210775995558 6.951516304095229 -0.18611907252169235 1.135692518894554 1.135885094521334
P 2.956173421774254 6.624366567943771 0.08973233102454571 -0.57225120193835 0.18281109119438194 1.5154835365845318
P 5.939896565858394 6.950919914175978 6.904914267153891 0.8267377072908472 0.9251104282344906 -1.0241333811676232
