# total energy = -340863.7882483749 ev
CRYSTAL
PRIMVEC
9.25960251337787 0.00000000000000 0.00000000000000
0.00000000000000 9.25960251337787 0.00000000000000
0.00000000000000 0.00000000000000 13.55236425329540
PRIMCOORD
 96 1
Ni 2.3976907539451164 2.0054447286811796 11.151400511062675 0.18480318192374623 -0.7152819279110003 -0.2143490139016631
Ni 5.891505483543997 8.996009481899588 12.627672841198114 -0.22760613602188542 -0.1150380974144664 1.529203971494418
Ni 3.3816068654278646 0.9814252783863618 8.761942469779255 -0.03916458601460352 -0.022260354060097146 -1.3056709771006416
Ni 8.606689491053709 5.4899998556912655 7.985527570589587 -1.216113540455783 4.093862405596234 -0.7537605436021728
Ni 6.156830136123323 8.808965509605933 6.3398091428804975 0.5092342347861811 0.30647549682527864 -0.13830400992094247
Ni 7.907978398908431 6.773825235422488 10.541598271054486 2.786323264938601 0.1947734057625807 2.3169347013944486
Ni 8.998055854071712 1.6265232715425186 10.648918916979136 2.7324393704359524 -1.9100537694662136 2.115347615144144
Ni 1.7022945995266265 8.312539695615465 7.657248731929563 -1.2984364070254153 0.42117497995340364 0.9373185402649082
Ni 6.4336181767075775 1.464369111007544 0.6951729979961002 -0.8012591034037684 0.04502464433980633 -0.39701458065711626
Ni 8.062835992603436 8.52977923195118 8.830815393834712 -0.05333110732297267 -0.24052310119386963 0.2754055148933515
Ni 5.696488993421389 7.919784392209144 10.538806500873966 -0.12905960850453901 0.07285143674408744 -1.142263230133536
Ni 3.4633321178765675 7.803233774423984 9.113084193191273 0.21776652422364431 -1.002462838172725 0.05644831279571569
Ni 0.2011796816057093 7.318706549760118 1.5852874833338386 -0.28775812292143343 -1.8926353168794503 0.6439212167798265
Ni 2.70629478902447 4.361504309387075 5.838304436870076 0.05874790746316979 0.783025096894245 0.7545763546352489
Ni 7.754500485999157 4.8282160586701 13.357847136979858 1.6257902899616001 -0.8517000336631396 1.0201844238222044
Ni 6.012908133085685 5.9955000802187515 12.165740898771427 0.6494339190679397 1.3221982853317034 -0.33576627536959597
Ni 0.5139672051346802 3.236008874321655 0.4834086646711396 0.6489181557737858 1.1048089419418197 -0.8201240586290716
Ni 8.50174115531231 7.488499882430848 4.146169473303875 -0.17683893277134707 -1.3121349875584305 0.6347472635900423
Ni 3.5896793952006725 1.8678562938142778 0.4182340258896485 1.1995186122115793 2.2576067530580923 1.4872175997603032
Ni 7.452257797898306 3.560900550354698 4.042398959011769 0.4539624587970698 -0.4399787429234681 0.04373600743536984
Ni 2.761259789991556 4.450470571060215 12.841597439807042 0.037421378071251676 0.34630497011739064 0.22094312217941303
Ni 5.223915915699658 9.067549171500616 1.8483796457290067 -0.6445974169112446 0.7296525948103756 0.421505623819945
Ni 2.3583374429427386 5.673441842577878 8.04159353830448 0.40748154162671113 0.2863558432572681 -1.0061572563051768
Ni 5.8967649378144325 2.392227588417728 2.746291642406769 1.2853520630376316 -1.5757903038943895 -1.0189289541485482
P 4.010296842796676 5.314585944249136 1.012425501893388 0.7491572405022066 0.41111656727613716 0.30180817325659637
P 0.5150024287041075 5.821826974063316 3.3318077967450668 -1.6269547425833466 0.4575522330308572 1.2493321932995969
P 4.2735658636012905 3.2333884067890257 7.314292497206039 -0.18930878310358365 -0.04968425459900476 0.8449598867258287
P 0.6962313705719995 5.635903413682904 -0.37780474906645256 -0.04827683272851686 0.03944869291392561 1.1910547977149422
P 7.486379433438015 9.267102866891733 11.213930607344807 0.24137053679582945 -0.10967066245496597 -1.2091839032154852
P 4.271102809312671 7.371310352067062 12.420836468370911 -0.43853481138809 0.6802421626980477 -0.4276924693569473
P 7.925108663697701 4.548029743935758 11.319083580303419 -0.7128254959507078 -0.3812935703774336 -2.2452145500413265
P 0.8862930473493429 6.903839315371756 8.990841697694782 -0.9552306446586387 0.06821522352365672 1.9291287838197935
Ni 7.7378146821341485 5.287112703368182 5.575171532223517 -1.3595978090260843 -0.13240281394515907 -1.0006005881530058
Ni 6.294446349797992 6.509861744423714 7.279151379421305 1.4589956288001324 0.6102099405703103 -0.39522123620211935
Ni 3.012982086367943 0.13616893779003983 12.845541104549609 0.39607767066514366 -0.017668878034672795 -0.5514283516557278
Ni 3.633162488957653 8.966193561563669 6.478599474163425 1.6783693496098968 0.2929607501682954 0.26194039052738116
Ni 6.360106191755135 1.8163451246128122 8.127800438406162 -1.5162566673051305 -1.5882773806178065 -0.8336650305382998
Ni 0.5659478361873976 3.446146295471764 11.640098260732534 0.48987922729833694 2.0425735686052113 0.3088992757754228
Ni 5.889977649116846 6.984305261868382 4.33606540319488 0.8373044270630999 2.5773763958891163 -0.5954289256063939
Ni 6.177738318768822 3.963221023235244 6.731568113048264 -0.24257998372289838 0.6961585768179882 -0.556585470376635
Ni 5.321243598510479 4.640246126117566 2.722113894087167 -0.0063529388012213165 1.3799198084128879 -0.07475096775964546
Ni 4.245064806832981 0.5526825295186901 10.907444243377512 0.6781762813079545 0.4584498051444621 -0.22465476670304535
Ni -0.7898274335395374 1.8828475904055364 8.690182401636614 1.1774328360561335 0.8335179634374741 -2.6203516138990612
Ni 0.6328021668784962 3.1368755690060177 5.363537759295059 -0.6232171514632557 -0.6349982032585838 0.3826683392377732
Ni 4.208850501108204 2.9504982880987556 3.9803568437860677 -1.4646499988724324 2.764188380712775 -1.2304458979180553
Ni 5.564687810172484 3.9549707173286275 11.474773612271157 -0.25994212915042975 -1.1181804781527196 -0.7970286102621886
Ni 8.319521435967417 1.209267059686247 2.416034026673519 0.2903935036617515 0.1950855376863608 -0.9619697631546851
Ni 8.74128707428443 0.43824680496481067 6.8112692163710555 0.1438532218739458 -0.43730273875320164 -1.2351070508391502
Ni 3.769852742373442 8.498981793740848 4.0725935970935705 -0.12580664878488013 1.1873881474966326 0.7472921622690097
Ni 7.188840623452271 3.9886386323414857 8.879238485572813 -1.2111397413902754 -0.1791837788544398 2.699135871187816
Ni 4.006593001761159 5.95862834271017 10.71616585482 -0.9969444794576573 -0.38614781314594143 0.4353044773762503
Ni 1.451007504471913 1.2391477972402878 1.4409413904976343 -0.31045864984274274 -0.10586183023183705 -0.1983169001394649
Ni 3.2812235137627397 2.1789604215926057 5.708499623939314 -1.183966523409593 -2.6262710647072898 2.1018004725873287
Ni 6.9269883218437425 2.1513297674676424 10.631897915500414 -2.5361456713741033 0.01963525773242425 0.05079754226784154
Ni 2.0337976318080697 7.550400325736942 13.516490982173421 -0.637935688620353 -1.9613472775338674 0.7942309929123934
Ni 8.966360234410267 -0.06626079016515678 0.3693979558760857 -0.7304398665983614 1.436712649032216 2.3638267379602964
P 8.152487464868146 7.304243050516421 6.4286587335610195 -0.03635385603868578 1.8161321423153884 -0.34144892757667
P 6.470175087728139 6.315104523173593 9.311978604878068 -1.7477081452150354 -1.424148182103644 -0.7802889289100046
P 1.0317419588538728 1.3464017740262981 12.758629548690923 0.05408855431428749 0.7068669643744279 -0.2803985972325687
P 5.135125586475704 2.024704702065873 12.457698946276903 0.4011553422983672 -0.41058152070827353 -0.6209208992299113
P 7.733221919250107 3.148672302704142 1.3854717411894588 -0.2895962045714367 0.49599768149124907 0.5285751012066382
P 2.6935350566571112 4.0420387604710655 10.615892692425682 -0.1287580181037202 1.1941583763409305 -0.6479424221240776
P 5.069993541866121 8.737435079607492 8.238075823516896 1.2983687870122738 1.3122406598983594 -0.314364155544736
P 8.492138947427728 3.549705690824845 7.184393236328873 0.21639226958393698 -0.996093958531904 -1.1351844689098838
Ni 7.7266105630017075 5.244250002984651 2.3390570984323507 0.5925958270329729 0.2629210092730956 -0.04085560056378125
Ni 4.850522441306507 5.060224661134942 8.669000134754487 -0.6756673988431718 -0.21761045826175424 -0.3400620745314724
Ni 4.312585828910472 6.310863625187925 6.429391168125793 -2.173463802560586 0.252612685368552 -0.45042847750188236
Ni 1.0732434976568512 6.167543496318559 11.083597997066484 0.05957734534300061 -0.714329334189744 0.08173665504885923
Ni 0.15835772347356883 8.654311627167882 11.981035902091701 0.6579882363958539 -1.0371956136682203 -3.2659774720748205
Ni 8.083105262670308 2.0454925098777172 12.81587426381537 0.21692551637958768 0.4750797003916592 -0.2635031070288107
Ni 6.879125436062262 -0.09109874814933996 3.832676368057638 -0.23595399376594847 0.8605657115838857 -0.16159923300345716
Ni 1.5433535210899636 9.034909072375115 5.447576060470443 -1.9240225729414802 1.843263708424858 -2.0914247857799593
Ni 1.213359804030494 8.485999830911359 3.2704833007199965 0.7654870880104816 -0.17069168222302863 -1.2167809988364526
Ni 2.4358403166109515 3.202146507654432 8.554103281991686 0.9594683368890702 -0.5960619312047025 -0.5358662355514126
Ni 4.340022031381071 7.094281561815499 2.4105458602191403 -1.2452567376786425 -1.5977164145435192 -1.609624478835015
Ni 2.2038780121590524 1.2491111296258308 3.6780437827055414 0.5129453650891811 1.572694438577885 0.1886634362101009
Ni 6.033066287921492 6.593587071031596 0.8247722477493902 -0.8864078694579701 0.07434550479111067 1.130534114622066
Ni 0.3547733395473432 3.344429561033853 2.7523900166717494 0.41739622963726175 0.43416162202105874 1.4803260148467925
Ni 6.796048281635595 1.9652024958302776 5.739073905727257 0.47144236074938806 -1.4099816607952749 -0.780773838966223
Ni 1.9338124430542631 5.230453195127347 2.001101049106776 1.4240383959986571 -0.7901681356969295 -1.6943384713446434
Ni 3.367782278762794 5.946609378549914 4.119213844207635 -0.6650063195848999 -0.25315827345937697 0.7725630210206565
Ni 5.739342434202332 3.970443513254504 0.35388349173856004 -1.5321358004292325 -0.6742898017693549 0.6891782888454131
Ni 2.281149395762545 8.115902775039817 11.085766595992778 1.2011070397446217 -0.7806463122494233 0.1790559950273239
Ni 7.98074961565377 7.079253226813884 13.342777133766596 0.6303211094978887 0.8824974786599704 -1.2373307979633463
Ni 0.559898537816138 5.760065424796054 6.062528491438519 2.9398543762219433 0.3927354936657882 -1.2688064999741246
Ni 1.295946199519955 0.23088911651185748 9.65225140677136 -0.7332997046446597 0.21858490635988162 -0.5890914134241403
Ni 0.6626329025785576 4.397376009816067 9.239636107732592 0.16935625124105672 -1.0613351870289012 2.426838048685511
Ni 4.820419473290334 2.7664636866464587 9.522934574897027 -1.0366006603966986 0.23954171111720685 0.5492989640175507
P 5.416895293252731 5.183488490796979 4.8704759589251 -0.2933914099478109 -3.7461047621927164 0.9113151742226112
P 5.077586415988933 1.0802993148295128 4.412216374885127 0.16811697951731688 -1.2161212537652668 0.8489700363264864
P 7.25262076608389 8.58433681040436 1.5434109306260142 0.548147624021927 -0.8010485300548591 0.2415016630570551
P 3.006491104953198 9.016556540044123 1.5882014802685323 0.29071566288786066 -1.1978617933344466 0.7710488983689753
P 8.674451262798511 1.387329217468771 4.453455866934843 0.1130596335318569 0.13268100730721022 1.4721936155476452
P 2.7272677888880907 2.929654922671378 2.1929350138196146 -0.8129146853648258 0.714403381960789 0.6256293604491742
P 2.2583152157785773 7.227943925184752 5.930243956934478 1.9252016808512455 -3.6233626112657724 -0.8929261301924621
P 1.7376107238002898 1.2655098858105867 6.954287482196028 -0.5046846677422857 0.5283061638159675 1.8328234869281406
