# total energy = -340891.1069155704 ev
CRYSTAL
PRIMVEC
9.07702251038423 0.00000000000000 0.00000000000000

0.00000000000000 9.07702251038423 0.00000000000000

0.00000000000000 0.00000000000000 13.28513996344533

PRIMCOORD
 96 1
Ni 6.370554067910624 1.7819738640816403 11.381658785685744 -0.7536116767291343 -0.13125635904554167 0.27570530552195743
Ni 4.562683458084983 0.22910859129037547 6.078350184176814 0.6276954989495834 0.7662015975790031 -0.34964894688895914
Ni 2.726519768524309 1.5890962088715936 4.626071938361413 0.46210977049455254 0.1472020837415207 0.6886807803837043
Ni 3.3741199525781846 4.214370866274774 4.786157941389624 0.6149875644646119 -0.32795757795845454 0.3798918049339006
Ni 5.199318598725345 4.520829306446152 2.7773783266748997 0.2884057838077614 0.6621688501361047 0.06845716433113372
Ni 7.137326482904906 6.172693127241952 2.4850119642348787 0.5458518860092147 -0.05554482714483983 0.35989247899383825
Ni 4.95377605784874 4.456582139822936 11.532085928866008 1.0601023430630645 0.0027071145185179188 0.04314876747333214
Ni 5.528868984628493 8.084286875383993 12.296008158734592 0.8585399394031085 -1.2648976518380217 0.5406903964129334
Ni 1.9677623645682158 6.478906487800611 0.3759031099887801 -1.277839042490038 -0.30177423469486736 -0.2160099465438538
Ni 2.582095260451127 1.3729995296120714 0.3623683614507924 0.44930490542040036 0.895685180994838 -0.588267117750632
Ni 0.7100437462679312 9.259833930348593 4.460764831880011 -0.2273865638119116 -1.0019995253830614 1.1934024720115124
Ni 8.483185714663994 2.2804113342164274 1.4092340965014774 0.8446773224884033 1.0188690474448905 -0.2790413118737259
Ni 6.853959988465298 0.9030276026434899 4.936133956542032 -0.4146569763292278 -0.6879228191717572 -0.01382405036728587
Ni 0.6103435444092031 7.612835393716404 2.5789246564243555 0.48536976946375765 -0.8965745255783268 -0.3286785152848791
Ni 7.710939854985648 3.9460449984379724 3.8251372407586053 0.35805928243984136 0.08336724867374674 0.0008240385631921291
Ni 7.54458526008544 3.919195165311175 12.602868711011283 0.07364847872408607 -0.5211566972553799 -0.5010115897660726
Ni 8.157665526836675 9.105070693427736 6.659415791888759 0.8601489357614411 -0.42543941165671245 0.8416899577253053
Ni 6.639370094972864 0.7626487235847136 0.27298601128754457 1.6431863739508603 -0.22693199277299628 0.4150107601242207
Ni 2.0768681773417472 6.289269329692074 9.418314208062359 -1.5579193371512394 -0.07626303352879768 -0.9225547516921724
Ni 0.08347320838990599 5.1643175992199595 1.5710474569482251 0.24970708168598285 -1.53356713355912 -0.9587929080886004
Ni 6.312787895490428 2.207186992149533 7.178506211757625 -0.015043781706999899 -1.0659130362075706 -0.03648986739591781
Ni 3.4480069173016905 4.24382580491455 0.41765015275983036 -0.8365251256949141 0.3371652125996516 1.1325830267312946
Ni 6.360759960424547 5.965392082972244 4.772022293949339 -1.8463117512225622 -1.3917219432541386 0.23454451501293153
Ni 5.001112731194328 2.7016214952765725 9.378020396624507 0.5701783785697213 -1.5007292610934928 -0.32305705533304363
P 0.136256095351477 5.518911490733936 12.58874667910504 0.6460742585670873 0.4632647100346022 0.3494913382651723
P 4.036415836372521 6.168109230781833 12.635616793484191 0.04394529523269851 -0.17571098981449096 -0.4623949058351392
P 2.424935689539237 8.275730361008499 1.671576390978852 0.15014548264056077 0.7575508638825406 -1.329842946361155
P 6.543090115264973 7.818502573901318 6.019908681268236 -0.04593892862395959 0.02678909516838612 -1.5840430308214848
P 4.509782569828399 1.0460179411311301 12.585093177470982 0.2694626670463553 -1.6994225707357702 -0.4459287898593159
P 4.034972589764285 6.043127705317711 8.026549749436418 0.47485755707852406 0.33766323528199266 0.687038873904907
P 4.694173208820205 1.0578180706324272 3.7065677241250343 1.1731120971935927 0.7353411605547207 0.9976463906206883
P 0.2107802670680532 5.656146996834021 3.6393314939289128 -0.3724775147477004 0.45965333853425994 0.8159439591094528
Ni 1.5982640017918321 1.062447352206013 2.4155573096925136 -0.32504297541482086 0.9584612357807945 1.2829272556462228
Ni 1.8337219704561747 6.507308491807963 4.896703369962313 0.06747526003383862 0.8336866278048546 -0.2247853787436387
Ni 5.989999891493794 5.637956643356636 9.292862492822723 0.42085513472013975 -1.1416129981440468 -0.3587573369481305
Ni 8.61289636895133 2.285630622265078 10.199002606547747 0.36716690116806444 1.132513864056256 0.5912580820581559
Ni 2.3799499650712153 5.128181971877911 6.976239284273622 -0.3919392230167379 0.4502713830987278 -0.04857045270953571
Ni 0.5606858763609373 9.272450991892288 9.128910585829432 0.5254522393069403 -0.3995198635774732 0.5142435150753144
Ni 1.1821460504626315 1.2319879820715718 11.546247899672103 1.676184683253752 -1.4368252633506804 -0.943804147989252
Ni 4.059707476603543 6.8876902047936195 1.3727272189312723 1.5862683206075776 0.7315490405021401 1.384142588244984
Ni 5.675235975558042 7.70078266659184 7.941418169000444 0.36820279863174654 0.1886860619179202 0.6744425252971353
Ni 5.507065976119173 2.9488886704649055 4.725922818796849 -1.0511250792651186 0.264657275237912 0.8259463217378032
Ni 1.000124514393778 7.520712690402046 7.178226639458671 -0.057591682371539527 0.03589697100692527 -0.048396389025516656
Ni 4.940614374943447 4.253783298809106 7.143153931474008 0.9544909382791368 1.0591227527586144 -0.4411200556167629
Ni 8.445098527442886 7.331674615791269 9.518815911024905 -0.5468157925843808 -1.1066053717206104 -1.4662019167405846
Ni 4.434779131313617 0.13373449844727675 10.516238195762888 0.37246105968746823 0.09659788843140783 -1.3382805356055467
Ni 8.102295688407512 7.386590603085766 4.425280027065072 1.1580354053661284 1.0120975330490118 0.7799587992640955
Ni 7.171973478525254 5.831161071383643 7.044193506964784 0.7082353054768641 0.35355728080442983 0.9974692416128758
Ni 2.4541455485662937 5.40369684168781 2.7348924142566142 -0.12200630120218342 -0.133938276753079 -1.1191688102079178
Ni 2.457939744052095 4.82923930649659 11.622810770685597 -0.17983786749867092 0.9672037578601149 -0.8480292696797717
Ni 1.2181364454415877 3.6639492871754267 3.871834891706585 -0.9503110958698344 -1.2499993945699504 -0.27826303894680465
Ni 3.790501137565491 2.7184139872591877 2.5281886380801244 -1.3370924288347166 0.05324883202181153 0.024328549443035523
Ni 1.0573369884296822 3.4066792329790707 8.156863118030588 -0.1819016920062351 0.26246155313817376 -0.04533497649137354
Ni 3.5756026253014848 2.4321246915123345 7.170787111659238 0.13414267945440125 -0.4809688121825846 -0.21697102490554246
Ni 4.068702806092609 6.955876799265731 5.911834018272664 0.41944617018775504 -0.5585302528078316 0.6148590093065476
Ni 0.6225031240091552 7.493173003550558 11.548506262918197 1.3004909755615992 -0.27615113481012443 0.23281956190202485
P 0.2800043652340083 5.715138567317813 8.270743444740797 -0.5466584410709102 -0.9484524453945408 -0.8714630752226797
P 8.574981645161392 1.7812930873796424 8.038891777192504 0.5827068500540351 0.08082854141229305 -0.6387831242223128
P 1.7092033731494107 3.1515876642291087 10.220936324183851 0.6970762035362511 -0.6101142955327106 1.161714139769296
P 4.129827476909328 6.035630084573041 3.9643261221422894 0.6938607819227469 1.0172973320823966 -0.6503466606901961
P 6.660873561733305 3.5852151923336955 10.370048206775856 0.14815262058024808 1.9991427511150857 0.8714972708947248
P 6.34904152412749 7.637779052077607 10.103336233573923 -0.1009052575575101 0.7625020372402287 1.0670186105669237
P 2.4622876379221883 8.616091480939371 5.664996186257724 -0.6725188259118611 -0.5253208559353985 1.1561402452259444
P 6.779464863221341 3.8166157318541307 1.420819100564943 0.5623012898144897 0.42699390062802595 0.6498059576953776
Ni 5.188780175378418 2.807178192177021 0.212688257238186 0.7662684462611965 0.8623114906303987 0.5074012953425002
Ni 1.405359115513705 1.1044013510944706 7.021435595668129 0.7278088567334174 -0.3828403460392632 -0.704882072733915
Ni 7.110340494437708 0.8588642564314817 9.083023513007966 -2.7183427831335703 -2.1298072422128995 0.3194292287724692
Ni 2.7382109737532865 1.3258171656522697 9.215330195785585 -0.11496662074658263 0.36838406140461716 0.43376772901674976
Ni 6.559356139931376 2.0373831286258683 2.818389222905523 -1.3387574752419653 0.26459248343824754 -1.487259508741832
Ni 4.127839608939493 6.522031422616505 10.409425238921685 0.5113358545102161 1.5886645887538962 0.889422745024894
Ni 8.253028727252541 7.24882862966947 0.3157533114093224 0.06779921903216066 0.05118140796982154 0.12631881253460825
Ni 7.726407101655041 3.946326386141465 8.638529881037224 0.4154542754195425 0.4753116138968072 -1.809619280897535
Ni 3.0901997597542845 8.259182948638603 12.372982218876091 -0.8099046948939084 0.1068481054045063 0.16263230225366185
Ni 0.2031192599149034 4.753246472508238 10.606403892984567 -0.5232976548577827 0.01831396781783943 -1.3137596676460472
Ni 8.664063545873491 2.480005986219521 6.039025798762606 0.28032326390994305 0.41592812973216753 -1.2443051723986507
Ni 3.4738128928187577 2.5425829806671683 11.501676995141166 -0.44625789106396047 0.25232497892480416 -0.4707173096579054
Ni 0.9722308236572503 3.298762510178363 12.725317747143974 -0.39675798456161987 0.46317934940964745 0.9840532253172859
Ni 3.377097216021589 8.193310994953285 8.119359583368658 -1.6776766944182462 0.11967122531110357 0.010478016713188407
Ni 5.855423953042848 8.132721868475471 3.565917442087728 0.05728649242629488 -0.18710380503246485 -0.3097785930565826
Ni 3.514005949304714 8.307191321663495 3.6727167833948906 -1.6103934957905555 -0.6734601067792079 -0.10346273387204118
Ni 3.5027232100969354 4.322314820143562 9.28211529795385 -0.9270878636758357 0.012154890194979067 0.09440113789040516
Ni 7.364478975804874 6.258761456419875 11.47024417325652 -0.572337076783937 -0.5487160949308871 0.4022647733124621
Ni 0.4673087285103657 9.283161878670388 0.5145491854154044 -0.21517202402359073 -0.654727306256395 -0.8465182323518841
Ni 4.664772732316589 0.7309218061648031 1.5278308442031288 -0.333746930946722 -1.9020509537663952 0.5017155578116327
Ni 6.0510882542197395 5.644700871217762 0.4329322281662794 -0.6900020702982891 0.3760225517864814 -1.0262347437813424
Ni 7.963036006246821 -0.017119264799574027 11.169175669160426 -0.3674247828151414 -0.9370552593011927 0.6765711416043638
Ni 0.11901156763873537 4.959866740075949 5.769669688850115 -0.40708507751924083 -0.18347520714094206 0.7994115086720684
Ni 7.887851027278171 9.131575599692187 2.493262070160824 0.324047444270771 -0.42155961698633204 -0.14723499386198513
P 8.565750313082301 1.7385040024034009 3.7406174516521618 -0.13628569393933304 1.23340292366385 -0.25813361518678124
P 1.6834518597685033 3.3397906527521037 1.6645879912072759 0.8246332593533345 -0.3844503708388605 -0.5648268844498209
P 4.86927805359676 0.7251352041978208 8.296490419610357 0.07895780675214145 1.3969906478522456 -0.17846695529307327
P 8.39774370005191 1.6809829095959243 12.44985007785208 -0.40864316603498 0.20210902019204546 1.1419523837613366
P 6.449133853366568 7.876804290660419 1.299705294470438 -1.3359896826888409 -0.21340027683514862 0.06943418353242234
P 1.8677789596014567 3.1560354053488284 6.04329109172619 -0.47241295219277346 0.14672000189877957 -0.5034281696273653
P 6.964273045257038 3.88718958329458 6.079107207869435 -0.049650316037275787 1.71783809712848 -0.8575464651415876
P 2.3399384490391246 8.25250225993633 10.205299337190093 -0.18284091599105282 1.319113989979425 0.7315693522171143
