# total energy = -340894.7719821688 ev
CRYSTAL
PRIMVEC
9.00876482546825 0.00000000000000 0.00000000000000
0.00000000000000 9.00876482546825 0.00000000000000
0.00000000000000 0.00000000000000 13.18523794198136
PRIMCOORD
 96 1
Ni 6.40156510204779 1.812599483519291 11.427553100971846 -0.25851722377844505 0.1582359729581791 0.2419058404740092
Ni 4.678548774251626 0.42991987034204593 6.036518246858379 -0.15988764962898916 -0.5610095675862596 -0.07191195564895357
Ni 2.9653610086933853 1.796329654553486 4.842133526351666 -0.758765453015932 -0.7047530033552184 -0.2822629041348171
Ni 3.5593539061797395 4.231768099982447 4.9360390873559625 -0.2128400334563044 0.8852398172917979 -0.5139506664252439
Ni 5.075015497926107 4.5822450800963335 2.7016285225600303 -0.30778598810658603 0.028028624002442055 -0.2580616242982653
Ni 7.1976155819671686 6.21528186652458 2.475567987581884 0.40461244760903226 -1.0874501389483981 0.6158170023444426
Ni 4.953316096210127 4.612244266395409 11.441041924288845 0.9757968988457646 -1.0267798176515348 -0.7308263034035026
Ni 5.632306688210528 7.7366820413557855 12.175960729016552 -0.3061808484029953 0.7350089740262825 1.1899556511134926
Ni 1.851850671118412 6.567902932626208 0.34250602514769407 -0.4572431864308706 -0.12664997062178188 -0.9110984302261149
Ni 2.7846722160205437 1.4346367624448995 0.4495049247006618 -0.5233308220885633 -0.5744163279104687 0.15316781440665234
Ni 0.5926550959351794 9.161823565854972 4.64883786842149 -0.043439302130557446 -0.353661667592778 0.9612187439212736
Ni 8.471157614862497 2.3280269444548223 1.263549511140693 1.0980104309627476 1.318280695444852 0.8494734583254661
Ni 6.92425362729475 0.5568326441635143 4.845298305374749 -0.014843235660419599 1.5334792018310042 -0.4847776444057134
Ni 0.6518967323023632 7.1685533071921475 2.390601823744126 0.0013423729605073658 0.40130318073014115 0.46232188650535866
Ni 7.3988533668166445 3.8162027952406854 3.7387139060660606 0.4742196663842091 0.40530176036657295 0.44320470605993345
Ni 7.494256184506497 3.6507298060690867 12.553282026047551 1.0938678695492838 0.8830312396762533 -0.8903938506889116
Ni 7.917965412495816 8.828409185996474 6.900929034728102 0.28702715829267983 -0.7672202686515045 -0.025157987322866348
Ni 6.864111114462128 0.7930757858305031 0.438698010621271 -0.8474934517809598 -1.4931506774152865 0.024954613062808634
Ni 2.1391401759464976 6.479454881249534 9.207330439630093 -0.5509601537700576 -0.9908681913565903 -1.473708766640591
Ni 0.021202127614076516 5.042665024052239 1.1097563853434944 -0.129657389989538 -1.0580441749824552 0.7748546452683106
Ni 6.515408860985154 1.9177768108591438 7.208145026095204 -0.5258307056922815 1.028131446583423 -1.2024828370462257
Ni 3.131599742860606 4.34359389563723 0.513810387680071 0.8351578130337424 -0.7556076241132407 0.12146739797957788
Ni 6.021305145986532 5.795248214514248 4.6207926831759485 -0.4051243542484442 -0.8218808934191781 0.47146575778815575
Ni 5.038539009840535 2.723115327137185 9.671753878598404 0.17537674640352377 0.3613222694618293 -0.7548692032853193
P 0.1403664629563151 5.5950104025414085 12.24931009083249 0.45715371204085786 0.06395644824730275 0.24095453230433345
P 3.8652104749604965 5.990486162103909 12.587260383694463 0.7273522288119731 1.9723672827934546 0.4772473974669394
P 2.4080067570563823 8.401303653732457 1.462519789926662 -1.20288701446318 1.2946072630873122 -1.2728040511692917
P 6.400979532345256 7.631928125954689 5.659130284968937 -1.5780323058510304 0.8078876644638795 0.9890388514573354
P 4.7720957864226765 1.0194227995246588 12.631061898320512 -0.5924274197759088 -0.008295921460205066 -0.15126905472204272
P 4.221227845336825 6.0923212377569875 8.149465439572275 -0.7729332598758818 -0.8173791488940826 0.8217137717136945
P 4.698827503488628 1.1145643630395354 3.712145257347372 0.4823669780816918 -0.01878550813761926 0.4213351596803518
P 0.09534696334899641 5.361827538227511 3.6620412109691225 -0.2756567116722091 1.8650612639159232 -0.6169349179989698
Ni 1.4531768001036076 1.2261919658719223 2.7459309245008603 0.22677592681110623 0.637525854776444 -0.7668646850842985
Ni 1.715728237190774 6.550849341135473 4.654335917490055 0.6520068220014383 0.019072957471051023 0.3039563299478507
Ni 6.132680503408596 5.518345815332658 9.093568660451083 -0.6850686375524137 0.6210720800957948 0.6851064327688846
Ni 8.448221300052452 2.2024808002314233 10.135413374324022 1.2017976380537432 0.8934331517358677 -0.046021718145752996
Ni 2.5412283687653114 5.336693084841799 7.095477811821702 -1.5037042845614168 -1.5803938641046718 -0.30185779554760916
Ni 0.7332837139429369 8.864903691611357 8.76488658466553 0.11215949031509072 0.5878063760641296 0.885481758099275
Ni 1.2847399273607187 0.6990738310444052 11.472831152124744 0.3565212485287602 0.520525234318968 -0.48862092941120366
Ni 3.966721235086018 6.912425119303553 1.5552515088964929 1.276137743528215 -0.9783466618508119 -0.003956927765218992
Ni 5.516985491869848 7.696241696822287 7.756308536031812 0.9136309668399812 1.6345639223891721 0.6834658118416681
Ni 5.43762728402944 2.801167264102708 4.968052633431757 0.16764543919753708 -0.23395341839615189 -0.19053365664962024
Ni 0.9203714321497826 7.30997289473656 6.837402829891297 -0.753103112523832 0.10189358961270839 0.3146914569771677
Ni 5.2153089898887215 4.488094480693439 6.880926874565988 -0.15938422763000937 0.6174100578631754 0.4063001197241003
Ni 8.094185857900086 7.317071801284208 8.933051392715859 -0.8107127926175004 -0.4350460815085411 0.5982941629693308
Ni 4.4760767886445 0.35419039290442117 10.466125124786204 0.21096955590646893 -0.0201294237600234 -0.3710631508986771
Ni 8.181489796165655 7.158121157722379 4.724877247363225 1.3461961909081976 -0.37702656757096353 -0.38269225049717315
Ni 7.166607414026802 6.100221924358876 6.991920260366707 1.1295303559478997 -0.6651819259308156 -0.7002103782898585
Ni 2.289325291499619 5.208651512809137 2.639777047072473 -0.6230747123481204 -0.7991641685479527 -0.11937169179281377
Ni 2.3698366212157866 4.995251895676252 11.341400482829108 -1.09494798998734 0.8071788113223131 0.708102893664058
Ni 0.8483193324440744 3.4191414930990147 3.938193180055002 1.3248156683498924 -0.6965290727835295 -0.4642286166097683
Ni 3.6957285855177004 2.60712748221208 2.464834945372659 -0.137197407120325 0.41220928611968366 0.06716544210290369
Ni 1.1678692234994847 3.2408400230595826 8.160686756825768 -0.5997638055363219 0.5838414778791107 -0.03411082564077997
Ni 3.6672518804452143 2.9066959332640816 7.297620076642478 -0.14446000222000926 -1.0098881841025187 -0.5501086044030397
Ni 3.954298148627632 6.70405239284781 5.952185399175824 0.9614750829064538 1.3673108613996259 -0.8372064680326549
Ni 0.9016061753747151 7.211308904241822 10.967981782646383 -0.9033743221089797 0.38736111672775225 1.0991779689082877
P 0.33837911005952387 5.650062963344307 8.240998091966608 0.19726223362270545 0.3429332254316803 -1.7851842877836224
P 8.49228316797701 1.5425887892983003 7.996147976548828 0.7340047011314842 0.6584674900251176 0.3727659925223967
P 1.691080257096398 3.1398427625193612 10.381686874557195 -0.32211911689980655 -0.5421466692434858 0.6275456036352806
P 3.8390940662274575 6.158031167146013 3.814067718017598 0.8127560482997745 0.057947265938745364 -0.6241951991058088
P 6.835526304213789 3.8797055772893896 10.355791180558187 0.17765242981157792 0.03476825671912077 0.0346399586713726
P 6.229758951324164 7.813076365624903 10.038567352536536 -0.283734346474021 -1.35158342336204 0.31021053838767865
P 2.4645457640272532 8.491715615803786 5.789255584266156 -0.3102961561229495 0.6078974903870499 -0.9535018348929901
P 6.892101346243277 3.991468311591592 1.5397852617378582 0.6927703770720456 0.941668846813804 0.2092572012010525
Ni 5.381088277058569 2.9941620292934292 0.43263961639120235 -1.8123942725395108 -0.28906295777578606 -0.7901601652771295
Ni 1.6198209286802752 1.1646350769885634 6.954369026657867 -0.19542466619333443 0.2613392666082725 -0.7734891323793517
Ni 6.676440529182145 0.740403340649291 9.325589394124565 0.1455990009204589 -0.24719999899341297 -1.3250529811716794
Ni 2.6827380439562667 1.6542163921306872 9.19821987593512 0.38353634366502337 -1.4070932835038865 0.31819201393125846
Ni 6.33642272483199 2.0586198374656752 2.4740644247610684 -0.2654905697724847 -0.8514295536105724 1.1240042839233482
Ni 4.029998798018363 6.795968818616419 10.444422109857344 1.711735326664852 -0.26546665851308476 -0.6623259445392593
Ni 8.046511475349122 7.303225330010431 0.17620873401021986 0.9229836116994751 -0.07594010297174017 0.08902341851825958
Ni 7.8754620608564645 3.969513952128875 8.178644828287803 -0.699797459122156 -0.6471669774106338 -0.10202085921919204
Ni 3.254965766037646 8.191318358403581 12.201289771718798 -1.008604689404405 0.6118659881164946 1.364661596702237
Ni 9.14362586125313 4.821094457377834 10.170367381183004 -0.5518356143964754 -0.7307617687141544 0.9277473516367054
Ni 8.727348864103673 2.436015006366841 5.860600495946495 -0.5284694288667091 -0.13739898160816982 0.21406490700234101
Ni 3.4355104184760177 2.7098724430952505 11.726844982948958 0.47022957138820953 -0.3299003035071222 -0.8110146401286356
Ni 1.1219965938793965 3.035683425585453 12.609992199546854 -0.6939872801982823 0.41629862569770887 -0.2386659933804728
Ni 3.0821326161434213 8.324801224287485 7.885760880609348 1.1515400274497716 0.26997765900956083 -0.14212852587335523
Ni 5.370539013648293 8.04504304671046 3.6821226482601945 0.27656713930162047 -0.7862034946222267 -0.5724687172657947
Ni 2.9386320039638485 8.330747008959374 3.4931647105111 0.28126120234318014 0.20537612097909144 1.3423773313827398
Ni 3.213138071747373 4.191471895683418 9.264422584750742 1.0178539759168148 0.8023495082544698 -0.1809565544841464
Ni 7.204101892518319 6.208083863565732 11.3519362330924 0.30554989968721574 -1.635975715135034 -1.1410082746805124
Ni 0.4528696982990716 0.2028629659931254 0.7248316909442003 0.3765645403328805 -0.7976143075623295 -0.646683610016312
Ni 4.614316282265916 0.3062196219963285 1.5796967917861453 0.32465113929304085 -0.37277087761840316 0.05518230159909852
Ni 6.098474224015927 5.57161464073399 0.2780573228102802 -0.9285557064706137 0.6767477763915442 0.4116207606060653
Ni 7.891641802175727 8.593559700221517 11.257424382226866 0.5829526475162541 0.8033550667008487 0.10902171601705739
Ni 0.2736781623117875 5.047700923494035 5.969853388415988 -0.45538890683095123 -1.1553429461356295 0.19982639480545586
Ni 7.865282156797019 8.731772167548971 2.743584141308395 -0.32451435660486044 0.006773828388723817 -0.9372902581301341
P 8.357953478215594 1.7281423148845056 3.449219055650583 0.2793920103449253 -0.48825891808609456 1.2833296332909638
P 1.6939000004332183 3.174058050676685 1.6195686832699527 -0.46576922162401074 -0.27848286826709456 0.43721480702508575
P 4.7194936096057685 1.1085915520736833 8.172856696997366 -0.27518054336673897 -0.38597734900634817 0.07608228497655929
P 8.43625766059144 1.5072924493824509 12.317912734552035 0.2894380817270176 -0.1700627903897781 0.20819739247797048
P 6.308441501815493 7.733853289254312 1.3039736398978141 -1.1024800366983272 0.6145234803439997 0.49138795063337953
P 1.9215875183079452 3.333477150000543 6.023557337150127 -0.866254791548863 -0.09069566401435993 0.026910965458231073
P 7.067105608419207 3.989135041546108 6.032971496213951 0.3713380018266185 0.13423703894042044 -0.5450401887411969
P 2.479302120531123 8.475643979660378 9.977954582188957 0.03134020487417828 0.6191735775215014 1.8834418233056403
