# total energy = -340890.56162311166 ev
CRYSTAL
PRIMVEC
9.06855391595497 0.00000000000000 0.00000000000000

0.00000000000000 9.06855391595497 0.00000000000000

0.00000000000000 0.00000000000000 13.27274531947576

PRIMCOORD
 96 1
Ni 6.376462877631617 2.022677432112508 11.483817933388455 1.8272616765696466 -0.8607593156519304 0.09684497144520741
Ni 4.6225501727489196 0.4282570092988972 6.131596510076158 -0.0004255175731928155 -0.6511645286058012 -0.1928499634876227
Ni 2.7125585894253446 1.5815739095837378 4.616379928783364 0.8391106270339032 -0.0638947417714319 0.8578501124249356
Ni 3.5580924031532177 4.072841650614784 4.837464014152362 -0.9228509427763526 0.7407350778767824 -0.09729260050558729
Ni 4.92047936881063 4.782637351943434 2.7066313827000545 -0.4077257964270332 -1.3059864514585315 -0.16563792184920506
Ni 7.261589996993845 6.217237211042524 2.4831849390814584 -0.010946728819490825 -1.3457318496772694 0.43465630226929014
Ni 4.929266797385915 4.624291335067242 11.407831614735038 1.077896690932008 1.5772607177923288 0.5152719563398287
Ni 5.97501614061339 7.941323442670208 12.197506764838227 -1.727118493989142 0.32373736922951984 0.24523207663376473
Ni 1.8414967969158158 6.346935666650065 0.39206078389602034 0.4957161456950882 1.2389667909048725 -1.081259436756654
Ni 2.7797475040943613 1.518393295668359 0.3748187426677571 0.6941808842663271 0.3797329107585331 0.3931625539008778
Ni 0.7180308549810905 -0.16078455097721764 4.698233601707377 -0.6775054804931752 0.33093080165416555 -0.0724500875406107
Ni 8.666980044492327 2.7334706743526964 1.5274010900995554 -0.3233439904458431 -0.5340685202210415 0.25055708839110397
Ni 6.986948846939697 0.6749561315654657 4.961909963432964 -0.13010784726339528 -1.0936650095098583 -0.6852326739341038
Ni 0.7279046962945777 7.4005565145249586 2.4195554317558874 -0.11502164235423416 0.6086204845960035 -0.30877380594115206
Ni 7.39762737166653 3.839208500578627 3.6724758852025152 0.8932027808926166 -0.06297248706747866 0.8995747458572314
Ni 7.598704413771554 3.9247612365737017 12.865311434923333 0.6662949564893365 -0.08344695287174661 -0.8596041190015649
Ni 8.086628879266463 8.431215784326973 6.714562139345627 -0.08792298636522923 1.1406892007781968 1.2049739788991958
Ni 7.0327722489942985 0.6251987908979043 0.25351051298163113 -0.8311312083728525 0.15401525000861216 1.0453436966966514
Ni 1.983220154784273 6.3480238930990165 9.277463293234284 -0.9101376089747423 0.19184209104839864 0.044962937863935466
Ni 8.968382496636941 5.1616938297744825 1.1984257003046308 0.2805304948247427 -0.16696743929390598 0.47249702726614756
Ni 6.4070783150621216 2.000323447140295 6.96144898067464 -0.5731055795188452 0.0368477649559688 0.6427621634747188
Ni 3.521428240377291 4.461946085991153 0.39655243856406786 -0.48357153991275426 0.2976157324418035 0.9294177973605929
Ni 5.929646166245852 5.534121194820669 4.863505273075772 -0.6227260707594501 0.383055804484179 -0.009940141931847397
Ni 5.06781616144493 2.9862384727829183 9.710114923676196 1.051889211124653 -0.8180702614238362 -1.8382585419007824
P 0.1558857182461874 5.50059475163922 12.220415745299405 0.603756985856115 0.24525830188600986 1.368408722449495
P 3.9824825811368405 6.377814092139066 12.48365409587929 0.26319637442166927 -0.9529053389595717 1.5864313285480032
P 2.325603401285655 8.470800021407586 1.445375114654458 1.1452896756646858 -0.41433841664754445 -0.8425695321167812
P 6.279719546319824 7.510331357562946 5.973439119117784 -0.651546080314936 1.1800396775513613 0.4423528995825995
P 4.903067745627405 1.1076422225115958 12.7237449630346 -1.2368389459285924 -0.5357135120236323 0.8223583472762289
P 3.9683900486229176 6.119097322454576 8.59434092902481 0.8821490941816162 -0.040971557316355246 -2.8939833247214417
P 4.864988888467842 1.0342141428685898 3.91340287301277 -1.6792093290126886 -2.279128172069636 0.16286035910406793
P 0.23684251120518984 5.7432511126479335 3.6728340930752954 -0.6059876749588466 -1.5371965027815915 -0.7966159482048022
Ni 1.60234089765123 1.0538656988259065 2.618062445730636 -1.0871320934873472 0.2619437329614908 -0.5856111681850237
Ni 1.7722674576550146 6.645572209903595 4.925396338649143 1.197440389526312 -0.3557920836722195 -0.266512840389412
Ni 5.986324627128745 5.708981048059701 9.335849362786655 0.030474771550089447 -0.38230709924361256 -0.2398913811471417
Ni 8.742802222323027 2.208655332238328 10.21082877051241 -0.5796701201102404 0.5267807283103767 -0.24458955795375945
Ni 2.591828933467911 5.286041838674681 6.941645979869844 -1.1483153498648868 -0.7148155297975431 0.3677500273650441
Ni 0.7266759072626365 0.11401348505665407 9.02478980776297 -0.5691072569927296 -0.3006324077809403 0.36422298804839204
Ni 1.5253579449416488 1.2714384401862868 11.606750341049638 -0.13304841794895794 0.5359860489587285 -1.4729518338699084
Ni 4.085356254777727 6.767634943260995 1.8611039169598005 -0.040872312734329605 1.2885538578043807 -1.5593542698255531
Ni 5.593837621206886 8.053583069433301 8.451048711359116 -1.2873793778803053 -0.8627166964886175 -2.1357927703723734
Ni 5.47718881443302 2.7133294164933517 4.933227034804723 -0.764692102913012 1.1668100662349647 -0.33424675340127596
Ni 1.0588715404910838 7.410395895334228 7.194504463837478 0.1933166187113961 0.5538439030757558 -0.40813203072651644
Ni 5.067598516155139 4.623257519940738 7.2342963707987655 -0.06926963293010005 -0.4313904870338247 0.09806547411586981
Ni 8.639157721614131 7.025907353812162 9.26154888827374 -1.278920705589991 1.3279483004416033 0.03394061861150283
Ni 4.5576193279614765 0.6656699325344125 10.553279124311477 -0.6402530238996199 -0.8049884885392137 -0.12459231676180478
Ni 7.8811263829357046 7.0427657952171705 4.694131894850203 1.2179943024182638 0.42419859727107595 -0.1251430470589522
Ni 7.328271072653351 5.89243789024545 7.164202798366422 0.06815531681999874 0.06417653467790882 -0.2749365456767329
Ni 2.198480414940631 5.423366947978625 2.5342717297274895 -0.26924566593954274 -1.6662188302902918 1.0766759311510297
Ni 2.394633232364148 5.104843066370505 11.528096053885545 -1.0762434715993012 0.334104828506773 -0.694106836495282
Ni 0.8453560700745445 3.1718989735277945 3.7531606215492794 0.8782232767646487 1.6532774396382752 -0.5243276387841938
Ni 4.177066538763119 2.402822136392509 2.340727935215333 -1.0204875568849199 1.3677016690801413 0.1228128562638788
Ni 0.9848358677474132 3.2208328895156493 8.14046616226222 -1.20949706358053 1.0365767491372986 -0.8293571471915652
Ni 3.371588526910404 2.848441798684428 7.0423722199848 0.6386702527935324 -0.6154642469907142 0.04830280087044584
Ni 4.226018591858456 6.869574555866531 6.2605676676736515 0.15821668968446947 0.45660838106034907 -0.2919083976443811
Ni 1.079230443640219 7.352919401722104 11.359983204630012 -0.7496462643234831 0.4272337845529739 0.09549797049900972
P 0.337838087366261 5.527156545547379 7.865786924282358 0.31905050527681184 -0.9826941401862302 0.44822452787202804
P 8.28206528094442 1.566855646861668 7.853443715785126 1.7536193684931478 -0.6725831034908932 0.6733312945108275
P 1.579333976809646 3.323960482661291 10.31425018479927 -0.1758698839898584 0.19470501441849047 1.213613913962381
P 3.8827647641979133 6.108904268049396 3.978425310192999 -0.753995028210482 1.0647583537778373 0.8455751517123244
P 6.935620832764148 3.818151318791415 10.55845545478699 -0.046255945643746146 1.946130717694429 0.8196193510785111
P 6.675951864936826 7.821636670393019 10.184230702389286 0.8831644228200081 0.19241184750893958 -0.14121578425109874
P 2.648752245301818 8.490768976745846 5.825473875709216 -1.2433533500083425 0.6794214665689653 0.09248026671860847
P 6.5642000771832425 3.968272157424281 1.7633104471247694 1.3650287502336684 -0.5608707280155503 -1.8741673399822496
Ni 5.3936583659222475 3.1585954051893617 0.04990969237041467 -0.41204602106894195 -0.8365675488970753 1.2632961116788566
Ni 1.5315880413618965 1.080336807196653 6.929209365269076 -0.6454643928972303 -0.16078702151480695 -0.5350540240627624
Ni 6.668823981696193 0.8740943168806067 9.210913711604027 1.0542194019197264 0.9310363068006224 0.4740417460454481
Ni 2.5052061081313672 1.7433387712203858 9.253226676505385 1.5961015046479157 -1.5250976626355282 -0.26209337116547765
Ni 6.403704813070371 1.5125894212739506 2.7017334568243987 2.217354333295949 1.002512203353422 -1.8044770745749632
Ni 4.054804297223412 7.044107941170877 10.439252943279586 0.5102572767340567 1.4947784428266966 0.899106290861245
Ni 8.162895416230485 7.316636118203311 13.10196441335533 0.6691457956745702 -0.017035615326048078 1.11963752231422
Ni 7.332542361465485 3.697276565974121 8.542923136167223 0.6391374222379379 -0.13273525758391333 -1.7728563623458886
Ni 3.136839944764072 8.451048711359116 12.457533033682957 0.6545871811341049 -0.10231499342084314 0.7882431507600747
Ni -0.07633636482782898 4.885492888476838 10.098116622917628 0.5519801103941397 -1.458091114707992 0.008962351399610371
Ni 8.53896833988066 2.385274484903165 5.712549523956888 0.0001979749434190139 -0.1465197129625154 0.27801184216794705
Ni 3.4617299510985573 2.9071425470516234 11.422670489221865 -0.6479113117758262 -1.4343559758745814 1.140260083660578
Ni 1.2826471726104878 3.381518593257087 12.992265746168767 -0.6099697995350463 0.4611985715341928 0.055097198084459946
Ni 3.1008468549649995 8.406186576001087 8.054260490397775 0.4946283119475481 0.4235753618647802 0.8027313170739208
Ni 5.6104512116608785 7.862753493055906 3.536828458340704 0.30095148168325586 -0.04167552536191532 0.8996693624535667
Ni 3.319816153601534 8.413858572466197 3.602846622721724 -1.170529938288713 -0.10842624852490358 0.7772599122756937
Ni 3.2395775900988397 4.1723780964788855 9.207993637299339 -0.44599281032803195 0.4451268627833109 -0.5162885705298011
Ni 7.228861586541627 6.065601923934866 11.338760068309332 0.12915602487308725 -1.338789356921165 0.2558052241639207
Ni 0.5822201941519368 0.18207842201707714 0.10997979235254034 0.2756160882422608 -1.301366693298333 1.720662711061469
Ni 4.541830975897938 0.18263976549366132 1.6027770950861848 0.3367816040079877 -0.7128293526054498 -1.126915286922556
Ni 5.974789426769858 5.68492217498413 0.43582018311911047 -0.6047620300818617 0.3395843635641055 -0.8405715278501459
Ni 8.158343002252371 9.145908504675903 11.293937834587767 0.18459363701610143 -0.639607419895821 -0.41282069445143743
Ni 0.22269738107956794 4.768889424471679 5.7275743037954125 -0.6753953761287077 0.6082931831635717 0.05591043801437467
Ni 7.771496636757576 8.46789808421038 2.7014015477574684 0.4633747532499052 2.4191180543334334 -0.18390766669267036
P 8.5279228414238 1.6115092054836466 3.4336192482113908 -0.9085142144387063 -2.123633252191704 0.7774360328422417
P 2.0830558629218365 3.157371150434291 1.8385404483961643 0.30035112909509565 0.4649495539361928 -0.45105428401133935
P 4.678049721645449 1.2787658316092272 8.22695205243727 -0.34860610744674153 -0.21753949581450277 0.26898932695436256
P 8.54170704311052 1.8803192754821625 12.660207954957189 0.492102717312217 0.5696651863787285 -0.8434372794337152
P 6.316955027981451 7.7503215637717275 1.1766258039660087 -0.08863441060995704 -0.060077682018186855 1.0532192427899862
P 1.575516115684574 3.101635819140489 5.829137571420686 1.71797359426508 -0.29741338662301037 0.4276937549085279
P 6.8383333882278805 3.9834347792796727 6.05176149721495 1.2642543618270679 0.046818760125751625 0.4120156820516388
P 2.49897601171112 8.74577670795016 10.398691116105665 -0.5782904661538943 0.21314136674680711 -1.472899126255102
