# total energy = -381174.90911700693 ev
CRYSTAL
PRIMVEC
9.21361051662634 0.00000000000000 0.00000000000000
0.00000000000000 9.21361051662634 0.00000000000000
0.00000000000000 0.00000000000000 13.48505031710590
PRIMCOORD
 96 1
Ni 6.103574510891347 4.480025828551818 11.156263068440799 -0.04587310838303068 -0.8702510571924498 0.784736680268713
Ni -0.046328796219371304 5.860243065242997 1.1420767390351922 -0.09883371974046204 1.7140614036948671 1.6710890138983996
Ni 8.967698953578005 4.765021219570172 10.879967168182807 -0.11334965396844997 0.9744910355501475 -0.36575048043651204
Ni 4.007883586946212 4.3657217802855 8.692354819254716 1.0565837883868447 -0.4259947699395502 -1.6732520829879893
Ni 6.411677636316595 6.110088533309877 4.298090195899391 0.5128582046920135 -0.5939993922487189 0.27525716224094526
Ni 0.19812855259665066 0.17342041409626527 12.337984129487944 -1.5142254958077146 -1.2279419005492787 -0.9860663990925728
Ni 0.7586532715035186 1.916624409512129 13.33535190656354 -0.4170869259269591 1.1232843750381882 2.2941611551433585
Ni 2.5800411990791026 0.9548617077323877 1.7577762413241342 -0.9309383477701775 0.5619984138620902 -0.13996494256313316
Ni 2.6660041823391967 6.087275634429706 9.098780986036887 -1.2980111465625388 0.5852923513930243 -0.6442084090029421
Ni 6.501574831136396 5.529686371735771 1.8619351833881264 1.5105045953127019 0.9040358669523786 -0.773841630622764
Ni 7.128100325422189 5.59444883790246 9.431551710077597 -0.15804236889013426 0.3697675720157051 0.04664289666951967
Ni 4.542438824114934 2.6338578963162096 0.878981178125189 0.14997887515570943 -1.0138376556685702 0.19902703883261208
Ni 7.2456475644824545 1.6602096373654582 1.0131746467520166 -1.6165530876340481 -1.6408394709852387 -2.942381513519171
Ni 2.5283804866311543 3.0664645365103387 4.3372508033753165 -1.7402262350156934 -2.031484657780901 -2.5450044073163136
Ni 5.240213166155315 6.678107602761629 8.467991432945867 -0.47670977979591456 -0.6147291685969026 -0.616727429973854
Ni 2.8401322016995962 2.5488531285179636 12.680896274286894 -0.2867571924607448 -0.31412812827452996 -1.1029209808904874
Ni 1.4226919797596727 2.67392788711987 6.751924283681768 0.9265782710292687 -0.21018022723595414 -0.004738800236566032
Ni 4.3781970085099555 6.095051921447018 10.757010618568199 1.6222668501893736 0.06395927646078016 -1.0534043622175988
Ni 3.7254864340071014 3.0734484530495836 6.2928386491048744 -0.5668639694845076 -0.05203321444715555 -0.23375518634241677
Ni 8.488775494857778 3.421004257394417 1.4380593602290737 0.902843389306174 1.2756227515650096 1.1573028980754778
Ni 5.706173075309953 8.495049963410846 4.216235561431974 -1.0106386891152983 0.25062933638993606 -1.4442940609238997
Ni 7.798307545713994 5.496637151912196 12.847517044048118 -1.5735891824780126 -0.20088388953569272 -0.42990516073755
Ni 2.5632079332252764 1.2705015663094856 9.977979605363034 0.7152359051644134 0.6075480774674311 0.3989017703775001
Ni 0.23634200094297897 2.428606301666142 4.7702960114154465 -0.7222367619622788 -1.1064367073532302 -0.4213032780011518
P 8.116582496811176 4.841429689042408 3.2694099645248222 0.2583812124212131 0.2743109962775921 0.25938214288190165
Ni 3.124132522815262 8.86322582740585 3.606671402181927 -0.1738464258019264 -0.24993436720544052 -0.9386406015104415
P 7.542344240467618 1.2290679611947324 7.942815650971013 0.15557128164182238 0.9681296121084939 -0.013418330288434956
Ni 7.343357900760409 5.511940958471147 6.816301620941674 -0.6913205319993965 0.06949897533208675 0.06339903308193598
P 6.226152381126321 7.621931405462333 10.166796883481373 -0.3460715139503459 0.2715246917817066 0.2742819428118695
P 8.044605773849991 7.785380850589245 13.524830721894963 0.27751741903003174 -0.2976548132098551 -0.044940569266432286
P 1.984464221488986 4.63168185260982 7.248348994996052 0.4434962691584233 -0.2448374122985074 0.7149713386491171
Ni 4.9447419003280935 5.435965528678785 6.3315542392076525 0.06605961063323462 -0.32292592907181805 -0.5788946753967966
Ni 5.045225533279282 1.8696349974406945 12.025576405372544 0.48544561700701555 0.7920825791108229 -0.485116515802371
Ni 1.6241936350542354 3.6962240079798714 9.340055953886345 1.147764105347107 1.3403741849097819 -0.5673619921668486
Ni 4.363399950512559 4.655655666376461 12.939943374870587 0.12716496258498744 0.6488106836616438 0.06715310080772952
Ni 5.471981530990008 2.5388471478298116 9.523357964932927 -0.8416030544384538 -0.09636366093341468 0.7645355227304897
Ni 4.643991235850494 6.714492149481255 1.639930481293061 -1.1951824467300705 1.1958301076163986 -1.775522596324142
Ni 3.6228928843178028 7.25050313706317 12.478458516194989 -0.8814700658367206 -0.3379486277328954 1.8261779565871645
Ni 5.7297046357865105 6.983769121481204 12.9277123073167 2.307134941695207 -0.029191533962291658 0.028410175711576877
Ni 7.613049485219811 2.798735451025684 12.409981122391594 0.3836142480908103 0.13642067685530054 -0.6505009268798732
Ni 8.038460295839865 7.590033886915019 8.625307377755925 -0.41439292403456374 0.8043086888633696 -0.5536659827369949
Ni 4.41763126020912 9.159922503391012 0.4369103175232602 0.16345428393432496 0.13650012394298427 0.18642271980504022
Ni 0.6002464352445872 9.247055615147788 9.953436390485408 -0.5352113755762331 -1.3781658018362588 0.23784066926570008
Ni 0.7191499177277785 6.7813645323860525 12.379814841202753 -0.03333178138291034 -0.13860251499796775 1.093348506710704
Ni 4.065229096893782 6.806665106022947 3.7724970373820192 -0.38363121737167477 -1.3502631618887198 1.0541402119423586
Ni 7.766640367421931 8.025929785954148 3.389224673057791 0.6803835733719186 -0.35143046426941416 -0.6969800442780191
Ni 3.6346125965050313 3.7386526829973135 10.797573537518097 0.6916195512970541 -1.2538887023220275 0.19096997285609046
Ni 6.6460903072815825 0.20361894292084043 12.393650919655236 0.42703503827860645 -0.796715449897144 0.7491317865809098
Ni 1.1300677194873674 7.931720621556028 7.909642968770621 -0.5695967950346383 -1.3729359208958871 0.2641839351459192
Ni 9.217848470781817 4.7223253498566375 5.1872127947828215 -0.21251941689209203 0.4505919996629401 0.45439234724563676
Ni 2.7147626075709677 6.557842348689387 6.794401790833323 -0.28157153449474737 -0.17856362877193763 0.8216386955013849
Ni 2.3234697955588604 3.364451117924914 1.294454188772644 -1.402393821145688 0.002655435344976072 0.6801030660170222
Ni 2.2990537285021344 7.789932374033027 10.76789281358733 0.22832990156178742 1.1830995474236077 -0.7684407713221668
Ni 1.9976028296485675 7.104218647757648 1.9282409292650042 0.5181068546854625 -0.4973009736837048 0.019006880119805978
Ni 7.649111555582085 0.8934189053243926 10.36807464804783 -0.46938522111004327 0.5230372021075443 -0.9306223591916553
Ni 4.930810921690445 0.2934184734724146 10.010694371135983 -0.3261688614891479 -0.7133384310313844 2.1825968752101055
P 1.8797239006207378 0.6521199820883878 7.725301662492343 1.6827245412547986 1.2421475026256994 1.3684981968395076
Ni 2.154796233442831 5.407965367250336 11.268741900524498 -0.33973091644429876 -1.0126022405995723 0.9631907800459799
P 2.2238061739163686 7.6387370304855295 5.05209335832988 -1.087703906830417 -0.1259909968815443 -0.7424788000407664
Ni 2.514707489079388 0.8444384320865588 5.545902325705522 0.14263220498265114 -0.10149661128460585 0.7502250196450886
P 4.760524977787651 4.052265547328193 4.367848281521988 -0.09189354097720302 -0.03605689362355726 0.6201310563387642
P 2.5729375056071264 5.4315706366085745 0.44208007421213896 -1.1031796338685131 0.7674781502985814 0.4759325353102577
P 0.759236493029817 1.9961747200660043 2.7177496600010773 0.3928025994582977 -0.3949854660422294 -0.7578187728319465
Ni 4.2392741937622915 1.5790008769737678 3.8700074383184138 0.7350922777687082 1.283599342012583 -0.9442638612344898
Ni 7.694414876985074 1.5908495797039373 3.1246070237410812 0.9280396860661437 -0.5889759708921986 2.1345123609980527
Ni 1.1780245606308606 4.834132509756021 2.9405227771876636 0.1319173896683083 -0.8248314914070698 0.1279992855608247
Ni 7.570989354610773 3.35538492547819 9.492059331049267 0.9596958795188439 -0.8639688237281637 -0.223844354986608
Ni 0.549715311408396 9.13911817153664 4.184855847778465 0.5750315928969645 0.8120304829876596 -0.40897998054910856
Ni 0.42367312373443083 6.817712224664839 4.035940872757964 1.1978880185866918 -0.8334058633396421 -1.467026469524409
Ni 7.548554213749215 0.3120327301798497 5.157964189170906 0.18516493613853915 0.07849783639658739 0.5214600874284115
Ni 5.463062756306645 1.138350755066234 5.641484318024945 -0.20652180454776045 0.759957416441504 2.239054443977202
Ni 4.198061715292581 8.010275862207214 6.002195315027738 1.5313837527545562 1.1724940039936194 0.2479055097008698
Ni 0.0473450574255437 5.377007636944449 8.234551719219066 0.6390448625241317 -0.19265173143388759 -0.40370201997962085
Ni 0.12179563472813698 0.4550399383336448 6.537983333242569 -0.5762081297035689 0.9278789921185634 0.6195350746259781
Ni 6.0717783420563425 3.366514966611973 2.5134922138926776 0.12439537025965029 -0.778492242020898 1.5762001377382984
Ni 6.767295349595252 3.597113202949985 5.08784216594501 0.4098279303717006 -0.03291449133983364 -0.3706173216105101
Ni 4.127881646322361 1.2079872210340576 7.957703002348468 -0.8347585207127945 1.4133462063921336 -1.0644225677049732
Ni 8.142481955111727 7.702338581765747 11.276293375452683 -1.3938281909638641 -0.49426630062243904 -1.4651253958469541
Ni 3.4550393335104714 8.268570210836742 8.336120715453003 -0.016140100094972205 0.12241330683261498 0.7292820988448344
Ni 1.9830176846860028 8.44350902789563 13.456084290673433 0.6990286992769316 1.454942284666365 0.2701828330418315
Ni 8.828941983814122 7.27112319671334 6.04287985363241 -0.7999488692327772 0.4005819862934004 0.9623518290844525
Ni 0.5128839045935806 2.5466326484573334 10.93442052588543 -0.19327856638460908 -0.7604929772299999 2.2498499919308093
Ni 3.845788542520184 4.63177398871192 2.5188047815398127 0.16066669388685878 0.3016006852314806 0.3565695852681924
Ni 5.600041499299982 3.205258360715062 7.293739845696037 3.1541985050276 -0.12564955438172554 0.5787288392428935
Ni 0.6327446811775996 4.252735278279226 13.17831881958693 1.4734094902326174 0.11828128694211242 -1.4367946672230612
Ni 2.8239623157808973 5.027010225893943 5.063568909846541 -0.4538634713253603 2.3027486397020533 -0.02682406217137961
Ni 0.28326691774294277 1.9666358857324713 8.794221415098438 -0.727095889826793 -1.0523098436018392 -1.6672115332208641
Ni 5.952204108749857 8.936427960524977 8.083154597607967 0.8961706052716889 -0.27134754277389395 -1.6104035230928846
P 6.525180100494635 7.574951207001109 6.105329703636368 -0.026699620778373373 -0.3688162638460294 0.5204540147614004
Ni 0.19582975684923443 8.99742206011574 1.4720953577061493 -0.5870718118909503 0.2168427268577943 0.38202222101334204
P 6.322720229738223 3.9485110827524235 0.3346410869133567 0.10966500602801113 -0.36763407061247005 -0.9291488599699224
Ni 8.457154384616766 3.1979335405980445 6.931302218139875 -2.068028775453522 -0.17699936960861132 0.612350898172713
P 0.5405486906103822 6.820642152711646 9.797037199891255 0.0412302102943806 -0.059034328355337035 1.2611083599989183
P 3.3726880854527304 0.5047796130527896 12.082617866183183 -0.4880740557687981 -0.7586680082061192 -0.7251675624558285
P 5.539950333509807 0.9587037831899932 2.30657756259969 -0.2658019303653164 0.5675612526618483 -0.22838518027975507
Ni 6.478605300882654 8.487153899460804 1.4610648235626353 0.6595216423212449 -1.0358766377464805 -0.4729112319854308
