# total energy = -381162.2748392326 ev
CRYSTAL
PRIMVEC
9.28998526038241 0.00000000000000 0.00000000000000
0.00000000000000 9.28998526038241 0.00000000000000
0.00000000000000 0.00000000000000 13.59683247467262
PRIMCOORD
 96 1
Ni 8.362278076347637 6.0970638011433085 12.197147776507066 -0.6700089150058138 -0.38364381577716505 -1.1030248534582037
Ni 1.016250071742054 7.597284946981037 12.227658875221984 -0.028479081276299337 0.16995660382921698 -0.07842481706680687
Ni 7.236777777498605 2.144323696518691 5.518600570585396 -1.8820410863033716 -0.22229706510414618 1.8696630243539931
Ni 1.440672340076187 2.0980874396894875 8.249782857375994 0.9758071832584098 0.6615438149575962 -1.5955949973251422
Ni 7.9318451875255604 6.695413174230574 6.535426621415938 -0.2704620548451471 1.4345693774369679 0.5010429572246403
Ni 8.714089819590942 3.9715244548976023 9.91107098131854 0.606618109453994 -0.633405147739851 0.5645373782338601
Ni 4.490862503023572 3.3269388249811334 3.611604412486018 -0.358398410946815 0.6542002301083314 0.14163873072113026
Ni 2.3832899883446093 1.290146708289251 3.7027986241673903 -0.34370738459354355 2.198703036743349 0.772260145068257
Ni 8.718084513269174 3.050970521712435 4.242089702716861 0.08444351245706103 3.5083713079288414 -3.3299010102016586
Ni 1.6610215013644878 7.5984090352021205 4.27374254062493 -3.0462288844241407 -0.28973864368657193 -0.24458750107123034
Ni 4.364156393541252 5.247903404974903 10.018445560393808 -0.7928474823013055 0.9129393400895955 1.1126076120506323
Ni 7.303870051322296 1.0095241223861482 3.5573527563415173 0.6006426085968495 0.5914851104672975 1.4642224244167104
Ni 9.16405025750986 4.947418830504222 7.9166876475129975 -1.0486118259249617 3.5050820956546085 -0.06521963123044253
Ni 5.116673072652354 1.8824668809179774 1.75263190438722 -0.1388046037064448 0.8061179741579665 0.32106650726557606
Ni 4.150077972329245 2.0896800029946054 12.97475020291893 -0.3709212260041741 -0.3479988128800458 0.4915471019190631
Ni 1.5883738163324663 9.205288502248626 9.16608755128576 0.5411171995377068 1.308906453318804 -0.2017786334358202
Ni 0.9089126526079778 5.100090448895045 4.128760243065437 -0.7606017348937223 1.0572890419839855 0.4061831345302618
Ni 8.529358461935988 7.435945772306981 0.49917134804060986 0.5559722622726683 1.1300090953565312 1.1570645568124267
Ni 8.526720106111295 1.4474261593879874 8.750241797378935 1.0712653016584197 -0.9622736675483492 0.8773802120380632
Ni 2.5210976302582924 0.09247530065399598 11.487868546970903 -1.7981390481720774 3.410758347969358 -0.8740143808896239
Ni 6.299947790070969 0.9324729843227744 9.297337392577434 -1.5172761097085805 0.6275600018129838 0.8299783257153319
Ni 3.3042898408240915 2.0369964963684426 9.94646396730767 -0.3586624632414791 -0.5693872501269935 -0.15029486373423148
Ni 6.672067441176166 4.381249966489963 11.845628667800653 0.712062135422122 1.1386552010673037 -0.35057171581354457
Ni 7.103754478013501 2.9394163782515 1.8216081872293877 1.8135913781714055 1.0610446523716757 1.9562922316084632
P 6.732526665496933 8.203948856910204 4.820321612640847 1.133362070989164 -0.16878289523608997 0.5851162308264761
Ni 5.494190205215812 5.686966690139018 7.801672055529949 -0.47299813527228207 1.3278205166144876 -1.0802618487300748
P 9.212051611545725 2.079423859225379 2.325439391895581 0.5164217536735558 -0.05506223108146646 -0.007872203659225153
Ni 7.252672942343847 4.5304935803057464 6.374276962441967 -0.37101327149734814 -0.9491636125289525 -0.6563347599528309
P 8.196897758068861 4.327730361186962 0.06334748074998073 -0.493384412238118 0.5025136282328958 0.5134156198573803
P 0.41997143637775947 0.09736926490909428 10.931200550921128 -0.4371011642653569 0.3644281620806627 0.9776267529656519
P 4.283649380946944 6.125519026111732 1.1959267483962508 -1.1021416795223018 2.362021566430758 0.2749136628585975
Ni 5.92004313128587 8.80182444074726 2.6320070487395313 2.311712533763561 1.1272207339781168 -3.813900124570135
Ni 6.714188234518262 4.354940728125426 9.118049037308703 -0.2701733199601347 1.538237799561912 0.4124342576462961
Ni 5.8273290780097105 7.9456965556051955 8.805186486426683 0.9997472390137749 -1.3538215686639392 0.061142890057907594
Ni 5.795427268495648 0.33104676810474026 0.3304958719765563 -0.08819449485906102 -0.6884936040735626 0.038570661184346475
Ni 8.926700423125832 3.1021304707496906 12.04359825450556 -1.0051604396095464 0.1955290529816826 0.9868590701971973
Ni 1.991958647642709 4.573729171883627 8.46183884878858 1.0072828852691877 0.5496002973080535 0.43582384021483006
Ni 3.065713728380698 6.620433702888701 3.0298497401369486 0.3439930341547624 -1.3467500065291387 -0.6705624735164387
Ni 8.970549153733394 8.605294801763575 5.044261353246907 -1.464303157055975 0.2448752075149783 0.7267675599530966
Ni 5.308009609854337 3.1780296506360863 10.49313779717363 0.09874373112981703 -1.9452323742498756 0.2669514705887273
Ni 4.82462380483245 1.1300523916451564 4.0382590642873115 0.2953485336741817 -0.6164698054370932 0.5896850811440811
Ni 5.3584077800971395 0.4844950292664939 11.681936339850562 0.6733192103259694 0.08167469146267224 -1.102247608972547
Ni 0.8598968321775493 1.568632597573765 13.3319938005661 1.2218059628548699 -0.803525530840442 0.6585919314181239
Ni 6.701210125056659 2.6371388366182638 13.303235722076952 -0.6537762551970353 -1.5253383178914248 -1.2024540406908195
Ni 2.4751493629733337 7.478800474487635 1.0546019180486643 -1.0746663569201687 -0.8072749705805453 -1.5990487602016978
Ni 1.444388334195472 3.393919618981245 6.137650817912669 0.39726397766376104 1.8560485188943519 -0.35135821627058195
Ni 7.916349492048142 5.429308947893097 2.093409003093308 0.4915159915708116 -0.48816070194533345 -0.039458205995622365
Ni 5.380081315797868 8.075198950662278 6.5862781429412935 -0.4531348206894518 0.9056564332749371 -0.8603098868193377
Ni 7.946904253693964 0.5534137141998126 1.4920208758149966 -0.04967217041414672 -0.49916245237247586 -1.740785707063589
Ni 4.961920497554732 1.5549112892883052 6.415543077136626 0.8284582895263797 -0.38372094887200364 0.5953487071877618
Ni 0.6755426479257026 9.014862383605868 6.8775089630564255 1.3601035450179093 0.9283433333494916 1.0718826235274443
Ni 0.22378459785157956 7.435899322380491 8.40524890334452 -1.4750393125265564 -0.8477662458263722 0.539849902789509
Ni 5.112148849812125 5.555782807742961 3.082619643626385 1.301430713767049 -0.6383925736521135 0.048648357135322666
Ni 2.7184726579041136 2.480704774181665 1.5846160172793393 -0.7779132295889765 -0.9242946172014147 0.6692625237580925
Ni 3.6842966894474705 7.971922184102049 12.401616636926603 3.1809433772216122 -2.0461947102975664 1.526024802435488
Ni 2.243670799297775 7.103271398777994 9.559171912213431 2.5827420310764038 -0.5807867502131868 0.019701592193985422
P 2.3142932675347856 3.668745254058263 3.449366896233626 0.10337454503360906 -0.5469883136065031 0.3074268049949544
Ni 4.157509960567815 3.7884467146257306 8.186829272002656 0.2653915823007752 -1.3885466308499503 0.6544077181334472
P 6.676628823957588 3.813408905122027 3.793978900870816 -0.4717686337405553 0.7587240582550353 0.8773231335478826
Ni 4.205808594133222 4.157389190758939 0.9447422679061235 0.609157588046396 -2.2016400078844858 -0.04561779783911498
P 3.3339992138077745 6.007136743456612 7.227028866926661 0.09785798609075404 -2.2135089914079296 0.006258836425518253
P 3.998929911527329 0.7870029625351256 8.254351672145654 -0.031803517663842 -0.2281136717859233 -0.15682597998452993
P 7.591590185993232 6.654156349521213 9.298886962125176 0.21263511653434994 -0.6004135233051788 -0.4831779040187615
Ni 0.3867383719704641 1.5755536366209333 5.289942446446374 1.2888328224973804 -2.8137265966522182 1.3538763331612749
Ni 1.0340218136175343 0.20988956684104323 2.171373346711496 0.037356072050955015 -0.7743016009783181 -0.8339846186612476
Ni 7.43070622059879 5.993322535318169 4.331202957691433 0.3981466373790304 -0.539226153162581 -0.15105925270408177
Ni 7.741595578603469 8.612949749649303 10.442761922895542 0.11594826793356161 -0.3421593233801333 -0.04728207291541535
Ni 1.0926137508933602 6.41121394398766 6.268289378171721 0.46346062809549216 0.2848401779436901 0.629616113011064
Ni 6.718972576946841 7.834114542188366 12.833424443572813 -1.685555840056007 -0.5691306540314973 -0.35499349903032407
Ni 3.10036537354303 8.937114496645128 4.969628398356659 1.3748045986735098 -0.475894997204103 1.361218632458959
Ni 7.409227774589322 8.95367854043184 7.509965588167549 1.0875609534946495 0.7307216595048383 -0.814373015077907
Ni 0.914950214053286 2.241013863502486 10.413596943050335 1.0780298740757628 -1.1366070602890233 1.149611185858175
Ni 5.345457540591432 6.1366019785725 5.330529463215734 0.010614542291052687 -1.2619509105048718 1.6345747210224493
Ni 6.113246955532794 6.715637472224783 10.999402048989424 -0.056760444719495796 -0.2815072569157152 -1.3100703917199181
Ni 3.0083294891936396 8.012677349605308 7.477415337679672 -0.12038984864468297 1.8884593311248894 -0.33410380006550844
Ni 8.168563302909313 0.1983523340991932 12.776236223075548 0.7215050260025767 1.4293870619050801 -1.4697425829039914
Ni 4.573255382633418 3.932497226659812 6.006958375738886 1.0705399934566209 -0.4770291108085462 -0.47398183934179017
Ni 0.591110616542899 4.2759108231935326 1.946182245085767 0.9465344024362214 -2.4808271013074568 0.12760384989461895
Ni 4.957173315067345 5.738972027838411 12.833397502615448 1.7482390780178407 0.10641821695593931 -0.8105389860437977
Ni 3.668615194264088 0.1091508242642873 2.0568203959962985 -0.4216012688575449 -0.6923577150146591 0.42303208776680046
Ni 6.807088087500386 2.589313992303066 7.763424257058679 -1.1985341368111229 -0.3363244618659111 -0.6254118451217293
Ni 3.052800648816183 5.415123140342726 5.069497598309502 -0.021547644263788697 -0.047610659899427685 0.06847284806041755
Ni 2.68383030272708 1.3686470840591463 6.275604312595533 -0.4181367073477121 0.26295263384197937 0.9718132316076683
Ni 4.799020605350576 7.826022964993624 3.956243358080573 -2.38963778548613 -1.177587873576759 2.146952900754251
Ni 6.318444150799711 6.6267508928914864 1.1936414120128904 -0.5501885657113557 1.477663894633597 -0.3171869697055118
Ni 0.7333755934026644 5.881972771533796 10.291891632654043 -1.978733591331115 -1.207691634940675 1.2021848461898328
Ni 0.7341243662177004 5.61207082866483 0.14451222430340308 0.6831230837902688 0.5695867677323093 -0.256781472034261
Ni 4.1276147878781675 8.45310626260826 10.019750803328208 -0.9881021985756789 0.6941220060039336 0.14922605615008497
P 0.5801475048924786 6.858350226375922 2.121907890992634 0.8717381832609373 -0.8273694273375751 0.9275632606503573
Ni 2.8310022498213607 5.853554706506564 12.447533318261545 -1.96342447177787 -0.8342067619743826 -1.0439954101988729
P 2.6557466771705838 0.08359964870008384 0.1789836437509501 -0.607749651955276 1.966341645424665 -0.8534915783459237
Ni 2.1582958344072027 3.769931773926393 13.378263501342374 -0.5830740035854667 -0.3126420306473067 -1.2985492784541959
P 7.209158651207019 1.8913016569365773 11.212777218314356 -0.5387628403729173 -0.06183863057335156 -0.3064564706618851
P 3.4333556065721567 3.5702342499560182 11.592876966790717 -0.27814553953233384 1.2297463007478693 -0.36426721102276616
P 8.921098561991009 3.0866533552428685 7.357830930926963 -0.5035456690418361 -2.5239277891516725 -1.346579028168913
Ni 8.274822154750266 7.984249994592777 3.1316363930553432 -0.5092416909853488 -1.1298586858215962 -2.63878848044801
