# total energy = -340874.39634500956 ev
CRYSTAL
PRIMVEC
9.17328600937955 0.00000000000000 0.00000000000000
0.00000000000000 9.17328600937955 0.00000000000000
0.00000000000000 0.00000000000000 13.42603132468823
PRIMCOORD
 96 1
Ni 7.1957730982453985 3.6038537715671186 12.75548149213314 -0.26617654009591574 0.7198824027974893 0.8435051565571731
Ni 7.221192273331465 8.853046439484684 13.320690747699892 1.4394146213444112 -0.885989550973629 0.9905226350917135
Ni 6.853270124521664 4.873574132280909 6.499447316060936 -0.5516841764202757 -1.0079315745967803 -0.7881109960575846
Ni 0.9621584327868178 7.571565926313175 6.037229292700534 -0.48318304622508396 0.8471666645691603 1.0492772274231028
Ni 8.678276997499934 5.62783838788421 2.8493666051177016 -0.538800378479072 1.495885045627314 0.5347372641532919
Ni 6.130699571524774 2.802576425990491 2.036057577822241 -1.8957733482877999 1.2792680616270806 -2.63302458138104
Ni 6.981989671547173 1.7348793395172077 3.7955121501274576 2.233893211491236 -1.6535787729287783 -0.15773152251793482
Ni 5.809506140826997 1.4067233848604546 5.627292577376227 -1.9454617166518624 1.4494815186621102 1.4525210768193824
Ni 1.6178649052343255 5.719479513510267 4.9708669193182 0.4507933170404689 -1.3232316116922243 -1.6006379590656885
Ni 3.460126728893538 3.017974350998045 6.859883146289814 0.756062452262472 -2.390905853565276 0.033054616462123716
Ni 2.5060040945099664 7.202671409203436 7.859101653904387 -0.20815316950359636 0.7892096284384021 0.5692509816594454
Ni 1.5634398002954466 2.0822074615972297 1.8567794658429764 1.3357454278885188 1.6169096996425187 -0.573982839917476
Ni 0.7371753413962145 0.44553181640206396 2.9907553772285116 -0.8030416492254879 -1.8959908636152445 1.6413426358739023
Ni 5.038518985121965 6.312633349757166 7.162492417187207 1.4038184694073566 -0.43795477051490384 0.43254799767703567
Ni 2.0699794715612403 2.0392030975396764 10.705433736063421 -0.06499594525541064 0.12773703303837355 -1.0643917144670378
Ni 5.183878872676571 5.431988735019712 11.72445645049622 0.3713955945374313 -0.6778464087723616 -1.4466741311203022
Ni 4.0385299214961226 4.675100919663754 5.387611130070645 0.3185799933982965 0.23528576405433027 -0.4560769340369113
Ni 5.102154069052693 0.4122226981577418 0.367986361810741 -0.8506078290402255 -0.11232095559361947 2.2603372646153783
Ni 2.845672522906529 6.736778567532143 10.489771620423431 -0.9901979047624432 2.1557000508192616 1.1499264031057486
Ni 6.872194613227024 0.46464527479590323 7.594300080631398 0.6137171823926204 0.9430500434320468 1.7237611474811345
Ni 0.06499731687922237 3.433964517653747 10.983057728295378 -0.7641688834196904 -0.4967492149452929 -0.935398183313744
Ni 2.679938767482507 2.6312194463413663 4.595784103575094 -0.022745778336947926 0.23884802748429185 -0.5123820363865434
Ni 1.3826710293658078 4.265394453814244 2.7899558193201877 1.023101340358683 -0.01501729934443865 1.8903838018411119
Ni 4.876628836468445 8.639052027211944 6.86233975224003 -0.6914819972779253 0.44761183398869364 0.8720785973194916
P 6.7107172624366855 4.966334398780479 1.699976821521009 2.9706207108705227 -0.8989558813263099 0.5387564126150141
P 0.3502644908801123 2.2785983383267863 4.214955141576517 -0.2649778918021243 0.33731562213458677 0.6450077649757859
P 2.1683170958566693 9.04053922894124 11.03723148520201 0.6344379598797396 0.2542759320035879 0.13360788999685375
P 0.16875635311108805 7.016646345482633 0.1283599542202502 1.5734076625948257 0.33468075561490107 0.7262587386374783
P 5.465397842079782 6.21261701415147 4.852597579531249 0.15662132017289154 0.06683248424351716 -0.8108220645018552
P 8.649234374503727 1.2168638876549978 12.192339895196628 1.4261662409749372 0.7672922595400204 0.5289638520046245
P 8.200798295802043 7.1629419081937815 10.180099836751314 -0.037237029974587485 -2.033358991985479 -1.6844803476036407
P 3.0149013002388125 0.30723719360793783 1.6172053459818219 -0.6171573184224209 -0.19150064854857987 -0.0530526568506054
Ni 6.435371914409483 7.889429454247962 11.459009995228087 0.022527234568238623 -0.15055068849877942 -1.0043155751107478
Ni 7.973365019761318 0.128141630017057 9.875758649485734 -0.9717378982850426 -0.4714145928352462 0.20525245091703362
Ni 7.659978055320576 1.7348334730879653 0.7773928612130074 1.3365211297122788 -0.22191679894659203 0.07941443467358582
Ni 3.359972794000115 4.092826600433122 9.786328285749153 -0.61158470943065 -0.30707713496501954 -1.5379467506840545
Ni 2.822867734287272 8.204651075858393 3.7698416270091437 -0.584456228644974 -0.0492196562577604 -1.2561304471683528
Ni 0.777027764436239 5.454747657209727 9.10053985701881 0.04689075101426763 0.2965723787789537 1.229696164236224
Ni 8.312042733286248 0.06123260036701676 4.961509250424192 -0.15982979980786022 -0.9559960620697535 0.33789694855935354
Ni 4.441301383244201 1.762839514783296 8.64863260695207 -0.1277992537348767 0.3925616870920852 -0.18032997664374104
Ni 6.748547893275711 3.991727817097309 3.7946122507857245 -0.4664487641895386 3.207776438254056 1.982013804744283
Ni 2.420637496404251 8.1277697671625 13.001164103040779 -0.5794124955734795 0.13982301766863017 0.819919398817433
Ni 7.7538482894078085 6.547597893479471 4.775021853096627 -0.4312133380260122 0.8204163930585097 1.6968972332107548
Ni 8.523266813232754 3.2257767953230783 2.514574695478177 0.19882520723445113 -1.1447911387617125 -0.42700521348193554
Ni 3.753708569187467 5.812285646439078 3.2280068211128374 0.3631878619156584 -0.4696914394965524 0.4927691472516223
Ni 9.020880877368002 5.606216953139403 11.810960536047144 0.4519965933199506 0.4069426384041056 -0.9677462606271463
Ni 4.976865330934504 5.116849672981917 0.7324437605555817 -1.632164311808744 0.19200458476819193 -0.7138328541692996
Ni 6.061111025078399 7.052853304726481 9.332622154327533 -0.46031359782607817 0.38046798915234475 -0.8026356720363209
Ni 2.960769740447084 5.92206235818753 12.827525727201143 -0.11878445183077607 -0.28590744286593983 0.5076391223849193
Ni 3.8315255530399046 8.709732194674283 9.135326791613318 0.347011509266112 -0.5995396053406579 1.610584014534807
Ni 0.111282047956183 1.7226696960529149 8.801179763968939 -0.32791978274198363 -0.13985464223751398 -0.5349468090609368
Ni 3.697384594077958 3.2712762931314114 1.9945310301148738 1.482730253412911 -1.4788877397383693 1.400550340179046
Ni 1.3824875636488387 0.7509325181831412 5.457963811228195 -0.47093173966155666 0.1129768440100635 -1.6066283723211685
Ni 0.9144307438458954 3.112459195237123 13.156463245812185 0.4633791241252794 -1.221429810462374 -0.20739469407101702
Ni 6.324677874076187 6.775425620811681 2.807799694952601 -0.4993457720278755 0.09411574543950242 0.28554568865114693
Ni 9.00143351136928 4.7767225802929305 0.7833206385282785 -0.39201969854568613 0.9916132970527307 -0.8424196368024782
P 4.816158536155435 2.3074483223201745 12.904040104463101 0.3921631661020859 0.8457013928775435 -0.017913132834994957
P 1.9298483569402536 4.928375341939575 11.018810609889728 -2.464224716864085 -0.8444397525563005 1.43457323409171
P 2.0270209739329292 2.3639741097183493 8.444893010929317 2.4083258488139365 1.074363223857453 0.018995824376212445
P 0.5592273558649753 0.008130283247484976 7.413062554794903 -1.2558908203537211 0.7966442303395764 -0.8587654251503533
P 6.02662864357406 2.781771413686197 7.539616289031593 1.396239114398202 -0.21886978459015208 -1.5366848532524955
P 2.491785501444862 4.558710268818567 1.0797159255919284 -0.6494514025694363 1.1480464124742165 -2.121419789480153
P 4.079855574243409 6.131708632968103 9.051051814523568 0.5373243081541779 -0.07222228780052077 -1.1003714749957565
P 6.494007557552803 0.15737964400183513 2.234386769851576 0.6956065609692601 -0.8275422054700136 -0.219077529725584
Ni 8.129833756478401 3.8567062226939113 8.37805828489465 0.3507923164647829 0.8786554792060609 -0.6199271678580743
Ni 8.241977175975755 7.933085121600755 1.7767608933869101 0.6632566838836448 0.03431368568020542 1.2466178796922274
Ni 2.780340381093838 1.3203752451689552 12.869831086877046 -0.11045227781599687 0.23124501832605335 0.9959327503636912
Ni 5.111611726762448 2.8086307946504707 10.720765966030527 -1.1112683244139185 0.2489730317334357 1.1069401293522099
Ni 4.714912980246045 1.1634478441594487 3.059537591848806 -1.6485674357571158 -1.2751995479846618 0.3110014097200902
Ni 8.096993393140934 2.0620904457315694 6.32183507279175 -0.6087472399818549 0.6576424230206609 -0.3038712264332121
Ni 0.9500680420385551 3.054227176671136 6.553407335407298 1.1962584534030687 0.8966089783606881 0.5446195562640105
Ni 0.6452892890380031 0.4072388519562767 0.6575053538023896 -0.5029126634435275 -1.0494474344523799 -1.9489149653077855
Ni 1.8896693649240242 6.552762453412153 1.9299923775280743 -1.1013382097844 0.614420121996916 -0.7771395846477455
Ni 6.0074014364357 8.49207764134801 4.635981442163021 -0.4732539600368301 -0.957566748990983 -0.7751806611491617
Ni 2.657950401303762 0.5327422449633182 7.263133453559183 1.340172610421937 -0.08546578307398829 1.233856980482133
Ni 4.334496816110649 9.073801563427734 11.672820024455273 0.056020224119361584 -0.35839712539523433 -1.3379745743293538
Ni 4.301289521339245 7.47835616880703 1.6558863404189985 -0.7579789525588946 1.0761503976648628 -1.0705909012992143
Ni 9.166470097068819 8.227474211049348 11.663582525605877 1.431469912576038 0.5511136486287864 2.0169556109267908
Ni 5.4609946648725245 4.512889706005539 8.696550182910055 1.4621974235668818 -0.6469070388810279 0.563895630884803
Ni 8.774660711909641 4.340055827334813 4.981393264829301 0.6265230759080371 -0.8519391462571392 0.2539414314823046
Ni 7.294312534829494 6.43260158208325 13.198420020625845 -1.4357870518941531 -1.3704378370643817 0.9433326076694722
Ni 7.129606187420499 2.3161262507328124 9.65112781227171 -0.5209821193507286 -0.05440531422375792 -0.746598735746411
Ni 3.46142016219817 6.979329418651121 5.785558360791023 -0.6116631280770692 1.0014410817764303 -2.139818603702315
Ni 6.600454366538266 1.2928278677660472 11.803454953565938 -1.1446592411695384 0.5331861176160883 0.4622709786627651
Ni 7.944515035767929 6.356298190395808 8.015622678350807 0.949566504394326 0.1925792263247393 -0.1803376899532249
Ni 1.0491945689169515 8.432900774339632 9.28693368683072 -0.2565027644515776 -0.6584759746655499 1.2926036023937222
Ni 2.70929328219756 4.994505559621082 7.354215926077069 -0.15155367584199705 0.3224068233435544 0.5769871739614385
Ni 3.222190040556333 3.652591439279956 12.235142446965515 0.03885785340746211 -0.2722209465177828 0.9319107389857757
P 6.841904423355429 7.716531362576297 6.74220364878292 0.42933566138732515 -0.5714369335671707 -0.9423836134926415
P 4.850118040366413 3.068785181312633 4.270417745144857 -0.09159606434144225 -0.6968013526083096 -0.7150304740218266
P 0.6413383548230738 5.474635340929177 6.932678673468807 -0.9789966367299849 -0.6069286987158774 -0.41994110754630265
P 6.812293056636619 4.188494798546651 10.766576438229121 0.8210090323371861 0.4989904455709858 -1.1401490120040105
P 3.769303155129839 0.2663683704959046 5.22618973632398 -0.5106982209262172 0.5832493528210665 -0.21919528625037088
P 5.745605031606665 0.5653330949257064 9.908343995476612 -0.34174409021958563 -1.225601168231244 -0.1403701484213518
P 5.000266383133911 7.1783805482767296 12.902241223108218 -0.7317770973525461 0.8587492272004371 1.3258474520485166
P 0.44496215535087497 7.559108604130973 3.9711383770104534 0.07388759131808566 -0.024271213842538844 -1.7945485026073418
