# total energy = -340866.3276039688 ev
CRYSTAL
PRIMVEC
9.31108965222705 0.00000000000000 0.00000000000000
0.00000000000000 9.31108965222705 0.00000000000000
0.00000000000000 0.00000000000000 13.62772088540118
PRIMCOORD
 96 1
Ni 3.953153366160276 7.644218187482366 13.151104664252903 -0.2930054873633018 -2.096432009186564 0.6746253307319027
Ni 8.32566888845836 5.93788656356748 10.833765386327112 0.16115623192876763 -0.9295455811877088 -0.3908819853968171
Ni 1.2639058992974632 1.0966787334137835 11.716432453985327 -1.435143504772883 -0.03426560605108937 0.036809455518865636
Ni 1.231102931290325 1.5538904680213672 9.272995885446342 -1.0832882942612245 -0.964049014281217 -0.3052277404611066
Ni 8.27509105075902 8.777908501318624 7.656816091460128 -3.946326335554061 -0.13719766423064111 -0.4891832296725768
Ni 3.9135160585229247 3.830237674800005 6.7662038712045565 -0.02174021989056901 0.528832982853715 -0.5047980533916985
Ni 7.085934577280831 4.088108296133441 7.500955903533621 0.2438413669338252 0.32476863870751166 -0.09230363193142813
Ni 8.70826155249847 3.597162484577273 12.618901415501268 0.11935112296752348 0.5268730309138668 -0.789151521506957
Ni 7.538909766204837 6.032282388051263 12.908326387751364 2.4787365373270154 -0.38180367724463277 1.3356646952492546
Ni 5.030744366274418 3.8724727763839906 8.816140765563333 1.2624036817715742 0.10521442645582524 0.6398102799352465
Ni 1.289027218537673 4.380886191681682 4.35862244578277 -0.509710145981335 -0.7515414244636669 1.2284250108332846
Ni 3.8590182521800975 3.125574427913765 13.432980205205757 -0.6535962779757453 1.28040243234184 -2.0920814455273518
Ni -0.08274858273523658 4.5778529771551435 6.395475397296349 0.02126302314383435 -3.077116318031617 2.0874092368626633
Ni 8.011559287061592 6.052142941772304 2.1499771012456037 -1.7006101632859678 2.254279488457072 -1.2132053656700525
Ni 8.789417007834894 5.920232738037665 8.280557591354249 -0.1698804991756429 0.778166483250363 0.47487349791812405
Ni 3.740367039771649 7.738083279869525 9.987905986233194 -0.5878619118924134 -0.2669388721832371 1.0554949261980404
Ni 2.7922839823232133 2.7232236321361722 2.351463489520843 -0.9892126580310383 0.03715604022500697 0.08898999417716287
Ni 1.032069083966854 8.123664803611677 4.925930363844797 -1.7722133294452511 0.047336066081802346 -0.7503168080279464
Ni 6.576841452455884 0.8536313664281661 4.2066868820444565 2.0761061531450182 -1.580886487470374 0.6689717319905512
Ni 8.336963239918099 2.526387201914514 5.55557230110086 -1.3305314877877472 -0.48471593792984263 0.3965001029145429
Ni 1.88544905098083 7.067358953898986 7.738610287530383 0.212095441980796 0.02678343874143129 1.481684842867532
Ni 1.8081483866619932 2.7369574890224992 7.049101769775116 -0.6204354749530605 0.7141084764281895 -1.2534418445925959
Ni 4.500803712250497 4.049895585176502 1.8146670803610558 1.3242780506788676 1.376878193373087 0.20734481466968804
Ni 6.6196072861364925 1.1226380507012945 11.00674214992422 -0.10539337523585075 0.8673354262075513 0.27578886637469924
P 3.646818524424582 8.343229603094029 7.960415335125854 1.065403957781636 0.7863449052960972 -0.1686276006051483
P 6.619113798397526 4.849159500513643 10.034294764804969 -0.17494660084464064 -2.334179861628141 0.23239687254230945
P 4.35298085670655 6.550546935949452 5.004330667823482 0.28201504979006914 0.7545043637467328 -0.18680889949986537
P 9.535114225770654 3.28024093417734 8.359161808191109 -1.9211341956500911 0.9097725123258397 0.1114256974728597
P 7.209148223502365 4.219841589169204 2.1931228273743226 -1.1262210890690088 -1.554844811990974 -0.5047610295061759
P 6.6819822741239525 7.899826214088088 2.51071663842998 -0.0609909378610756 0.12354022134820658 -0.027372992696314147
P 8.368350922334239 0.2289578264836584 5.680511292190892 -0.10561397588708908 0.3855988826210069 -1.7773254538608358
P 2.4310416463104563 2.9374345552052112 11.438890294045963 -0.33565597504397676 -0.13753216475192445 0.49083542056401913
Ni 0.3109894553339817 4.019327278628834 1.906777032393589 -0.6208980164117759 2.049052234351019 0.06962778760046717
Ni 5.756683452472696 8.84934317930635 9.090303000045246 -0.6963670932843684 1.3138059475029502 -0.7915686155888819
Ni 2.544059649623157 5.833825828271489 6.01582131307544 -0.31776598213743334 -1.097085348045317 -1.6128401575588351
Ni 8.231859662607688 4.682844821392582 4.159916348806688 -0.22679675274671265 -0.2563412991730488 -0.0826509393330125
Ni 3.870498825428125 1.5929784213832654 7.732995700613464 -0.10585283137077253 -1.8616596944335424 -0.6452358218261919
Ni 6.106929391886979 5.180336328807114 5.211171863620977 -0.37541859965389535 0.5673864176468809 0.9078742668618622
Ni 7.758176610825927 1.774051177226245 8.340900899631473 -0.4382237079055743 -0.1619869553601791 -1.2088298623101763
Ni 4.6631984227280725 6.258104239620131 7.153367349038225 0.3838736723997841 0.38867495044316935 0.9009865386030934
Ni 4.570357550176504 0.052482886593538336 11.974691347747346 1.6360397356037502 0.717642714833693 0.33319620064957456
Ni 6.270990787369742 4.035454085494677 12.250898297464673 -0.2588131577523091 -0.3944699598583916 -0.20836271441124116
Ni 6.317369323743161 0.6630817837791502 1.4559722584120944 0.6637544494556697 -1.7364989067627772 0.6684305147751004
Ni 0.9420215382396232 0.5085512194210265 7.030241227057188 0.34422031967422007 -0.47089394444508575 -0.5629805752697015
Ni 1.01132397675144 6.912310692969419 10.466716654955498 1.2813377996719157 2.34199472968687 -1.7336418969299563
Ni 0.6466467798536889 2.0440262147984773 4.0036474040548855 1.479932636063116 -0.6703321026731875 0.41259572292482494
Ni 2.5767974400043943 0.41065908086211417 3.383626615490783 -0.7393518243760105 -0.19527914175440564 -0.06004014391203208
Ni 7.157797565381625 2.6865472509326196 0.5427908885248158 -0.6900120976006181 0.4554182174069899 0.08206189959876191
Ni 0.688270142863144 6.400424241320133 2.87371877034207 2.0585180077496092 0.9324023339102135 1.134749181144678
Ni 3.321125927796228 1.0459426071943976 10.368624327974175 -1.2490794538588423 -1.6050191188525196 -1.0768823907348808
Ni 7.248329287758407 7.378535562130199 4.727932840773156 0.5486929550024356 0.5040105244933966 0.08589130064718112
Ni 5.334779368924742 6.002198258153146 3.057719863805897 0.8108500895263132 0.3667305849615942 0.186398294325008
Ni 5.836079111909787 8.743485403753368 6.641183873636619 -0.07073541884234913 -0.6824466265485343 -0.17953293466374243
Ni 2.0010834704189935 6.169313690963852 12.3180554609754 1.2986775765019443 0.4819376038537571 1.408104241266904
Ni 4.518466848869726 2.855720434503921 10.952749004627655 1.5411835124537974 0.9173778354769233 0.9754947942243136
Ni 8.267549068333308 2.9321458564177987 10.215530464712703 0.35210049375324526 1.7430973859159011 0.9747892835168567
P 5.837373353338397 3.176636442262657 5.933850206306312 0.2607435420058026 -1.3801267822173715 0.1385112408357421
P 0.3435102973318618 8.058030934329157 8.830599025206103 1.472816850953941 0.14548561527104623 1.7663378445010804
P 5.258912612375731 1.5458177534990314 9.32176923401716 0.5264189740955837 2.1451981228466734 0.26204760552920675
P 4.113592747860815 5.312553798492428 12.982611190208859 0.5482013600779978 0.2976656118431325 0.15184446760953849
P 6.534075618775275 8.308052307286204 11.122277871814589 0.15198176451835116 -0.7165571950789982 0.6551039728695234
P 3.0877807159804767 5.008965728134 8.59489438333273 -0.17383871249244257 2.9906820003967716 -2.560057444994694
P 2.288824066594013 8.313843804901998 11.984149552374552 -0.718430243731995 1.4180179008361902 -1.4556110285986157
P 0.4180325325694241 5.293447443013958 13.525457945270162 -0.662607223225104 -0.36120579848862305 0.33422798434819856
Ni 4.657797990867687 8.738857792314382 4.100212712372238 1.1975882279580858 -2.660360035971199 -0.7730013941096558
Ni 2.605103151824349 0.6481412097047096 -0.06365433167300598 0.8914089222169873 -0.889099043136888 1.479815136648645
Ni 9.077390381245275 8.297595953873767 11.917482152167027 -0.43726391509546625 0.11559628391078156 0.5949121338709754
Ni 8.533464470920837 0.6415089207147906 0.8926494866194555 1.900757174655636 -0.5379750543642993 -0.3198192651220363
Ni 2.4311254461151863 5.872373738447347 1.0420710562158657 0.3104067135588847 0.18004149886904477 -0.24301347171589116
Ni 4.610702500609355 8.184894527601159 1.6816609614023363 0.17629565867336733 0.9458515174365838 0.17691709430745015
Ni 4.733478525628407 1.1453477977831594 5.381096452108024 -1.6490006666397923 3.503359456536547 1.5821509560050946
Ni 7.924947533328298 1.966530017601937 2.7749169383473644 1.4113908824379757 1.346096946326172 -0.7370619999005693
Ni 2.753047051530684 3.120267106947524 9.121047286182847 0.07394415558763394 0.03146387493623613 1.8378049993031318
Ni 8.687665422713689 8.924911980994098 3.0929334728624385 -0.33055567770293387 -0.5075349927068872 0.43220141297089437
Ni 6.866956376431591 8.293750473945595 -0.2742004099485136 -0.15384221476585763 0.34919591851194054 -0.44618178641038647
Ni 1.2563918501399949 4.7619239037895795 10.77569770830278 -1.1135833457003403 -3.6604649154347086 -0.8108223216121714
Ni 5.684420087527083 6.246651599640347 11.499384441971701 -0.8913392453213167 1.1178971425843458 0.49211171617328153
Ni 2.9680959726470237 8.578511521507988 5.907235388324023 1.7469085321318751 0.21018202700816704 0.6267053671221723
Ni 6.672010097361067 6.862952607983373 9.354094543137336 0.4177816380011385 -0.7979956021611483 0.9714170246105142
Ni 1.4457607866512574 2.85488243645662 13.67255546694872 0.3499075998669845 0.5063476572670054 -1.6209527593636406
Ni 3.873292152252463 3.6316507597684287 4.407041041846897 -0.2872832401675439 0.20011332991825537 -0.19455537621450367
Ni 3.094456767090644 7.112759825883887 3.2605414623031694 -0.8372645749641 -0.054700991087305785 0.2582853102732971
Ni 3.6235501119778495 5.253055937134037 10.581311956815007 0.4492884503601681 -0.07906605019523157 1.1020961709963473
Ni 5.842708607572881 6.270450744183703 0.6743109576129874 -1.3005174579241603 -0.596788782068398 0.39837700822228167
Ni 4.733338859287191 1.5954365489886824 2.8460946302672534 -1.281068090950297 -0.823750085417433 0.18291727775494304
Ni 0.15418046739613997 7.391747998009317 0.4008181904599727 0.5652727137379877 0.12073874734366948 1.1594541400905256
Ni 6.113735798248947 3.119717752672071 3.6872249280475673 0.600925944165223 1.4894421182154478 0.9867577687326425
Ni 8.731008543937994 0.5081843624980968 10.180411828768186 -0.37011698493532386 -1.2745490588848567 -0.4448466125387306
P 4.612955784247653 1.4670086926950525 0.6402640280600774 0.08898716596368546 -1.270099250643619 0.3230267163157404
P 2.158701592026951 8.153655822615649 1.5307198220134866 -0.47762997761733866 0.14118647367506007 0.12188211691949331
P 0.26987820224232184 6.215487383370154 5.450734089838762 0.5303951851345123 2.2175127132506844 -2.284835763977375
P 2.489142844256679 1.4487962018003708 5.5392462369215485 -0.024239075053022772 -0.5797475103153952 -1.2317075382392981
P 8.230658532073223 1.3777898339257084 12.571654154485481 0.2733838564776324 0.3409763588156257 -1.5425235714214596
P 0.9067483382108291 2.0547898341615913 1.8487503231626818 -1.945885434452842 -3.7077927539863946 0.7750554484252071
P 6.903493091293926 6.8883811931742605 7.319162469369961 0.16800770763296227 -0.37713686789658274 -2.372636365832127
P 2.639386583048386 4.957224004257852 2.9872777479497503 1.6286496137872661 -0.2824642215123458 -0.6915316195689382
