# total energy = -340868.8362847138 ev
CRYSTAL
PRIMVEC
9.28725934122453 0.00000000000000 0.00000000000000
0.00000000000000 9.28725934122453 0.00000000000000
0.00000000000000 0.00000000000000 13.59284281644136
PRIMCOORD
 96 1
Ni 1.131819741527442 4.284909354770929 6.5668521688610495 -0.6946002311919327 -0.3754476531196179 3.009187772510443
Ni 7.824636868525861 3.373968506084488 8.497932534784375 0.3658060162647958 -1.3088912838101523 0.16649049965748744
Ni 4.093025286108946 8.945962006811058 5.687163877139637 0.9790755695970363 0.6668186902032903 0.8706403222110682
Ni 0.09412266019368509 6.859551296917037 8.702097146691687 0.010567233992885026 1.7642735057728842 0.6676483851934373
Ni 6.173464288140343 3.744372276978726 1.1670054528934353 0.28259611910451976 1.2959151832654587 -0.8186220201622482
Ni 7.658487795956147 6.426569971468594 11.51209124689359 0.8112802350851963 0.3629721463604265 0.5772527689179994
Ni 0.8676520034011027 2.233632347589666 8.094252513078663 -0.06288506955999493 0.3841490375483577 0.14363082145049458
Ni 9.289488448693739 9.355799481569521 7.825087300611923 -0.767593335720207 -0.4420795913165548 -0.7009477706765155
Ni 8.226236544102138 7.407657491206966 3.3341475234988445 -1.0110870895066264 1.9868359087232752 0.7226455673649231
Ni 4.850234128185746 8.39337935343904 1.6203481660837364 -0.6369506989992644 -0.426916253312555 -0.7615522717324498
Ni 1.0512156162712905 1.2011398464833027 3.4555041434691325 -1.294157062923771 -1.473656316136101 0.044214232623369015
Ni 7.573555807770008 4.161258781702556 12.733992762003478 -0.31350746397139556 -1.326340332524535 -0.6645589476348361
Ni 9.300168797126112 8.404570501144265 13.201219928155863 -0.5398735569385927 1.1689345687771353 -2.0507391351351387
Ni 1.9775547412193626 3.3463667708314313 10.93575456988202 -0.16833912283045202 0.1796136673030068 -0.5494789412388408
Ni 1.9525720131471138 5.753262231772723 4.950377718717438 -0.42544044009797694 0.8169531171002575 -0.5721481007015823
Ni 4.087183599879413 5.8240125746925715 2.3228262591632984 0.47050493653678327 -0.4842819357162175 -1.1891997467840745
Ni 2.0191616638080894 8.489502489330404 8.818669899290223 0.783133083227019 0.8096545265563152 1.7656035374382173
Ni 1.6588810057758407 6.718997911546996 13.337107394349886 1.5657717433161227 -1.1974753565293053 -0.4220283290926345
Ni 2.3771390814827473 8.88106263738025 0.5407841188950734 -0.4356544045165013 0.6628936441172713 -0.7979428945463419
Ni 3.1215686544787236 6.718124909153393 11.146539140365503 0.1642004180717301 0.18446662451993392 0.7209059589659971
Ni 4.801513164815107 0.9771404344481468 10.866227359039165 1.2218471005054505 0.8315934927212516 -0.6196852270505973
Ni 8.733367349449775 5.793949715670315 0.35185618493398196 0.5831010001686603 0.6097147461014467 0.5790224592239125
Ni 0.6381554624641015 6.0215990206914904 11.214394644497201 1.0902277016935353 -0.013408817206738198 0.24490194698785564
Ni 1.1374849698263534 1.9584415611551662 1.2510625812340708 0.7784156231466917 -0.3249123633742275 -0.7536607847995149
P 4.479626037582367 8.285897899171331 10.252782507943776 -0.04698253939712554 0.10711138636822197 1.2194472328147061
P 9.0658048034818 3.9996511790314777 11.197797383033292 -0.6055174201906475 -0.9886411017982846 -0.9777949031123999
P 7.231487465629833 6.665243253523882 9.064699619600539 -0.18624171414248572 -0.7656287557946685 0.06206694453407374
P 4.774347930758851 3.6075802317087806 2.6645918366435635 -0.5359156007321093 0.00032524454990266564 0.7629761486631699
P 6.63333222985985 0.4971321417630348 12.871661524570827 0.4986058085380574 1.279902609887286 0.45840815327324924
P 9.272529912835031 3.8351831004324244 1.4145666422963588 -2.915880124794533 -0.9717782646046748 -0.31749524497454995
P 7.744181339421813 1.1495491199251828 9.136769682096247 0.716472862895308 -0.3520668123018324 -0.9103283848293098
P 5.6459015118785985 3.781001228472016 10.408338532320476 0.18409021501712167 -1.1523440114083057 1.9949431112114415
Ni 0.48520915800870285 7.639300317815899 1.6681951983348215 1.2735208747306583 -0.5999131866299926 1.200032061512888
Ni 7.111523934585508 -0.4105720969854212 4.848513198999208 0.43134137896344427 1.872110457453221 -1.0434428801295128
Ni 4.496463839067492 1.081083442843912 3.6955138621673926 -0.35024724259459034 -0.48734283402972844 0.5701786356800373
Ni 5.607860896940334 2.456740182712206 12.629926233056276 0.7510963665064484 0.22529188606641198 0.25064373456763933
Ni 3.4613337562613076 3.2295237589812595 0.4667795202441784 0.744907206976601 -0.8546557738573538 -0.09481868504379799
Ni 6.265473168070368 6.595755977896906 4.963725368080054 0.6667035047816647 0.7188069103451233 0.06519057776471998
Ni 7.215847720621036 8.111055951703614 0.8044912089498946 -0.38782597217931275 -0.2351340689678144 0.06390425485312864
Ni 2.494929393802573 8.74849629518572 2.825598553624577 0.5714338482433772 -1.0308100218568503 -0.2965556666084054
Ni 2.690082577810813 9.376881560649077 11.288530193507137 -1.035457547931191 -1.3193302197552892 0.900085881165695
Ni 5.638629587685077 6.079235753188285 10.556025461717393 -1.0113313443069485 0.37086543306557423 -1.0202168197220365
Ni 6.343560446000282 8.668467980018967 9.021528722510931 1.625056497119369 -0.7781731681185824 0.6541976590051701
Ni 3.913474698071479 5.0423132292973625 7.255533109217885 -0.13940109963986316 1.1120442833479944 -2.480126475696006
Ni 0.49819924788032155 4.607167972383926 9.18929192078286 -1.041405795094826 -1.914083459450897 0.19413268685478824
Ni 5.139680857962588 2.4439051900743447 8.753057268329322 -0.010850569561258733 0.3366756745577427 0.3562039743986575
Ni 7.652469651795992 -0.24941864130420605 11.089082580703131 1.3655717672213321 -0.15177170539007412 0.08779365987621655
Ni 6.256000163373828 0.5968531619871852 6.893121025128916 -0.1859234115711185 1.8864944940890351 0.20830255059726707
Ni 2.7592912356525967 3.7058301500271154 8.55617851150479 -0.19994389421992662 -0.684665488576724 0.13021660492711767
Ni 4.897515566332889 4.8488224647407705 4.428887881446936 -1.4649307633376447 -1.2571072092593254 0.537428694942526
Ni 5.825052747757289 4.6942360302565405 8.564306721024803 0.9666761674914192 1.6020289258759441 -1.337525145496761
Ni 1.1039115267106734 3.909527612781254 12.965397834769046 -0.8322375540631537 0.9123752400560095 1.6990320201655704
Ni 7.39939183024626 8.029012301223968 6.854327213444681 -1.2001667873185395 -1.5538708781134785 2.704538016039994
Ni 7.419396587223072 2.244238397945989 10.943203880732113 0.05069675502391915 1.1354608624997218 0.27218443685289256
Ni 4.210156203003817 2.1194176301798087 6.437176021824918 -0.24390127363748318 0.8837655467391168 0.069265519165042
Ni 8.870623757695041 5.394198204735815 2.9282106977330735 2.0785024212913363 -1.426025601632015 -0.35888820609904
P 5.455744873484808 8.279545413668945 3.5443878605752506 0.8328091102959077 -0.4042396376506458 1.79339767683235
P 2.0937755066826047 5.738625510790618 8.628315442268946 1.4541928080948503 1.367203389287484 -0.24646903436465942
P 6.569547331569811 5.866798979238613 0.009816633298277696 -0.08327828850436625 0.9007011461521908 0.6248274333731691
P 2.8339793766031636 3.8539526518948835 5.458654571888168 2.764240059886317 -0.2668954205398113 -0.2513901258153606
P 6.617451016103884 3.4788402404308947 6.656238326706465 -1.241686760939197 0.16257188132937161 -0.3774091477213629
P 2.0155489198600947 6.228231257449656 2.787647096377574 -0.5620374946301417 2.2299362837260173 0.45392132114648925
P 9.307227114350987 0.5059485372124719 5.554552027373528 -1.1724536376739871 -0.18608847639407305 -0.4103894593021255
P 3.9669414510498946 7.520897046368651 -0.2751666395597832 -1.7350842858034374 -0.33622650283546607 0.316057741197075
Ni 2.499647321631831 2.993348749733197 3.372492760548919 2.0800484256222176 0.1068041395404483 -0.04700362244304808
Ni 8.511123229461331 2.561844098546273 6.124241812756359 -0.2706692857599467 -0.9490646250572429 0.540397804873179
Ni 9.578693709723414 1.7828380584079244 12.374407719708259 -1.0983601009926827 -0.9280749101794534 -0.7385861498545797
Ni 1.868448016538032 4.4829787382641815 1.6536912851636576 1.3100611357485372 0.8852655283234109 0.002837469448795113
Ni 6.651897461613167 5.9233305278541435 2.354008232956077 -1.0928702815227047 0.45921959343095103 -0.35826548491337656
Ni 8.02579890943475 2.047729274049813 0.5752760719759377 -0.3205502297507899 0.2311455166337116 -0.6199747332665582
Ni 4.986496799663826 4.729462605564361 12.457677288442751 0.939241211208918 0.24073547431499187 0.07149029473050268
Ni 1.7163691421205323 2.0861506666278404 5.709714271947156 0.3653527307774611 -1.874950240894861 0.4908305354680127
Ni 0.6697126415409396 0.820655684120805 10.102079076659175 -1.6669734490681292 0.2360054158291742 0.11387338768240389
Ni 1.836676301766596 8.80806477765985 4.933331882619369 -0.037277396294219674 -0.28597223466560423 1.755330180536667
Ni 7.8553869847515925 1.841524251228943 2.9291626418324808 -0.34582468804686245 0.36094740262091385 1.168960536919064
Ni 8.047317489711107 5.718212114395523 7.155313363158241 -0.7611825470978568 -1.578244678972153 -0.3601102514315992
Ni 9.172580426027022 7.463065281422222 5.743505965661238 0.607365786253296 -0.46938290711719804 -1.5339988217798999
Ni 6.119756066414761 1.9913370343268781 4.938864303107338 1.4346544809516064 0.9611742638365832 0.4735043854847394
Ni 3.6515461182121363 7.174760884564668 4.27808879138942 0.539715948314806 -0.3217025981876782 -0.13556604216448911
Ni 5.8112518801307615 1.4979235112702107 1.541279224823995 -0.8032874466877068 -0.7913014779704243 0.03781218575176714
Ni 2.7335469523008222 1.7425499266691082 9.591775743464147 1.3128718657244551 -1.3979704952670118 -0.9356532367473435
Ni 4.4621659897103125 0.2884195588754334 8.407282380920137 -0.8236495552838267 -0.671728725910398 0.47123204451079487
Ni 4.441576135384596 0.42054568496935724 13.24951460631516 -0.7057212808057588 1.0719332742597216 -0.1512734255974169
Ni 7.231580338224898 4.254855783008179 4.269892784875011 -0.14966674323192933 -0.4068480218077703 0.7425891003663857
Ni 9.491021979982884 3.221193087204007 4.14192920849186 0.02122059994167313 1.4319782196710242 -0.6490875914721144
Ni 1.76097584952983 7.210553982702381 7.020812484808527 1.1806922235336956 -0.8770238571399088 -1.0258038268915108
Ni 3.948125463289903 6.925007901918232 8.805810759777643 0.12756245513372225 -0.9239901985871183 -1.8365271610319724
Ni 5.775300898581439 7.919979874618689 12.169413755527025 -0.2504277619020913 -0.8731566608750188 -0.16595185354519806
P 4.835820301431794 7.080597360429155 6.621522550671496 0.2201753907754531 -0.3116652685563342 -0.14894554879518865
P 0.6165802299047554 8.129825503166073 10.900821471974602 0.061687963928100206 0.1512248317476686 0.4880174914992498
P 2.838994496736626 0.573900628843038 7.290290677920634 -2.9664357262548977 1.0148288159372458 -1.617430348032679
P 2.922700566667919 4.819233255953342 12.32710492086425 -0.7641318595341678 0.6254966915260518 -0.11758554642666846
P 9.088224247930281 5.168489936951478 5.269346789013263 -1.7712257687210011 0.9842619988939824 -1.4561591877926017
P 3.4799454243121577 1.157034651087351 1.901312841753373 -0.9464037903956283 0.41669714668770813 -2.1479384045959717
P 2.348051384708665 1.825410855985318 12.611208690247052 1.337832649434851 -0.13402646559151113 0.2936014690760879
P 8.674086772020347 0.24377198752430743 1.7698563270698613 0.6925207229550847 -0.12087373025963698 0.2572771807237569
