# total energy = -340896.3387467117 ev
CRYSTAL
PRIMVEC
8.97872911722742 0.00000000000000 0.00000000000000

0.00000000000000 8.97872911722742 0.00000000000000

0.00000000000000 0.00000000000000 13.14127764691445

PRIMCOORD
 96 1
Ni 6.353716828585792 2.0307820083051276 11.341329903459155 0.4885646222519715 -0.7847986438549001 0.07611133844228182
Ni 4.499968421653715 0.4114870731189136 6.14332365716956 -0.2018951044090265 -0.12943730355893193 -0.8768971017540577
Ni 2.6423771186731675 1.5628824782167596 4.499337216999025 0.21731529561883864 -0.3154404193280503 1.9264036715791464
Ni 3.550171522833139 4.347365942121516 4.799536534598417 -1.146402192002574 0.12828673489425646 -0.12318000979531041
Ni 4.842246553110934 4.755754455833125 2.4236454015555027 0.6722239203792616 -0.35774792184700965 0.6159008203075006
Ni 7.1275845097107995 5.984457616227521 2.5926295723036628 0.06171804583508726 0.2747460269324817 -0.10478865177231632
Ni 5.126306605179665 4.325709247567994 11.51020812520411 -0.10739395060564731 0.21626140043302755 -0.026879340889347257
Ni 5.36677492753971 7.783354967178063 12.410977571727816 0.5772990487749026 0.34186621761974667 0.08837652896288005
Ni 1.9426198674174686 6.256162937075006 0.34046801967364254 -0.009670176099912378 0.8047887138235816 -0.16955062664004994
Ni 2.669744284924882 1.6372802274167946 0.5094728414986989 0.9826923404140172 -0.9693621989640143 -0.9699795208330391
Ni 0.46525978373731686 0.00013647668209516414 4.635480788245127 0.24479447487571387 0.4408230932016344 0.4955369398047466
Ni 8.343178725640792 2.2431289511703008 1.4184694974831802 1.4600870620920985 0.1665879444673002 -0.3076083248781412
Ni 6.944571074767001 0.7284056821478722 5.055397092229234 -0.4628677317064996 -0.1363646268063845 -0.8085150136352333
Ni 0.8162248355844762 7.447388882267743 2.371343406761256 0.16071040264060063 -0.5753259842089318 -0.13724805785260236
Ni 7.609697367941052 3.84502400726229 3.87877953925813 0.4064554143550419 -0.30348273274554183 -0.7869966799474833
Ni 7.586074331717869 3.703411492130387 12.653552303931251 -0.24842615809103022 0.027070888074863055 -0.364680644411101
Ni 7.8180397976342215 8.457720372580793 7.1877401988358764 -0.19771269089656274 1.265396702961627 -0.5154943567632799
Ni 6.858456084110769 0.6415822697668178 0.364618107294127 0.32588552592077424 0.277599951441509 -1.292527240629832
Ni 1.9554235350929756 6.3593105768058775 9.025153603943236 -1.1598863425319377 0.19333667331605414 1.209483179623459
Ni -0.010038219117262732 4.749783600991462 1.3745644101294205 0.6051577228583837 -0.11730709595430118 0.5535394844614596
Ni 6.220598191168496 2.0511637233285502 7.081414089008843 0.9398945285222006 -0.6649659532652678 0.056223341269103166
Ni 3.4024714293814644 4.151773307729342 0.3273348326407086 -0.2574802978734985 -0.04542753620517983 0.024797261549337937
Ni 5.695387433329245 5.463673371827277 4.813478705121928 0.8010217905819818 0.916907323598408 -0.38938380358473584
Ni 5.2872593027611074 2.843895714261579 9.262353668916266 -0.24105454821730743 -0.08568458395301372 0.09748980411805791
P 0.1574456060007593 5.341526741352106 12.357426635717816 0.04633230740763634 0.17927016792065903 0.39789415504859216
P 3.970196469439177 5.985840340506643 12.530300391905689 0.017000134102422335 0.45709251978561927 -0.18626511118125338
P 2.487790340013138 8.396925397944848 1.2200521549207988 -0.5043301126163443 0.12435886059476002 -0.09599007964407985
P 6.088574958699596 7.7457520497692105 5.863506952466499 0.9103234997333031 -0.21076155366072086 -0.06684431131805907
P 4.705311955832426 1.1672796747224878 12.535530501597824 -0.4650377427746249 -0.8571643992118206 -0.5997473504760897
P 3.9599876544692956 6.129913027407894 8.336274980847175 0.167307339131828 0.2581395287240522 -1.493955175594453
P 4.774735489119255 1.0323563127590647 3.793177234032664 0.5116415586760931 0.06757784704997394 0.8900318393638026
P 0.13526545154156955 5.514142808015232 3.5218364495860386 0.20958013175811002 1.310736564549007 -0.5243484647198002
Ni 1.4052339529386746 0.9775591291520392 2.5603151263259987 -0.4229595826576522 0.8173760635702891 -0.6242206530271056
Ni 1.732284159867382 6.8023210698700485 4.488166780144117 0.8564632593797379 -1.617929913376917 -0.778982037173123
Ni 5.808187206826715 5.488804834536775 9.300345365294508 0.3209001568910409 0.6890451057016586 -0.2167789634993944
Ni 8.706889083424405 2.308045162456356 9.835313308030653 -1.2353114535404726 0.35838349854847956 1.7570872724370898
Ni 2.3844721044296477 5.19010047533007 6.97928014779169 -0.15855941773586887 -0.40226503042277817 -0.4648310260804575
Ni 0.5451453321542309 9.088090005466004 9.01228798303704 -0.07057601044634941 -1.5578905407958332 0.11854662478835713
Ni 1.4990616718790999 1.1862966229249585 11.20544940897525 -0.7588888659676737 -0.5897120777272746 0.8469319228505351
Ni 4.2593115459828805 6.907479944916006 1.567255119281256 -0.4845498446656235 0.6994917549562792 -0.5907551742798084
Ni 5.44566204128235 7.855139906214302 8.020923160043587 -0.18210275227344766 -0.14958163971729077 0.5673835894334035
Ni 5.315685959044876 2.8117339066783638 5.0056701969366255 -0.2186340144302622 -0.11488100301131181 -0.5364820147585406
Ni 0.8637402699033979 7.297991809018965 6.652127583351412 -1.2373092006967916 0.030050282418161153 1.0165141740594685
Ni 5.005201507278378 4.570137189454616 7.113018317515865 0.26928063294253624 -0.20697123338035325 -0.3703913216426331
Ni 7.943158387436598 7.084702099599846 9.214242944858995 0.7087574965289213 0.10391319114589846 0.19426586999854284
Ni 4.524085287976583 0.23892936819484048 10.458183906383898 0.35024724259459034 1.0670888016832267 -0.35743733258512633
Ni 7.970049681046796 7.189690378793184 4.63864758599348 -0.48220448436189856 -0.2935361630557912 0.2875038408187823
Ni 7.124639486570851 6.122783916514239 7.009544749919202 -0.375157889793341 -1.038180860399625 -0.44177363004036174
Ni 2.414425144657902 5.220978324654101 2.4578525636243285 -0.44733415484727473 0.3998605347463436 0.3845961523881054
Ni 2.283892381217146 5.054054772230995 11.281129320688652 0.5607686552200472 0.19336829788493795 0.3411085135181158
Ni 1.241039934157473 3.590153803449571 3.774227626298332 -0.5440523709066307 -0.8825450440684542 0.3991305985588545
Ni 3.808875643965242 2.6731921168936017 2.7579602981870517 -0.5397450017805285 0.3906873528875078 -0.6820866721059543
Ni 1.2312351619964255 3.2554267831530104 8.11276747772909 -0.7655089423873527 0.7763944789516047 -0.1612495629735223
Ni 3.660466230915836 2.6001770919726885 7.161129041573137 0.12400687657197998 0.693263000437748 -0.6122681086509197
Ni 3.9518349684599263 6.804915922575674 5.930514309756499 0.4844220608385077 0.3837309761743327 0.22820108929340702
Ni 0.7951338009633222 7.000571408071445 11.160873610558825 -0.09468061680403693 0.6694353018905309 0.016797274062996876
P 0.09196014329070204 5.693834113197504 7.960381385567844 0.6452160243318501 -0.8940970105721119 -0.2502644968513496
P 8.485500560370427 1.5425366781096779 7.877210520178653 -0.9090029811496667 0.4415016073258977 -1.997809377015643
P 1.6245573683030545 3.189460060563986 10.354695972820696 1.1371791307424093 0.2364211632103541 -1.0028572453976665
P 3.851102606852976 6.361869514595162 3.7510858499541166 0.3020596271457701 -0.8201927070834777 -0.5272018750081954
P 6.928795447764291 3.8654147010147977 10.290172131995666 0.6254326710573358 0.6456986203952235 0.736583517602254
P 6.210658738071171 7.669630384584816 10.293457448967944 -0.22312676009429316 -0.42673807586347795 0.5662366203131539
P 2.3486290179214966 8.398505654263845 5.654613228807497 1.2724839488257118 2.5666358695431604 -0.07952216389604369
P 6.840507604669439 3.9022005540768956 1.7228214772844812 -0.27706799019743894 1.0263874673091227 -0.6177175618012652
Ni 5.250895449966014 2.8154062068742136 0.6115897231305885 0.6273561133322938 0.3963046990742852 -0.15514499273768118
Ni 1.6022542052553974 1.1623054588092825 6.860837243064166 -0.7824309149536718 -0.19572882769731453 -0.5233701599669309
Ni 6.891075806877331 0.5442241145500886 9.340123828760705 -0.39211251536980857 0.621338189272988 -0.5795878448090793
Ni 2.7248647027789747 1.4416426993791938 9.077981752261875 -0.2191929722575257 -0.1892776727553321 0.4772232290972232
Ni 6.372239946688577 2.0293723478387498 2.7086141010076563 0.14442246411385448 -0.6182752340769481 0.7359137452287391
Ni 4.0393416621243645 6.894083681120875 10.473085903046618 -0.0678329004835735 -0.9723408219763642 -0.5303342499895899
Ni 8.372763637976552 7.1633288301990135 0.3239283028257806 -0.8260219121707452 -0.8879135074692192 0.03857683183193356
Ni 7.430158701153229 3.755784418884406 8.164281140109653 1.214819761345024 0.6962035711233107 -0.5434808146738769
Ni 2.965359961326275 8.34196659721429 12.171149432751546 -0.34216420847613976 0.17501936306410504 1.1493957274132593
Ni 0.15227385804767937 4.861685501580411 10.032629858407187 -0.8645822889424465 -0.48930124330767993 -0.24925379619864815
Ni 8.58199496184916 2.5641544308828332 5.771583621965047 0.7099265771363581 -0.497061346869073 0.6321766746493886
Ni 3.5100006889059174 2.629896685244728 11.202400232577913 0.6384851333659197 -0.3331411790419231 0.7711376014280397
Ni 1.09815243949547 3.309676264285838 12.613300661442263 -0.48037540157295977 -0.2553671081852376 0.11481981075607323
Ni 2.8885379552732346 8.153799371775582 7.7737360547090795 0.8381454349071567 0.6116592714223272 0.8677640291045378
Ni 5.669034863464159 7.864379018442981 3.654247563151421 -0.11293802035232808 0.13920415313770865 -0.14509866424527265
Ni 3.3072969010782582 8.539399871068932 3.2369593331705544 -0.857783006632426 -0.8843579289074769 0.8833343727389692
Ni 3.425349231090575 4.237645872700273 9.226911931598222 -0.48795655635432744 -0.2907943386445959 0.043852992629208346
Ni 7.146278223666203 5.916318041199877 11.407141294035007 0.4612121983809477 0.00801104322993459 -0.2215136499709024
Ni 0.56368999920682 9.169257716396285 0.2645735163351035 0.5457701249286858 -0.11337150834532086 0.36068335032624976
Ni 4.841420510035095 0.5087769899945952 1.524704024273546 -1.0992998391981328 -0.9573199230874996 0.2887243434894447
Ni 5.982769615159502 5.576140932348595 0.3818464926628244 0.17556315138271697 -0.07436581650608484 0.07952216389604369
Ni 8.056694416719056 8.543512128989958 11.397771990234592 -0.8525011894081964 0.21042293937437953 -0.4144947397197507
Ni 0.15439822534923964 5.179299064240565 5.686454495762371 -0.15862780907995905 -1.3718486013689792 0.48290176753923925
Ni 7.868132127200599 8.764532524151441 2.446537569231149 0.0682375921211599 0.4594381371996604 0.7150569563843878
P 8.546663662898865 1.6749370172001574 3.5886067684281895 -0.6647019009706037 0.21074432726954026 0.520177364061246
P 1.8626912211009454 3.2456130322628782 1.6327118500582407 -0.4603174544808201 -0.3347710013358622 0.36038998745554707
P 4.701926974967302 1.0169577923779327 8.317101802758621 0.3003601279561602 -1.0038442919012842 -0.41751861414773894
P 8.441244404709437 1.5335399915662993 12.120055974892168 -0.31335036956824097 1.2503495788205174 0.5057097665726904
P 6.374242203274578 7.6997899355820305 1.2780736001423223 0.016578473183971446 -0.7848865755830159 0.48248653437869166
P 1.9337309256231126 3.265285427688569 5.957571709854775 -0.3224448756703414 -0.21985554554218908 -0.7149214592477882
P 6.942927967344407 4.05360886264076 5.899067209008466 -0.5199570205203239 0.3323690767625889 1.5933067155115979
P 2.209485653288026 8.336534466117739 10.120728250318344 1.0494209520898186 0.2709688192782366 -0.347601320331311
