# total energy = -340856.2480964931 ev
CRYSTAL
PRIMVEC
9.40538467033960 0.00000000000000 0.00000000000000
0.00000000000000 9.40538467033960 0.00000000000000
0.00000000000000 0.00000000000000 13.76573117589053
PRIMCOORD
 96 1
Ni 5.450561433039041 7.632083949323877 1.3101221016868068 1.5095905681388646 1.2686211234361957 -0.29082930564758946
Ni 1.845468125971411 3.505603149196501 5.756346474224403 0.20056892939843524 0.31282817851618383 0.15513496543535218
Ni 5.090165907485448 0.9728553573036525 1.181064236375759 1.866456344491237 0.08573934845034913 -2.983887088962126
Ni 1.8274474091552755 0.3860976199395283 12.007282619821426 -0.5687809840015624 0.7046707280540574 -0.5081988515431312
Ni 3.1272715552878094 4.5311004438800655 0.5963709809224604 1.3256412495749814 -0.5808456284755803 3.297132043300754
Ni 2.0520479924378003 3.28857390048443 12.854948546483381 -1.5353941594655298 -3.5835290242086026 0.21357511185011605
Ni 3.4097622805344856 8.719581539024125 13.457309816831833 0.27431408160138565 -1.3491570733087346 1.567715497306055
Ni 5.316920323832114 5.032614359365441 8.331983760247345 -0.7627876868014476 -0.6631386702485418 -2.258673246649394
Ni 3.453788885657831 1.3609967673079753 5.111050563899973 -0.957234562462545 -0.2879962070741685 -1.2907814615833189
Ni 5.365160541238147 5.917651641036391 13.213738572892655 1.045691052733741 -0.16217130345684327 2.2240661980984857
Ni 8.749227311155888 3.719556837157593 9.131112259351186 1.8081979750699764 0.7910261128218505 -1.2117480643982357
Ni 4.451559106659784 3.1747687473136366 2.204747232377782 0.19769623583633048 -1.3073938733290194 0.008962351399610371
Ni 3.860468308629066 0.5961565381545022 2.8130959705368546 -1.938339246674468 0.2950016918577242 1.8595634740261455
Ni 8.851313355165457 6.1965589147658715 9.593613580221922 0.8159784118918142 -0.5533916460296856 -1.158736802308527
Ni 5.047653569276193 2.5909106900092276 11.113405217202937 0.7670737157713112 -0.09806573122618595 0.6230947669527785
Ni 3.361550279282131 4.921706064638995 12.303081023681436 -0.2858133404902368 1.7122924847199026 -2.9170528049463957
Ni 0.6435135899503917 4.217722435739762 11.280162685444107 -0.8449462598790739 0.8638626371676026 -0.03244449368195058
Ni 1.7313055681873537 0.9842358726207319 0.8119292274894148 -1.2696037990644393 -1.481460642671868 -0.5062864650117668
Ni 7.245851832385147 2.390481945044797 1.5702157846817797 -3.2758960167401137 0.6551430536375749 -0.8610639913765429
Ni 2.8377926293133724 4.678031361469663 3.236914825790993 -0.7843260750938557 -0.2521858822437786 0.6406219772032645
Ni 5.601705962911326 3.1931280579739165 13.474214114500748 -0.24433913250585013 0.5580923939394647 0.40872004201950257
Ni 6.885691441445544 7.522633489204164 9.195590873199315 -1.6108930611347934 -1.3076576685133674 0.6485723423985927
Ni 7.557602708996645 0.6046383139503221 3.9067004764316304 -0.03966826512389942 0.47995245510292817 -0.6246155744726791
Ni 0.8201956199788206 1.6870720446036975 7.684870729626006 -0.12693536307268463 1.005673631800539 -1.277055370246478
P 9.054037013962423 1.6786071985000848 12.479998188323856 0.5576139116411493 -0.43363248899046614 -0.5764708964466524
P 2.9981544360540364 2.3206751808436707 7.130400736916428 -2.2599793670553274 1.0059680231125063 -0.6077848760685856
P 4.071948380450991 5.331724399128877 5.604207795204171 0.11535048644856262 -0.14630245474538675 -0.5892158548171466
P 0.4977103779694861 8.531605523216564 1.7601142610933158 1.437318400937015 4.240000566849614 -1.4348120895753933
P 3.5054150415053096 8.44642095526054 4.256171647819283 -0.1467580542255666 0.4040290643017364 0.11738371482850753
P 5.851550598351735 4.767721108629719 1.5917315424002514 0.5328081654513792 0.00392787429949646 -0.23379838087552637
P 7.318847021951967 4.052338153644288 12.053425436470675 -1.7274373107811412 -2.1322194511988184 -4.763639921317531
P 5.223844638230612 8.665124362424216 8.176073522018726 -1.0223685759577166 -0.7552440701262348 0.20606029153030964
Ni 9.119545517419827 4.429795046788939 2.190540399000552 -0.279259598532119 -0.6006734618347849 -0.6633320172062706
Ni 4.438485622121982 2.6400820404866576 8.578776348398174 1.0249209100659253 1.8996626560398766 1.6362330825614788
Ni 4.711429882040695 3.183233593417249 6.1078275762924354 0.997206217759476 2.161745228572077 -0.8375263132659189
Ni 7.712791554229544 4.5678190652006245 0.061044707945431244 0.5002937377634415 1.5537045277389434 4.211606074867321
Ni 7.371968633944417 5.718840622216207 3.19943154670574 -0.4785308921650533 0.6240846416698737 -0.3601650159289346
Ni 6.757590103744205 4.8211060713898375 9.853716668601455 1.3064585059989435 -1.2661266391491162 1.3247169379884993
Ni 7.618615438634573 0.22036439807689445 1.326332281975225 0.35399873921722264 -2.1686470978982326 0.02095243388195101
Ni 3.0213481143779353 7.68162210979913 11.110087938068776 -0.2432795808930842 -0.10150483881472196 1.1200720387484773
Ni 6.161918883432976 6.330228240126475 5.352294915699113 -0.14672025900909572 0.15383398723574152 0.009636494648499533
Ni 8.6877631230591 8.91942715014586 12.823796972283631 0.2800658964834983 0.06924700722228075 -0.7073140792141753
Ni 2.3836348250854305 7.107244680130768 2.6084272782129703 -3.073338081936107 0.9070702829033281 -0.7455294139416323
Ni 7.005412581504307 0.6309226016404957 8.499306492100546 -1.370848185128923 0.8992497584176449 -0.33053176644353394
Ni 2.733421076855828 0.36716269974420257 7.817132068918043 0.856147527911532 -0.844270573968288 1.6282328379648217
Ni 4.771906504758729 1.056977116804444 7.000107944612709 2.6486327202319417 -1.8607695785191054 0.1417906829179623
Ni 1.8524187051609329 5.9365282478474475 5.692102054451806 -0.8379893689452665 0.5154701883935638 -1.2907161555630224
Ni 7.291562001344656 1.1419453609155967 6.142131835396553 0.1725541893530641 0.32449944420652505 0.1982387386033618
Ni 2.2837496410628 8.583579678292747 5.982861993803256 0.7651343326567531 0.32523426549002055 -2.3650251291437723
Ni 1.7269226589825943 6.196624752457788 9.742269445339746 0.16311027033134487 -0.8351657834535423 0.6298356852210379
Ni 7.640877983887074 5.852218380655464 7.539187906567462 0.24413344425294728 -0.3356027532085381 -0.45560462238618304
Ni 6.406741043518575 0.9286415850275713 12.815152483334929 0.31615492889657165 0.281594931533515 1.12451619056276
Ni 0.5850064547591323 1.657529731702089 5.075603550571866 -0.8861690139742867 -0.2480466632644244 0.2370875931497594
Ni 0.9196998859267882 5.023566379419135 0.34429632880297667 -0.6457101903594492 0.6826309746451986 -1.3184084792719681
Ni 7.624663100906377 6.12161681059522 11.49365550956178 -0.23344819662495922 1.3421752426742628 2.4945670766013683
Ni 5.642967384974157 9.110093105937459 5.221823421088761 -1.201353351427473 -0.7422692551331217 -1.611836141774353
P 3.7064363256969926 6.493627986079881 0.9954988206308165 -0.8797726235296397 1.1862573763262991 -0.3881057082032606
P 2.242742164383076 2.312943954735704 3.2082001867306267 -0.023228117290005155 0.1703589814739582 0.9465644843432085
P 3.84573947640878 4.261645581632952 10.297936743503755 -0.41094198937148585 -0.38439380656931216 -1.2975285504991654
P 3.332760397145288 2.1994303684862575 0.6471280792366343 1.2377506591095844 1.0332497416465947 -0.7955088311835525
P 0.20621211593010993 9.148598750324338 6.277820496822097 -0.7515272833962799 0.16781950288155614 0.03597821786682191
P 6.949318867991033 7.771001479268722 13.413961339935232 -0.7676077338979103 -0.07864490349741295 0.23649263987823788
P 1.2416518426315952 6.241272112962066 12.08916119510476 0.7634530882995885 -0.8530622041179889 -0.5765562570716071
P 6.428157104160716 3.0045783137082225 7.977763810195566 1.7701109383902676 0.16002211832432442 -0.20352312693075275
Ni 7.358509528639672 2.2384250928702336 10.06397498096909 -0.6612111142085257 0.32478612220900843 1.7494338696568903
Ni 9.09411335757075 9.154787493364534 8.617086360786214 0.884572101800812 -2.057353040907231 -0.17027490640058415
Ni 9.054601337035997 2.685368967140986 0.6153209497330815 2.8572013800064022 -0.20729622081993976 -1.8521293863456036
Ni 4.992707312679186 5.971770223792156 11.045361022068274 0.6648229999295002 -0.40120342192748326 -1.8223796658869968
Ni 2.9424369379231456 2.0454360070924227 10.079516438415324 -2.352944029609522 -0.4250897416267776 0.8810946847751728
Ni 1.1601447800383642 8.998855622751428 4.002730393323294 0.2721407280991507 0.14663515549445713 -0.7504870150572236
Ni 5.306847156968815 8.064242559066987 11.78657680628502 0.166815487097074 0.34424217405109103 1.4854304259528932
Ni 4.766470192483297 0.3788103279827737 9.93558113580795 -0.6647029294118681 -0.12047932303469573 0.2742965980998889
Ni 8.626835041882208 6.748664393797172 1.048606324546427 -1.7241635251258756 -0.1325136284914105 -2.2396098022600395
Ni 7.855217292615109 2.8510918430806043 3.515561570368173 0.2158541376922799 1.5618158439921683 3.015389273335465
Ni 6.8884754352751765 8.18129256991083 7.0286448219049 1.4118665365228138 -0.7504528193851785 -1.94128984466236
Ni 8.347984200460084 3.0739712409887274 6.8189922163029 -0.0038098606643934387 -0.19047349283564616 0.9765301774673634
Ni 9.193010976214625 7.317906483496011 3.0778519026580065 -0.5906042505242409 -0.9757071673454356 3.2329665643664387
Ni 4.400215112349093 6.819364669531459 3.249111728487843 2.9757060958132295 -1.5742856943244048 1.722974132803465
Ni 4.224409664161616 7.269675671474537 6.774914822102932 0.08819783729317068 0.3996759295393633 -0.6272838653334616
Ni 8.271706531681975 4.7217569942871025 5.424564950116389 0.4141489263445577 1.0212766284451187 -1.2663796357001866
Ni 6.909966738993793 9.349046306057886 10.85887670025186 -0.05010514418650726 1.8592472283373078 -0.5003479880401447
Ni 3.9698153095186233 6.679920438051278 9.122797899400526 0.25498864179989633 2.23155325050415 0.34880613927268955
Ni 5.480197799786245 4.439651889807369 3.8401018889037735 -0.09330584794369738 0.5036240876882552 1.3684074368979142
Ni 1.2257755534950414 7.646455376930899 0.0741802680213263 1.3906431083676631 -0.32123362897105967 -1.48948248453508
Ni 8.511910647948826 7.244290538548259 5.4182746289229495 0.4492216016779747 0.2233195928313896 0.2950705974224467
Ni 2.9447788786784783 5.301382628539705 7.648199135228244 0.6993408312007118 -1.4203318936813474 -0.2699704599207092
Ni 0.24916838829057672 1.4712937120380492 2.59588613844124 -0.17070016686346084 -0.426544214685117 0.32919402146871696
Ni 1.6642733924313005 7.614063232507742 7.741172302138046 -1.2775963303516127 -1.9244771439803952 2.0125921917517724
P 2.0708587615569396 8.780236864048788 9.557932372818284 -0.47774979102465465 -0.4127803281318052 1.2950541208167436
P 4.291893298376528 0.7188243851957783 12.253262582746308 0.4422670247370125 0.9035635553016502 -1.5550037061663413
P 0.8395603662485187 5.189693686894815 7.764643439306452 -1.7281001411761208 0.2791873505332869 0.3430201287185318
P 5.765481924247113 2.2836461818326446 4.253817480064022 0.1676500671832274 -0.9272935519287384 0.058806271504930986
P 8.401999323985693 8.081002954352138 10.538906458073754 2.5041115257566937 -0.6607110346436555 0.6754581110458431
P 0.27162186284963746 5.467303017555074 3.832833407716138 1.7460695811703475 -0.9854475345616511 2.7927859898448095
P 7.2596213153803575 7.9911250995008904 3.6408986655474553 -2.055033905855751 -1.1203728578183478 0.4403209567542352
P 0.06368856154512628 1.5382036177948282 9.652543957718363 0.021208515756815087 1.803948712875319 1.2941902301545518
