# total energy = -340889.6822099617 ev
CRYSTAL
PRIMVEC
9.06916380166035 0.00000000000000 0.00000000000000
0.00000000000000 9.06916380166035 0.00000000000000
0.00000000000000 0.00000000000000 13.27363794885358
PRIMCOORD
 96 1
Ni 6.034068428474664 2.303204859621074 11.552472360833086 0.7513604188011125 -0.01987385610579158 1.413452907173327
Ni 4.601621200712143 0.48730159298984743 6.141314012135386 0.9140138041006969 -0.8755503579181759 -0.8397924835922763
Ni 2.5765948048615734 1.5226037859192898 4.772788972166484 0.7157120734698835 -0.220387249675943 -0.09994829296087947
Ni 3.409679129951872 3.921787606909752 4.686244661984148 -0.5832874051478535 0.7847639339622227 0.645929505459107
Ni 4.829910193964552 4.32734247741115 2.7332673316823795 1.8006921536112346 0.2117653123348869 -0.35897768048905276
Ni 7.654827775095161 6.110385442546609 2.6460065575533194 -3.1284460786538446 0.7573706295509344 -1.6410472161206704
Ni 4.731573249985692 4.387008506594672 11.222860854851671 0.4791176179064587 1.606697792106523 0.1959586843199335
Ni 5.763163434137993 7.922277417992569 12.607965233314326 -1.0032958755969819 0.23429563222691907 -0.9365086427691033
Ni 2.141129831875412 6.208541003247817 0.4542481183033812 -0.6123282724648939 0.8760506945933622 -1.368800815681591
Ni 2.6510889169931198 1.3145299589611612 0.4563013770063982 0.02104216538227989 -0.15370466074672884 -0.4325891353276163
Ni 0.6496024429161853 8.979333814327164 4.579935922952496 -0.11425699627406774 -0.9689431091487248 -0.3466970633494868
Ni 8.644500283782158 2.418002336046824 1.4615864513172634 0.11032989330551966 0.14607696899814196 -0.14716326008378525
Ni 6.863479742192516 0.6597000499830545 4.924745533768347 -0.311952717889766 -0.3827130764327796 -0.3060029280642343
Ni 0.5584845533878622 7.359018856736914 2.1609214682163755 1.7359096099182105 0.658268486640434 -0.3326866080030077
Ni 7.7626238570035575 4.193218612751613 3.8820483446090446 0.8773002507297472 -2.290515587970971 -0.20795982254586765
Ni 7.871626137708336 3.914405307509328 12.701942630214829 -0.8379328046757182 -0.2850234975990898 -0.2003249317084292
Ni 7.999347172666769 8.777390742153665 7.1032947358233 -1.1673908784390992 1.3030697920323688 0.17196617806007802
Ni 6.8987769280235325 0.5932711452922903 0.6464291424736691 -0.22669416573057732 0.4267954114639746 -0.6941914257892884
Ni 1.6664679325887224 6.839809224458971 9.357065396953184 0.9144686322499284 -0.2415551420028098 -1.5124095256448984
Ni 0.13554409572354983 4.969294173675988 1.2498668204783363 0.2209040414113615 -0.959068016126858 0.1689577302510574
Ni 6.387702335748267 1.8872204506547035 6.9649963350286095 0.8577110157439098 0.10832623261192957 1.8513182032982178
Ni 3.546768611201014 4.14039073313556 0.2746940910068152 0.020310429422577922 2.498066605114195 0.9678437054369589
Ni 6.207588741040146 5.5592886300575 4.737202480007611 -2.0791056020929743 0.2674795751780555 0.9017308729682857
Ni 5.3552959268465345 3.097473163293912 9.10733508644957 0.23315149132014684 -0.8446526398980551 -0.02953657600653623
P 0.27028375661071447 5.646597470755138 12.406272470063984 -0.5276446189725686 1.027667362462811 -0.06252280112456973
P 4.040385063002305 6.310632581074067 12.427137895408643 0.08653073400339291 -1.3064165970174146 1.4041943646895365
P 2.280758679011678 8.350623097330901 1.156393669089706 -0.14434173147459012 -0.33837903040209466 0.8551149728819595
P 6.329832001013498 7.755568047502907 5.992251420728457 0.33488721519875225 -0.41364704700747473 0.3018806783657446
P 4.639784242330058 0.9245196353545121 12.91037831681187 1.1381913740570073 0.24685161451505871 -1.3523033322472
P 4.202641474025618 6.243439145868001 8.124555142313337 0.4470999273492816 -0.09052545698508281 0.5286661182585476
P 4.660434728490702 0.894502516735935 3.903153195880206 1.0788976213926966 0.43797199690608446 0.37337534397162153
P 0.4615633058910736 5.594785337493934 3.369500013202859 1.4207286148991338 -0.5932571147660556 1.826040659678352
Ni 1.3515865625854002 1.0084366087600634 2.3984002452310067 -0.8060259286647925 -0.04256821237951379 0.7923957394758675
Ni 1.9823378414552462 6.582235901029699 4.7992165157203335 -0.11717057037643691 0.09688868019894926 -0.9540111704292409
Ni 6.273494354974885 5.646579332427373 9.000336184046455 -1.440483686038874 0.4378917784874523 0.8158915086049625
Ni 8.761701088636794 2.7398034780925578 10.384564481278051 -0.6466386157109896 -0.5813040561692376 0.35997038341962523
Ni 2.680046757270211 5.239645949015822 6.960390106692644 -2.0471627306377904 -0.1270304938896522 -0.24760597618258
Ni 0.6730253724757355 9.141263735450705 8.967205621466986 -0.5049168383577497 0.4564191478676785 0.27691295267681343
Ni 1.3017242995589524 1.3360057390351205 11.584952664362174 0.3810477729152147 -0.26631409411504453 -0.8248263492007473
Ni 4.04637071116481 6.664203004200494 1.7235156941593415 0.8542541675435612 1.064437994323941 0.8829713329725954
Ni 5.799775648731984 8.279040186805664 8.31188597763922 0.2091957518354978 -2.426776085099324 -1.0674112180196522
Ni 5.424593408073361 2.867043847365214 5.00919214634464 -0.4447735932089501 -1.0650450317803206 -1.5246739448345485
Ni 0.6569811146510558 7.43554446157816 6.6703745702225925 1.2825891555805136 -0.75160364516017 0.3131716778985316
Ni 5.004319284590528 4.35857667782277 6.8489055958332035 0.47844630287104695 0.7266505747592582 0.8870802129346465
Ni 8.150493857933917 7.253100091752214 9.15032836475135 1.2657198906290008 0.18789313370297964 -0.5686825107504851
Ni 4.608305174493608 0.6272433262800623 10.543741911163226 0.039094909118932666 -1.3616454355837324 0.5325736808430699
Ni 8.088079872093973 7.087061839389863 4.769390756459679 0.6322738623488853 0.7212183480000933 0.329022271777543
Ni 7.472319921122039 5.93863361693823 6.942909293308964 -0.20628963393229635 0.16042115353495598 -0.1271063414329101
Ni 2.4950720907210244 4.938069042428251 2.538755532394267 -1.494407432640523 -0.09614768826786667 0.2762717195483887
Ni 2.3615649292055028 5.382539695149817 11.278477502361618 0.27944600351131227 0.5652071506073749 -0.4684745363703158
Ni 1.0775980525286502 3.165428408266115 4.0078956903093355 -0.7596036326465112 0.2773706090395224 -1.462660222135913
Ni 3.557805783646119 2.342193195152303 2.655391328339017 0.19695113014018983 -0.16413794026491085 0.4742816299703961
Ni 1.0785321764085563 3.1895070383743764 8.29099334480291 0.7736297717222741 0.7127049112124436 -0.600391926038624
Ni 3.4095340233297504 2.3467640537491254 6.91879075887962 0.5624732966159797 0.6235609079559196 1.436926821925551
Ni 4.097375688840464 6.952275925766897 5.894809603224807 1.2988948347190727 0.26460919560879587 0.4505246367601144
Ni 1.0930519077845735 7.489759923268248 11.488625447099695 -1.6566296439399597 -0.3329843417490846 0.8691606523417482
P 0.4054723411100671 5.645472894433698 7.936042594933555 -0.07961266672732095 -0.40958136157853325 0.235357240722214
P 8.467461135630233 1.807475292635141 8.221704932739968 -0.1921591080681852 -1.6928127787287361 -0.58588370512012
P 1.854752843955052 3.3586560139484534 10.503164658119768 0.12101719781603673 -0.10086566256882629 -0.47437624656673144
P 3.9535659571543267 5.9444378818230845 3.8848888067370697 0.6234508647406166 0.7784930133518464 0.3226456788272379
P 6.77056615821544 4.11028110904538 10.592880454911844 0.9452606779301205 0.3695292307526539 -0.6266871122897272
P 6.522252451110287 7.876441863729988 10.274525595141494 -1.0035635274360715 0.18208989675764123 1.6865395441255149
P 2.5903617956353364 8.668061971549111 5.74366291795766 -1.2875300445255569 -1.428692864051533 -0.5289134583826632
P 6.925576307296569 3.8177824355042764 1.9149213048176685 -0.45775123641554066 1.2110857482238884 -1.771007224952292
Ni 5.161043505645464 2.724558213605934 0.849780655798136 0.9663956601365228 -0.4737872068324807 -0.9972612393671276
Ni 1.1080885815018982 0.8884425014295922 6.7220089478716964 0.5671802151733458 0.6778206977407487 1.2424557778947376
Ni 7.006618355751342 1.0832209341358523 9.743500656157318 -0.5851995345689018 -0.5649484976293496 -1.4832760986140519
Ni 2.8480439490311995 1.7571051564312685 9.34162786619225 0.07545853534963134 -0.2578268825796398 -0.28282443306524196
Ni 6.373191673536134 1.8537370976002026 2.6655061668172637 0.6924340767785495 -0.35998863825207034 1.5883195467096516
Ni 4.368960870468329 6.9532009804829205 10.451622785942266 0.19729642929475052 0.5686200329436659 -1.517065022139039
Ni 8.034354145253543 7.363508092858793 0.2112779625578454 -0.7306771794201481 -1.5846446689612257 0.6390818864096542
Ni 7.749382877734984 3.837915979323613 8.334066431746855 -0.437333334880821 0.14143355668885962 -0.7922584425670549
Ni 3.0339527394602928 8.411812746046696 12.270390094527613 1.3217365152039366 0.05354682287820456 0.6528892246063916
Ni -0.15803652906874682 5.112859037937295 10.109614639849747 1.1566632076089498 0.09345780014052937 0.02631241264228372
Ni 8.542082216056135 2.3746335943603065 5.825069546800512 1.0943905748219733 -0.041613561775728336 0.03823076134642448
Ni 3.4664067500374354 2.6468173408044224 11.930969380890796 0.12559633254628694 -1.4144237557270285 -1.6037150553291155
Ni 1.3529015913483748 3.7793019731504716 12.617654728006478 -1.0417606073310832 -1.7476253556932415 0.9143236220316319
Ni 3.1757128401089654 8.562324589842063 7.797665292413086 -0.2654864560074266 -0.5954291827167101 1.833808733659545
Ni 5.578678502438465 7.747024895125512 3.9351555544726806 -0.7920956917369456 0.4685380426183995 -1.155705728791687
Ni 2.997984435501964 8.544358576190664 3.373362570100452 -0.2329900260416181 -0.7653490197707207 0.19435251617507818
Ni 3.3666368781651275 4.375889711674623 9.172734641039662 -0.30053599141239207 0.3440431706664075 -0.37369261810172416
Ni 7.294655000662215 6.124515199875676 11.48128577276952 -0.7447457416980723 0.12301468786203974 0.22095057837858076
Ni 0.2997131934097001 0.06440376039578316 0.08080443636104837 1.3409436842600067 0.586593329592635 1.701425974319044
Ni 4.652517348421205 0.20139529467499345 1.7363639786317984 -0.21310768529539428 -0.20627343598238024 -0.2376954019370874
Ni 5.772341427987167 5.62796940814031 0.3474968040742595 0.7123110182081346 -0.6406854834513482 0.3819358319471229
Ni 8.209588529792835 8.802875092663726 11.328373321294432 -0.5264362004867643 0.18048578549531497 -0.18424319565521818
Ni 0.26858782296467126 4.9640431277879715 5.568729629659271 0.2449723952144749 0.11770844515777792 1.0401660091504539
Ni 7.894426015709153 8.677892945197833 2.780296387911908 -0.9835004381376095 0.25639837766322937 -0.0925525147174406
P 8.514285228756016 1.4853113840341037 3.7222070519276635 0.17617301705257402 1.0450415920752 -0.9324599266210264
P 1.9455805202391325 3.08865793600004 1.4779263638845153 -1.8110457289314166 0.3323554499158341 -0.1075189062192858
P 4.888306540204511 0.997254329692837 8.39367804594708 -1.2241060717429562 3.2868440311111846 -0.21053735346505678
P 8.234129687259108 1.7118409594932908 12.3994896423962 -0.07207882024412103 0.03496957409664945 0.25328477173491215
P 6.112888531778203 7.666137022456744 1.6447899101601815 1.5265392801780613 -0.919056765841243 -0.5080001052687638
P 1.7618573983057426 3.34913339187174 6.097404748281467 -0.5316509119184843 -0.413599738709307 -0.4763598526556635
P 7.041307907602226 3.8235867003891304 6.000494383781337 -0.6006292388604108 2.1327650392896427 0.6891152968179616
P 2.385353346069521 8.824876884242876 10.211317150545433 0.6745813648678447 -0.05465034035502846 -0.3074396605107608
