# total energy = -340872.5192894645 ev
CRYSTAL
PRIMVEC
9.19955089864446 0.00000000000000 0.00000000000000

0.00000000000000 9.19955089864446 0.00000000000000

0.00000000000000 0.00000000000000 13.46447264502042

PRIMCOORD
 96 1
Ni 5.631873145064051 8.240001059379098 3.1939212855675048 -1.5964383191620442 1.3866255025678376 -0.7231261065457676
Ni 5.466051237748055 2.6784768810415613 7.048638042024963 2.0233386316349993 0.13615173946463005 -0.45089436139470734
Ni 1.0990703615557298 7.720033235611697 1.3990668006893714 -1.2091723332512594 -0.3374830009503865 -0.30392547670991527
Ni 1.438579792318383 6.659720582545415 8.954937727990886 -0.16978562546899145 0.8683528117284722 1.0310859012260565
Ni 6.35995321223242 7.946388188705183 9.009442307978409 -0.7285074254623389 -0.02775814394987478 -0.8477405347947593
Ni 5.280238706043839 8.060343027313962 6.533097042213204 0.899354145205993 -0.11082200245058976 -0.9030128250045028
Ni 8.758368161267276 1.5939694087663436 9.449394276796957 -0.17638204773958654 -0.4889392319825708 -0.40705319584004096
Ni 5.519565026089644 1.2772840641091538 11.703346836097303 0.9793478494218165 -0.4207453486151528 -1.1185016089375641
Ni 0.13271272315897678 3.8262220670970937 5.524150082323003 1.1739803587311586 -0.5418419935188733 -1.6426523558242614
Ni 7.8246229312719215 8.329954269350571 1.5082360328523374 -0.22141569094045738 -0.2491704924562225 0.8772886807655214
Ni 6.652232148006983 1.1304960278742562 8.45859711113387 -0.27717134854452263 -0.8957795404808574 -0.37435467716575527
Ni 5.879377865975538 2.971270991673806 1.171380672561843 0.8628321390205591 -0.051276281676472975 -0.12593520394294438
Ni 1.6332422921134717 2.426565575186698 9.391119720797336 2.145462432251654 0.04997273237370103 0.02822762738712558
Ni 8.028144598708915 6.314111849449863 8.178038403371545 -0.23651500847574106 -0.23371430580215236 0.2401551763314896
Ni 8.527220242087154 6.132485113464303 5.085302059628056 1.369900733613989 2.036129098531448 0.5826181469949708
Ni 2.98771058936444 5.94131844306062 7.115125957184181 1.0513083989205183 0.7497696772752249 -0.06431074626292796
Ni 0.8694118496873662 9.048871583693048 5.654728509643016 -1.1431042379775926 0.6153236076477919 -1.928050206043634
Ni 6.860344391407953 2.7561670894900265 10.152723871874178 -0.6473628954715237 0.8248214641047409 0.7732633895217909
Ni 1.2967319149866028 2.8947123280020324 11.533505644936294 -1.2034233465826243 -1.3669159399540525 2.3806687492183
Ni 1.5351014817252862 5.108593482925845 11.22364820705358 1.5864431556225453 1.3662790777010019 -0.09688610909578799
Ni 6.745322404879691 6.4245524595651755 2.7241857702892873 0.4335360726219179 -1.4682749972195295 0.3327765966136527
Ni 0.7799728946184706 5.071234106192959 7.350713579691387 0.4259397483318987 0.377379322924692 -0.3163421052067133
Ni 3.7582833827404425 3.901621587339085 7.79036932296677 -0.9674873505388047 -0.476116883406922 1.0718332583467476
Ni 4.8281083715717585 7.706942274495988 11.615194898217506 0.5198680603509434 1.2833566298741577 0.49239428041070676
P 3.728311245484658 9.21353434757926 3.8888222519910274 0.33687827748685206 -2.628329747008532 0.6287005431753301
P 8.883316463356921 2.2748465795997133 4.115739297652447 0.10473260172340028 0.07071844956148465 2.2909958700414994
P 2.295895152356384 6.002955434961711 2.556687704775623 0.26236976475531587 -0.32943287695240037 1.1001269630851183
P 8.456172109482358 6.249871384607277 0.6418379560824037 0.35734734397448137 -1.073653599384938 0.6772524839421046
P 4.185924512370627 7.768763257417679 8.356092033737045 -0.6041987013792239 -1.3071683875817746 -0.49416705604041344
P 4.789415059939522 2.2771648664592767 9.059193479948723 0.3896745953522773 -0.6050780186603837 0.37558263603558545
P 4.390761715604911 2.35375112878414 13.10843198307051 -0.9359108612841043 1.9060958132597299 -0.5180430913270627
P 8.764347869436786 7.720971589816759 3.4668324065585807 -0.4984798244831544 -2.702306041385681 0.8797219727973624
Ni 8.188980349366643 7.850998044074972 12.771295116518498 0.4775618433835646 -0.16810103867771695 -1.9222580248418892
Ni 3.1768717576435805 1.059530691228731 11.761378523949732 -1.2297750971032755 -0.6223059525028959 0.4490876472032717
Ni 2.8997720810685395 8.20083857064433 6.453791392603869 0.0757459846830631 0.4044527821027163 -0.17874257755196313
Ni 1.8975453932057638 7.7893058548677 3.8304133825463675 -0.5366977303137724 0.9788063750960498 0.35076274877842817
Ni 8.20051658635828 3.9245376689548492 0.5756140680377475 0.9399418368203684 -0.46065761142905826 0.36958090992619574
Ni 3.374404517360033 3.002301077298042 1.6160602906547152 -1.4114369051845628 0.2252044685589283 -2.14047706322192
Ni -0.01165399124482128 5.5574855754353605 2.628790105928458 -0.03442218623361168 1.7307180384149417 0.07938872364197296
Ni 7.628663294781601 4.482729627251957 3.925445664641512 -0.9688428361254346 -2.5762332834236084 -0.41072190294087974
Ni 2.538257324242094 7.882202921168777 11.005469814915571 -0.8684371439121624 0.15208769396859614 -0.05522678168378875
Ni 1.8511244587083149 5.643832561403069 4.821667765895646 -0.14593915786869704 -0.9609870875264417 0.40692438357166044
Ni 7.766941746313736 8.574625528544814 6.982890690723661 0.30290834829931057 -0.49591463485913956 0.10523808060490907
Ni 0.9970657397349385 9.087224511937174 7.847916194479916 -0.09824185179273404 0.30597490303977626 0.7530509191296579
Ni 4.47136818172989 0.06926985939069372 9.78176485596032 0.13086220893091655 0.817355751855315 1.0072265781099559
Ni 5.413098622019296 7.70190092053154 0.5398287344860975 0.49398990703260076 -1.2884574414358325 0.012625659183810513
Ni 3.205224773918083 1.0185190927369303 7.994759428020994 0.29047655029386105 0.0017915446827840114 0.1458658814286004
Ni 3.9988240435222093 5.504818145788533 1.134994608327933 1.278863112879178 -1.1125137667852452 2.144270468826081
Ni 3.427311135333642 7.796959881324671 2.032515686187506 1.4715130445408529 0.42429449941899183 -0.4439269289379386
Ni 4.031666440699358 6.790023023334529 4.512079874858112 0.850383371734245 0.07633708129984274 0.35236454604790923
Ni 0.389133648928753 0.9174491453007884 0.738491199069036 -0.9345188660325839 -1.5227399610366292 -1.472123681541658
Ni 8.18748082254875 2.1435045895442086 2.221382468833686 -1.210501079365012 1.2562857417992945 -1.187580723123413
Ni 4.5721768619167795 1.6565447548724963 2.825600700889055 0.7949470451428116 -1.0888822434092342 1.856548855569538
Ni 2.310402844330716 1.4793614020344337 4.179762653090723 -1.6649890716482487 0.6692082734813893 1.0454740516269285
Ni 8.043609043990367 5.258656559327428 12.0794364416206 1.8161264858884336 -0.9905326623940424 0.6150523562642762
Ni 1.503436627079979 2.413033035621548 7.148275619365731 0.7224141680804075 0.1854115049317065 -2.419443813103969
P 8.86143993100755 3.3333101229089626 7.731839019448514 -1.367391336928574 -0.9013948297851057 1.2759030018095896
P 6.94672817557978 4.911511501209862 9.669821039206703 -0.29904809401295596 -0.3280848475649382 -0.7377428280176779
P 4.59279305577504 5.811558775782277 12.476301393234976 0.25729132179114395 -0.8123017343711753 -0.14624923290994812
P 8.158686227824807 2.590510774092571 12.260600440189348 0.49561638689243037 1.1581377352719473 -1.587492679932982
P 1.197689548597476 2.7723031019966706 0.9828873916874814 0.6463308546625837 1.7689446859963083 -0.30401135155550224
P 2.1023181995828373 4.5534281769176115 9.094376242907908 0.707549335153433 0.7539209804394371 0.5276366485527687
P 6.903922664637127 8.759104125349678 11.123189109805832 -0.5226589928325192 1.1043631126536528 -0.21158122134853885
P 5.708652597960545 4.2445716501869635 2.9139412295649665 -0.038270613445424415 1.0194290337134184 -0.4007735334789162
Ni 4.861475143157619 0.607612866385444 0.80856417926465 -1.6470733677100924 0.6198387219093261 -1.6041673123751856
Ni 1.276778088802503 3.622599204598772 3.0583879800627263 -0.3061664502252921 -0.9757521616507583 -0.20760706719213923
Ni 9.006590447159105 4.051629466434488 10.02805615609095 -0.7723107958005344 -0.04034009437994343 -1.2583336254672586
Ni 6.879369062938021 6.624293111528832 10.862100331843427 -0.5945002431445375 0.5626805275307794 -0.19395348096444662
Ni 7.35087365187931 4.462610209149317 6.510167161270895 -1.0642798714795219 -0.06756961951985782 0.6254362706017615
Ni 8.710723686482837 8.283303346077371 9.500289872915404 -0.4291839663008092 -0.02534542074332409 1.624396752048183
Ni 4.049504370146554 6.123533950312099 9.955604171998974 -0.22783573553418826 -0.37809357538289723 -0.6982866789045845
Ni 5.588313270936936 5.791650947353327 7.654203088351125 -0.019307442079360294 0.21046407702496014 0.6667307584751743
Ni 5.921695800713601 2.641651078268417 4.3908592308458285 1.2499011784291894 -0.13711796003264126 1.0309234075062632
Ni 2.236852433845757 0.772167075569504 1.9914626897160699 1.5705881908681598 0.5007436808166666 0.41075378462007966
Ni 0.22535036212100817 0.3797473470128301 3.194473258629306 0.9989031458459248 1.4480725541297255 0.03623815639642791
Ni 5.852055199416397 3.9880421697150332 12.217810568483447 -0.44083260628333115 -0.4401828885144742 -0.49751797479051735
Ni 2.894969915430873 4.04001043348358 12.916967247213453 1.2227089342851134 -1.0223847739076328 -1.1075353397340475
Ni 2.692313005790702 6.658441844952242 13.222462257997735 -0.02554211013516246 2.450098304765032 -2.276816236107008
Ni 4.197488348015354 1.3073297977731786 5.7208254438834585 -1.0025106606915248 -0.6084284231898553 -0.6593707185656773
Ni 6.349962499813826 5.546786497587454 0.5445462642542884 0.31736874669901466 -0.6442145796505292 -0.3239543703363324
Ni 7.373191762678123 0.8832295753344466 13.173585963330375 -0.38233769537123186 -0.4704918239106607 0.8297165874135131
Ni 0.6425490813770237 0.406642234449075 11.839257323194314 -0.22034765468725923 -0.006189673750479663 -0.1090422848423477
Ni 3.5880732895831304 4.320734733164446 3.3884559116032764 0.746172961062902 1.130674496854672 1.5540379998189624
Ni 8.44438748461291 1.6971975708741267 6.375926392685833 -1.0714203391790451 -0.6650693116123514 -0.6541992016670669
Ni 1.453437067231855 5.13223632907298 0.7919185116309433 -2.209865481118072 -1.2411609703427142 0.5539130657507944
Ni 3.7537664031847062 3.2606520688739145 10.675940057110276 -0.12731485789929042 0.3241479744043772 -0.1374311203976859
Ni 4.940030109402905 4.485967869214521 5.674831368553802 -0.6902159860813081 1.10498891916311 -0.777294622168371
Ni 7.242567337602959 9.241592978220803 4.417733879269808 1.589115560248386 0.7378335879592712 -0.1335731801041764
P 2.6555607994257975 8.953665430083436 13.67344172863596 -0.299224214579504 -0.7968625169979695 -1.7714769654998586
P 1.5280270269832057 0.2681595528840736 9.879974662981232 0.4543802630607788 0.36563812322836386 -0.1079020005903174
P 2.3795282707702388 3.4207426558982124 5.040546243867039 0.6429513966673895 0.6779734212685292 1.7015856398253597
P 6.428020690303492 6.448195305712312 5.333964084059119 -1.9278036372504672 -0.7490433406321616 0.39100642678982334
P 0.4312951912993055 7.202356100050769 6.742442945407297 0.7620904036241068 0.0657240816706868 0.5584973426873672
P 6.282575788518976 0.8325216500570115 6.10042927790022 -0.07571590277607605 0.6480200694395485 0.97092517257576
P 6.549859544144993 0.7525416733571758 2.0568061807271536 -0.04515577060103191 0.5642453009147379 0.6398323914224335
P 0.45412663704559336 6.909506792112346 11.234702387571245 -0.7035458704209948 0.7973178593678333 -0.40187602251447563
