# total energy = -340877.5157010462 ev
CRYSTAL
PRIMVEC
9.19903756380349 0.00000000000000 0.00000000000000

0.00000000000000 9.19903756380349 0.00000000000000

0.00000000000000 0.00000000000000 13.46372132759126

PRIMCOORD
 96 1
Ni 4.555575060833533 0.9198117824348726 0.3256781322075509 1.7429539183595013 -1.7856044060401766 -0.6731937404916986
Ni 4.833505587713269 2.1461906961971238 3.710170614966344 1.4469564382474112 0.40886993733380556 -1.0574366233054435
Ni 2.342323379598403 8.092908635541292 7.779997847796601 -1.373875659101337 -0.03799833362064424 -1.4967507360617192
Ni 7.751946302148467 6.334935729546355 3.773005562072051 0.1717972565823815 -0.8586276140209085 0.7716309961246905
Ni 8.945503049296782 1.5673136500418916 9.237674606483422 -0.7741288228458797 -1.0548709194607961 1.1453413548382274
Ni 0.44868306518912804 6.8076282832058785 8.60564736014265 -0.243093175913891 -1.6655806824856605 -1.7320195308351847
Ni 4.055552166083759 6.64690269602014 8.216007398707697 0.6242365938667055 -0.9223670611613987 0.8750947584379961
Ni 6.518815294693775 0.6938015443964274 6.304482315147408 -0.8574400214707104 0.0574754685086494 0.36848793397233315
Ni 2.233112403690144 3.6692661738044787 0.49124149333450956 -0.6062625258867882 0.5075038823586357 0.5858754775900039
Ni 3.918302523180185 5.36405088964495 6.063710381266646 0.4153498886311943 1.0799335188563788 -1.1817864850391389
Ni 6.8121450107303865 3.294037424874401 9.426261319236323 0.8697779742107731 -0.17901074361168526 -1.8725735131325685
Ni 4.0662966421502045 0.5725076324322809 7.290753465552867 0.7544151464670362 0.7653559617492561 -0.17026693598078418
Ni 3.8712678432762995 2.7680640446935962 12.64091288832458 0.049472652808830925 0.1731180322763341 0.18051946694672782
Ni 1.793278812795469 8.491548935489439 4.493234102053826 0.6204660710806799 0.25884092566645095 -0.3553315990960332
Ni 1.1408094648152645 9.088290512912684 11.003630437418824 1.0143647318166338 -0.11921768271345275 0.15462357301657242
Ni 8.496120857240316 8.250138588390346 9.805937802907946 -1.4694898434632369 1.7233119757588578 0.4267807561759553
Ni 4.006318916162852 8.775017283081505 9.554624691694531 -1.1314892794464837 0.5708903170350813 0.11114287612511826
Ni 3.109182761727799 8.038827492737665 12.87131750668575 0.08024695787721017 0.0727341944399328 0.2135619992239935
Ni 2.18073308286622 3.120819544453872 4.160585858959677 0.8371789572288292 -0.4944766168610323 -0.08478186963308625
Ni 3.059406768580933 1.4993695573819859 1.8969574874140356 -1.208945561952434 0.519955220748111 2.1552141123217785
Ni 0.5893262331106054 0.8092973028805389 3.0084413398558216 0.7591228363553507 0.8576158849269424 2.1030957943599846
Ni 5.5346470443129645 3.3667098229265613 5.671835053663759 -0.18310085452065886 -0.3380388734538566 0.72171534224117
Ni 7.549549074054338 8.836945205067218 3.261114988749227 -1.8083710103127308 1.100164758301589 -0.18058940095271478
Ni 7.804932759462448 9.041467410876546 12.536623397600867 -0.36058487707517256 0.1816561516543323 -0.4242325358328049
P 4.712795814644858 2.8507449957939524 1.6592423937703287 0.8605058048802278 1.1512878022296493 -1.359469510978336
P 4.030245613293696 7.545013948454374 1.4057739480172131 0.9839838055319311 1.7064835913476097 0.5398565876577283
P 2.2331308017656 7.326205637053274 9.81432640541222 0.5127075380467623 0.10429988506135586 0.1303143068472465
P 0.13230699993225364 0.19123787542614584 7.598843957528023 0.7436517373029451 -0.18167954869310002 -0.10853012109261953
P 5.505808061035304 8.016639413737437 7.410297720541125 0.0578271954211133 0.41482538358629206 -0.6447977058475088
P 2.0913736303752475 6.596740343288693 5.872296804219893 1.7873771816698831 -0.7019520435713137 -0.16118451406354173
P 7.3878851850203295 5.405694933440157 1.5424173743345035 1.5371854470379978 -0.3412604657149478 1.9733885249691174
P 0.6901348079579982 4.185792142238503 11.833372601650114 1.1095551983775536 0.48130691224829375 1.7454221773943357
Ni 6.073370290784946 7.698573485249907 9.486147974750168 0.5060841191929736 -1.3889109561679047 -0.3063317721585628
Ni 5.536597240311327 3.270837451724079 11.257085084615348 -0.2783129183481336 -0.1590450991230358 0.5400825876256053
Ni 7.671933071989266 2.850331039096187 6.864626440873093 -0.7543719519339266 -1.6661496676152532 -0.5183580514643201
Ni 3.194025486694264 3.154717998482001 6.4628557083860665 -0.4561029021788403 -1.0518550154526078 0.029848965040632468
Ni 0.9744540665399146 5.525779171943055 4.122430090270975 -0.3350404529471649 1.3949463637287074 0.3613852614892808
Ni 5.585241751817633 -0.03511364691201273 11.419753508569265 0.18484611934653972 1.3204311661289516 -0.08959034676532313
Ni 5.87154340302996 7.816339566245318 5.203647268779695 2.4481969739772613 -1.4862925168428724 -0.49570123329675264
Ni 7.823257242616865 3.939865067614902 11.692744152189 -1.1645575227553622 0.2526512519159713 0.03831329375790176
Ni 1.9071353027564293 0.9275205760510385 13.169849278557614 0.6776314645480782 0.5038290046102097 0.2124029459188858
Ni 6.770142204463784 4.0250297589018516 3.45238138119233 -0.23370839226488138 1.8436563158775863 1.1829673927211175
Ni 2.124324583517379 5.171588622297191 7.661449848594299 -0.32634806737948957 -0.14898360112197567 0.2394812901929166
Ni 9.174135932991513 1.8073901366704075 12.13322351553219 -0.6300202904280182 0.5723450472037369 -0.22547314883928266
Ni 3.762351236575341 8.087343217715778 5.6799541243626 -0.9832392140564228 -0.11788713682748729 0.6341039735790885
Ni 4.505127537932514 7.051182006095625 11.132330494657882 -1.2757019415423771 -0.042925081498300266 0.35430212939025435
Ni 7.486425277163967 5.839300775792894 9.862028015551395 0.7719387571730963 -0.9609618907154612 -0.6994876411912211
Ni 2.0207894138873708 1.0284984131926287 8.542744340157753 0.06987538483489901 0.8638988897221768 1.7277743824055856
Ni 4.6039803973589075 8.739637783979148 3.3508378032304607 -0.12165200318655824 0.7464946060683789 -0.7704467460086021
Ni 3.2681789298206514 6.75924134475596 3.4923006054135137 -0.3154599597120761 -0.4529674418736521 0.0024353489143699994
Ni 7.951317046830046 7.467990405556812 1.3504923307900667 0.13970474692321103 -0.014846063873897013 -0.02855390037829276
Ni 2.2959878265618547 5.101528750959818 10.302534056103996 0.9156580245723392 0.040637828126020334 -0.8265073364475959
Ni 7.132501499612219 2.275308389749038 2.2149167070639195 -0.8686932257870263 -2.310487145996892 -0.32307068217979845
Ni 2.1732542651932576 5.687617842693897 12.577836006526626 0.11790847698372599 -0.11866823796788595 1.2872035144240734
Ni 6.411913277255275 5.667297168352477 7.441412545752724 0.16736390340137627 0.6268732601586042 -0.38741845232824895
Ni 8.65491464650315 0.29971752783501915 5.29363869516259 0.5548656594720508 1.1036822845365444 0.3571503974723268
P 2.3699664879714084 4.8457219098162145 2.762620974069866 0.6452913576544758 -0.7009742530390766 -1.5282675757230777
P 0.9910399315637177 7.39718541216346 0.08400837224452433 -0.9260735634787084 0.023003402873708768 -0.5705915548477398
P 4.353417007720334 5.210463755736233 12.27056698862059 0.024518296856338422 -0.6903676811678239 0.029573342781742614
P 0.26411633192341594 2.583365765188372 4.9857377033646335 -0.12671296264923337 -0.2573995652342341 1.487300903502729
P 3.495790720327563 0.7325405320770928 11.472746405209655 -0.43589300288986865 0.46570777225845605 0.5251107968071215
P 6.010209697743664 5.406936803533453 5.135413406431354 0.34367267470086615 1.3067827221075816 -0.5761757338037368
P 7.448387256158185 7.224979425893026 11.521068030491707 -0.6443004544961162 -0.41278547033812785 -0.6914084637275124
P 7.258923875109794 1.57432331679072 11.086109009689162 -0.08459392199199625 0.26925286502839435 -1.3268105872927343
Ni 0.5299501241906722 6.555344673512146 10.975154816131425 -0.49367854643976916 0.16559009933040514 1.1227146185776473
Ni 8.920785234921318 0.42415935050972886 1.0001782556428336 0.642466486611171 0.649850694890384 -1.1906889297350913
Ni 4.168516349385091 2.061209985664737 9.428442411081662 0.31952024582437877 0.0831222225424762 0.40906277007090197
Ni 5.696034962215129 6.558913900150657 2.6976454108848253 -0.25526914915479265 0.09600653470431209 -0.5866066993290737
Ni 0.661550638025406 5.507031533053143 1.4037676378887098 0.09547714456340331 0.12078451297994038 0.6318192913099699
Ni 8.41774505579672 5.910657711449932 12.962345664620603 0.054483218649544876 0.00801824231878619 0.28692354283528004
Ni 6.608588703882514 0.7100157682960143 9.034264564335425 -0.001834482105577486 0.6054400299854927 0.4348023409288512
Ni 0.793876036033116 2.8390806159546944 7.538862551925578 0.41770219091345484 1.626242289897354 -0.5291114333260823
Ni 4.393368428573566 4.5529809321942025 3.633589545783505 -0.3016698479065192 -0.11417009298721628 -0.19449341262831665
Ni 1.9950689043995429 2.433301862729525 11.014791629894354 0.28913417733335367 -0.0423488972798561 -0.5866406378908026
Ni 8.467935005641351 3.318148102759808 0.6141783534368986 1.3365596962596982 1.756789538691013 -0.050129826776855596
Ni 9.253312050717456 3.8098550674033604 9.86672688402292 0.8699692642859727 0.6804499078334797 -2.0625662096770543
Ni 6.146787810893084 4.657675180577955 0.15061492481876113 -1.2320137566258074 -1.0453686363973156 -1.5421214508870345
Ni 1.8284191369168932 1.0866823268229973 6.210033954985239 -0.3977522301540892 -0.21145369463173908 -1.473790784831436
Ni 4.626573234019174 4.217905982947375 7.997060181836903 -0.09250134976453102 -1.4632957988373831 1.1455758394465367
Ni 5.207759238644165 5.169123280186055 10.14025567134975 -0.10038306650545292 -0.0622932016122669 -1.2886032229850775
Ni 3.9264344725318447 5.516322561158546 1.0767124097332592 -0.08700458831601791 -1.6445631996937289 0.025436437795233607
Ni 7.723640863059037 8.001930152410171 7.289380049220059 -1.2764606740852726 -0.18276455422716265 1.1523910625961573
Ni 6.694562910489537 2.3191142074103523 13.031280493643827 -1.1853384640564553 -2.152476144565325 1.3710484740651872
Ni 2.0806107562333453 8.449104575411887 1.6536410996976751 -0.6275363476638999 -0.19223726960428827 0.8472293994862957
Ni 0.19395711097857857 7.2974034499265255 6.008050683588873 -0.3915201332014483 -0.4766994953832693 -0.6701397841567233
Ni 5.751229188583857 7.51550343542256 13.162376900211061 0.2447836762424365 -0.3481587354966778 0.9881140256502209
Ni -0.11339561817078139 3.4062380880442995 3.039354706141174 0.9228100622360882 0.3617573001167189 -0.04723964971325413
Ni 8.811270690768032 4.713678922266758 5.901890108591259 0.03907819694838431 0.05777063115156502 -0.6877186735807511
P 3.3349271475759017 1.0602810885432885 4.442933763756457 -2.550823327990936 -1.4053786148056246 1.3180498103809686
P 5.663589956148044 2.1521332745694903 7.707549906265007 -0.9602062434963591 1.5154082032619063 0.30312149275138117
P 8.28091856862864 4.541270557166304 7.927735313614006 0.5564764556025965 1.1972688969454541 1.9460623263503385
P 2.4504672671301995 3.365633535512371 9.048900233360866 0.03867659063459145 -0.6439194170076136 -1.4917373420075275
P 9.348522091203515 7.714690199349575 3.48179898394309 -0.11432333073562892 0.14722496655965614 -0.2927902860287022
P 6.742094338430742 0.38128723517781843 1.1342947062962088 -0.39902235511576445 -1.0053463303681072 -0.4770823326439848
P 1.0022075633656573 2.202157641735015 1.378738896038037 -0.7159776684264444 -0.47655448516497284 0.006153935416537789
P 6.883244373331038 1.9506559502481722 4.569681785189607 0.7870542726582961 -0.4123262713135221 -1.1614086927137353
