# total energy = -340870.4299964181 ev
CRYSTAL
PRIMVEC
9.24147759277337 0.00000000000000 0.00000000000000
0.00000000000000 9.24147759277337 0.00000000000000
0.00000000000000 0.00000000000000 13.52583659989787
PRIMCOORD
 96 1
Ni 2.3419660474517245 8.006317274338592 12.214507336652662 -1.0221220071645494 -1.6943747238992173 -0.7758833436431412
Ni 7.569943936922602 4.988475752355038 4.74663552137092 -0.049510705135617956 0.42910683320597065 -0.07442058100342022
Ni 8.80591765285664 4.358354834115094 6.718120891842278 -0.527885017118149 0.735489513207127 1.5845811627131419
Ni 3.8901815717949657 3.4187183433993162 1.9920171615668303 2.011921133826677 0.20754613204721675 -0.4727022012984181
Ni 0.38293449238310223 8.380476983607345 6.381002873651921 1.7407242576980342 3.821521645671135 0.42962362494138917
Ni 0.0815033646344236 1.250778563273891 1.7949195450620432 2.436800044994229 0.32976634903241914 0.6423279041507777
Ni 5.149674848577896 6.7527570262648915 12.513982043563736 -1.133967051563015 -0.1969318468664802 -0.45175388118152526
Ni 6.721872007657037 5.575346554770698 0.030867459800147205 0.5498260401656144 -0.9482220745512894 1.627597518373668
Ni 8.711737753205943 7.282894396833271 4.105957138960535 -0.06173604355721626 0.008774660868836501 -0.21262688900423382
Ni 7.406342056487284 9.137307803143603 6.887586489903773 -1.1017809537487735 0.455408447214977 -0.6018119463146022
Ni 0.6367147126075993 2.5766348917094226 11.21313500218882 2.12854868721545 0.703854402800349 -0.5076167537874161
Ni 1.890002337087963 3.9947950998143864 7.02742945521673 1.207999395989081 -0.15677867168636225 -0.9215129406912195
Ni 1.8252010951734599 0.9744676203187096 12.89400454631089 -0.6588852942888265 0.8383770913019883 -0.2367664623649148
Ni 2.383340143294741 7.0679930734619285 9.883910155116972 -0.6156745632293074 -0.7023917022118935 -0.2673204238923719
Ni 4.242734706107057 8.513397157945095 8.432101726559825 -0.4975886801274528 1.2629394996703862 -1.2377892256570038
Ni 6.1007800131693 4.908370623302711 9.392679405834967 1.741839345139084 2.3767516735520813 -0.39238299542237587
Ni 6.368293069315781 6.793086835123261 3.4915328706623745 -0.8810224367763408 0.0713933641413222 1.26106773656897
Ni 7.536471304547483 0.6240086048625549 0.7284419240660408 -1.1030870741547067 2.053972297360456 -0.08870125929215046
Ni 7.6239788572697345 1.9487688940380952 3.306621066705856 0.08079228885771893 0.8912451429456135 0.07995256656524295
Ni 8.554965324820655 8.569705481816325 8.889856146875616 1.1265841288353824 -0.6772684247817046 0.6228667101023725
Ni 7.005271164038976 8.693458110235763 10.861017141478293 0.5691301398108651 0.029068121010549938 -1.2706705497660566
Ni 6.2550757255202045 7.3311626350705 8.684019789019665 -0.5890117092261404 1.0685820983993015 0.6049180960437518
Ni 1.2463888613472809 6.591326893098528 2.394600883921213 0.84587031435524 1.1867320019698724 -0.2169399145572909
Ni 3.1925331757071507 1.7875513148597566 8.210642650584015 -1.0933274236647816 -0.49544438009094033 -0.2481906450414564
P 7.303872551303597 6.844506417269909 1.7156979012816829 1.058080170426713 -0.06890839293593938 -0.8277574068046131
P 5.294045213835791 8.555843265205977 6.359050667427775 -0.9450228508877015 -0.0010850055340626476 -0.05063324877583538
P 4.0361507127019225 5.817528720431205 9.47605232141624 -0.09871930564978483 -0.7573765430882052 1.1943010725663818
P 0.7259827668393654 8.307977590735229 10.88079205554684 -2.571453859757094 -0.4484438429716857 -0.5181981288476882
P 8.70729260241289 4.102689352431589 9.180946061032977 0.5500587250017107 -1.1596749978520802 -0.09806547411586981
P 5.896164454522834 4.293100759791319 6.799316515267951 0.28944116705081124 0.8494102091876984 1.558190331424439
P 2.9110007978287387 2.348333425614744 10.559513006055466 0.23623655800337376 1.4355080872011536 0.37013626820903356
P 2.1919306563390664 2.209332358923922 1.2023809443482987 -2.0790652357733417 0.7249695875124095 0.12031400110142505
Ni 5.109705457351394 2.196791673630428 3.876802684470433 -0.42725769581237383 0.11387338768240389 1.6481727714218584
Ni 2.4456923936080828 0.2022173951728754 10.155495930503573 -0.12669290804457536 0.8623017204383858 -0.3647444077695009
Ni 4.26520073849356 7.019540005669895 4.964401702841734 0.5684580534445048 -2.3432939081142674 0.7739251914755059
Ni 4.242790154973498 4.034006689866189 5.338485631993017 0.33850141491257185 1.2378648160899455 0.625740946326374
Ni 4.424985888622163 6.045848669481364 7.415012410903168 -0.9427571947819763 -0.7480120711541699 -0.22820108929340702
Ni 0.09470851217744038 3.2897350385789053 0.4110433710777903 -0.4044291279536325 -2.0785921527916655 -0.11592204268131649
Ni 4.297767706050136 9.151872372062208 4.441722204809722 0.3676189011038185 1.9596716896036572 0.5603593355967704
Ni 1.6989809921973782 0.529836098394048 4.625213593637566 -1.0610752484992951 0.7980567944163869 -0.4838559039223925
Ni 4.913490401970799 3.00528235373458 11.832171692027128 0.018764939312328973 0.48197334218769894 -0.6341376550305013
Ni 8.753684820668854 0.669123650894817 12.002259241540541 -0.1390156912759864 -1.2738738871947028 0.7268824882644063
Ni 3.96060163217553 1.459968653401771 0.3681231760088332 2.6315837351694547 -1.159574210608158 0.007337157091361558
Ni 1.1295303753220538 6.169739920066908 7.772216780961918 0.15060853831990836 0.6221036066841028 0.3085542337311783
Ni 3.319261559958945 5.238004892819028 11.639591309841768 -0.11975607171542603 0.7482671245877694 -0.7606493003022061
Ni 6.709164975764219 7.990320276370252 0.05138816112233123 -0.16707773961952516 -0.14332923104967574 0.08983768688943883
Ni 7.073722789660871 2.61044945876093 8.08391888707109 -0.32494553060500814 -0.2835530837011504 -1.1662683347988816
Ni 6.289953062511838 3.0667659051403398 0.3115496217264581 0.6106837948829353 0.079212860185741 -0.946585053168499
Ni 0.12409363894805445 5.9594870599989 10.374681602955286 0.7563265045571361 0.6205591450151183 -0.614706028668451
Ni 0.5397540523048644 8.397139367972981 0.4699115842830649 -0.662059321141434 -0.6895325868610382 0.15342183939898738
Ni 6.984172870358028 2.978491309765649 10.26899144277913 -0.15196890900254473 -1.1392247004175282 0.6953378806889058
Ni 6.936939677627706 9.008694157432801 4.2459091537108264 -0.3366515061880267 0.6823345264507023 0.7091737581307336
Ni 6.899798178589715 2.873461915247918 5.660359832650861 0.6007194845813718 -0.9474098630626394 -1.3048147997479334
Ni 3.0161595730348325 0.8524588587488514 2.721059781685986 0.5011386022622402 -0.7998321411492548 -1.0006957189699734
Ni 1.9649599630389807 7.365411551575798 4.58026766664795 -0.9387439598575252 0.5767920272314969 -0.8120662213216013
Ni 0.9132326646641618 4.701740422508875 12.297636277221596 0.24079486679801754 1.4165310318780184 -0.1196506564858133
P 0.6794380642006894 8.626143186375918 2.735492197472906 -0.22829699144132296 0.7756776553902384 0.6341816208945593
P 8.729093248402096 6.71359164360179 6.247434871724582 -3.1325428744310373 -4.871429307589384 0.07561434420120526
P 9.130275038583287 3.999452804595463 2.7881750896266433 1.2334075516495404 -0.6110036401161992 0.5517399693588756
P 4.7413863620144685 4.781725412350578 13.434875893274548 -1.1845411649661406 -1.4483702878758025 -0.4278765603432954
P 8.456497379498488 1.1203628294037442 5.287885768921928 -1.0979620942233155 -2.457398952191503 0.17303832807833425
P 7.989608682584254 2.7177152908917965 12.089284389124753 -0.8824242022198737 -0.892969838946204 2.357463771856746
P 2.5473116828396685 6.037087748583624 6.129963675725177 0.49209783221621056 -1.0864124417125032 -0.09877432725743633
P 3.0066500924401343 2.3351365954016936 5.344274493649499 -0.9234770063961256 -1.481438531184681 0.6662296504690397
Ni 2.978029235878637 8.350072521841982 0.9984991590344077 -1.3237818277687394 -0.7166353566151012 0.39977465990075667
Ni 6.349708457580175 6.676607249685384 6.3231937337956765 2.4936877593202085 -0.3564793395472312 -0.7985211356473151
Ni 0.7873166063057336 1.7845848005051426 6.7645824211812915 1.0729468031259006 -1.2043106342835839 1.432475471022417
Ni 7.136241386573538 4.411678160676229 2.3495865699963194 -1.5562751166795972 -0.0013310601065977077 0.14938803564924596
Ni 2.6959238863803305 8.756956303788895 6.388157625718409 1.7383071636161098 0.1139680042787392 2.1821703291956487
Ni 3.089148764227181 5.253188640746229 3.4407564953664465 -0.2956660649146005 0.47843344735524057 0.12712999558199395
Ni 0.08669522682888564 2.9077755220973973 5.067103169116701 0.08661660884897987 2.5670575304616112 -3.146768531112116
Ni 0.8919236652907361 5.19978214088543 4.382817025693486 -0.34660141831188696 -0.7378518427917163 0.529374714289798
Ni 5.851768395458762 0.5845262395129639 12.32046827212661 -0.7938916072951037 1.7132741319068816 1.5026336772050572
Ni 5.255147834027158 9.03019907613432 2.131252961792254 0.5717822327217313 -0.2384165963738281 -0.1945234945353037
Ni 8.958586865125264 5.443498391850816 1.0555495735681788 -0.5693728519492904 1.5392816674453942 -0.8195969824810079
Ni 0.05091130087093529 1.5891275462992465 9.14284344831 -0.4222846680778146 1.1086972212526325 0.11469845468686053
Ni 5.185328469699708 1.5030154567157694 6.615973914231724 -1.0144968865191237 -0.3007563349533143 -0.03592756713454458
Ni 4.467931035681018 3.572533498907729 9.229855657825377 -2.0799743778511726 -1.3782894718983165 0.010567491103201156
Ni 1.8307829477285598 2.5972341455923984 3.421360481885248 -0.8450442189095188 2.6256110625257882 -0.049814609529281954
Ni 8.035122960454894 6.0186417590141215 8.460234633096638 0.6283593577858275 0.09097462870735945 -1.5163715956164399
Ni 1.944453123933407 4.614094247620519 1.4524451663734486 -0.17953884820101337 -0.7649610403036826 -0.6847809311086658
Ni 1.878182487058207 4.353946649233003 9.516629801878048 -0.28657850079103553 -0.60289926584151 0.3956300416047638
Ni 2.8532415619522915 3.3470229590906 12.957765197831844 -0.2172926699110193 -0.10169664311055389 -0.15245021951433746
Ni 8.406408570146434 6.962889747122275 12.350252630735602 1.150946616840147 0.8748638733741128 -0.33560223898790587
Ni 4.801640796880777 1.2418975031655286 10.221204685532166 0.6120318242703975 -0.8165656518538518 -1.1775873593561268
Ni 7.727788376725756 4.793471330558413 11.699538003499326 -0.038386570197998404 -0.369129424211074 -0.5737038752244765
Ni 4.585648979136087 7.794308533499941 10.58073421139036 0.0037103589720516744 0.5890399913609146 0.4959984528221974
Ni 4.6421328910843815 6.258356450117987 1.584159327866098 0.2827262169244808 -0.140484562512029 0.09712187925567789
P 4.10511986107727 8.657213034538577 12.865911378128361 3.9489532316539475 1.7870606788707288 -0.9466544729538535
P 1.4118020714196844 0.23729157564037598 8.17206687420074 0.7364053401531769 -0.8789778955424863 -0.5168989504202904
P 3.5065955552311774 7.695323065424322 2.9102596313139717 0.6274581861277968 -0.4725376506960958 1.1890336535198553
P 6.8163661175509045 6.63173063377882 10.782242785220559 -0.2868620934697253 -1.3609561228261915 0.04613124714042378
P 6.503126229545758 0.3957487254177072 8.90252990944857 -0.07254161881315248 0.8276105968141036 -0.08388686862264264
P 5.186539103283678 4.92750972370273 3.4984713721497402 0.5530003241285378 -0.7290748679300347 0.05710188721931456
P 5.8670722825965855 1.925886995153282 2.010521372446096 0.17942160589685874 -1.1001935546569954 -1.2028183660087737
P 1.775860845518364 6.342463139031834 13.470258739098574 -1.1607852001971235 -0.7378117335824003 1.2044813555334932
