# total energy = -340889.3272765075 ev
CRYSTAL
PRIMVEC
9.09262699764722 0.00000000000000 0.00000000000000

0.00000000000000 9.09262699764722 0.00000000000000

0.00000000000000 0.00000000000000 13.30797870787814

PRIMCOORD
 96 1
Ni 6.326177099272596 2.3558814887967063 11.341751115920788 1.2094523263855235 -1.3752779387655023 -0.19985519116086223
Ni 4.49602221508394 0.8851436045144636 5.945498809486471 -0.34487440831845123 -1.384028431264623 -0.11360059363699145
Ni 2.9047579219270787 1.9141525730689402 4.344669072651103 -0.20594047812299368 -1.0052396295869142 1.214301941168341
Ni 3.4976790405885287 4.696696494537055 4.714830829967109 -0.1243334066734633 -1.0171690340346482 -0.2509656366834323
Ni 3.7238035832128844 2.697937026574085 2.281892963795986 0.4203296012339729 -0.3398587002714147 0.2611130095300794
Ni 5.196454556230829 4.497086052451227 2.343109075550318 -0.30650377896005276 0.5421808649155307 1.0978186266669159
Ni 5.5505032691146265 4.502132460475535 11.719671611916331 -0.5003613577765834 -0.15574457399489305 -1.2977815470502359
Ni 6.003861654865978 7.866859108034455 12.387811488021184 -1.163589759525454 0.1725243645563932 0.17621106937936104
Ni 1.707877235340196 6.610803604470641 0.2545762819916752 1.1362604755828818 0.09741935589143869 -0.35828528240771845
Ni 2.92405247657137 1.5927100208611222 0.17113415262541806 -0.08434118255124184 -0.3418286795135919 -0.027129252116624248
Ni 7.925497460014207 -0.1673943551111876 6.913281664396838 -0.6259936857671283 0.5333203292011073 0.3170648423053507
Ni 8.883733056500207 2.2647915508011778 1.2865103486748362 -0.09496060993830098 1.5283372526187486 -0.49454912197018047
Ni 6.863996897884844 0.9250020445421336 4.848868882668975 -0.6808751682963564 -1.971924024608449 -0.4041794738366717
Ni 1.064928482535065 7.664529970454449 2.2615309347335804 -0.19146799553843155 -0.40168833198370174 0.672484630239816
Ni 7.790908394111851 3.8869525907447033 3.9338387222354143 0.13215547382104337 0.905548446942163 0.26575590761872936
Ni 7.987700121805723 3.9321338546596345 12.820161358925393 -0.11844146666906054 -0.32692245182572083 -0.23877732214735656
Ni 8.230482357223831 7.186657862120152 8.984682130028633 0.762792571897454 -0.1870978914951939 -0.44199705890507746
Ni 7.225246971408735 0.7217545516279746 0.3430293581366642 0.5003891256907254 0.6310950115494356 -1.4503204696236376
Ni 1.947786200603923 6.645782940812107 9.100514924809291 1.1674333016412604 -0.49507748366982474 -0.6912027754746096
Ni -0.08186637709488312 5.251510413144676 1.543286137154944 1.4707990491929637 -0.4773445851664359 -1.6329610966784265
Ni 6.251372056360916 2.097778176764258 6.916968724674058 0.5576259958260075 0.41605899888307707 0.5521621444979586
Ni 3.5497525158231453 4.475736564088929 0.40482739802352874 0.15944619121619638 -0.028932109653317915 -0.9805608958933113
Ni 5.864435311361943 5.595184438540661 4.611786815161566 0.40825210124414857 0.671026814747367 0.6723751012451452
Ni 5.578699505661255 3.0508400684469588 8.915600895858036 0.2775511004814446 0.4390991685319922 1.2128371836973564
P 0.43709713149788787 5.628145211672403 12.157330667767196 -0.6686045784591195 -0.811257352267061 0.7048674174458956
P 4.445203522385096 6.120892857894571 12.474154165423036 -1.2253425152532187 0.6854075089490711 0.2532598320342477
P 2.6644670663263774 8.594096513786138 0.9064530853176499 -0.4253815618355835 0.11808279777806116 0.8290717547406625
P 6.4833340655647405 7.907066704941644 5.661187818447783 -2.3119629592114697 0.2451531437667133 0.13741003735176335
P 4.932677444906185 1.0916244356150082 12.505613745825384 0.06090377746390801 0.040227994282111365 0.22058830994315556
P 4.358532601145989 6.377368589681342 8.188279837937303 -1.2125877866907118 -0.1286788281263526 -1.412776964152225
P 4.977485911111213 1.1213482335095362 3.5629850159993177 -1.0738914264273571 -0.2971174526491464 0.39939670773604763
P 0.19379025149779358 5.934712225992351 3.482072455484164 0.7574187091800504 -0.5649382132167045 1.0656667245247196
Ni 0.5451493652940409 0.15317439563512383 5.034714905894988 -0.7827484461940907 0.5373811295340423 -1.7302094742096394
Ni 1.739328632378181 6.8461753488260255 4.809476894410037 0.4021184775425849 -0.3547890963290019 -1.0895682137326654
Ni 6.334005851180576 5.616579390038314 8.931197479072623 -0.9752127442075206 0.40940138435724327 1.2212673167425805
Ni 9.099719319940593 2.5295961289848243 9.913086635620669 -0.6941621152132497 -0.25589624121583027 0.2748056765258235
Ni 2.5754229694217847 5.463204956607632 6.757604977791824 -0.6478025541121037 0.9499570549645252 1.4844950586228176
Ni 0.41188600441861045 0.06530415688537475 8.947659680384351 0.19429183814047185 0.8419367836287887 1.0790793983861997
Ni 1.3025642910310853 0.9862408878641424 11.166645303790833 1.5698659679901545 -0.45343255443552877 0.14693546034369534
Ni 4.589039790018483 7.056796962294625 1.2224537002235787 -0.56790449493388 0.27862350761001686 0.10202523009456622
Ni 5.749986414421464 8.160596425557467 8.023021340925052 -0.9035882378919987 -1.0273824842325403 -0.5690167541614524
Ni 5.279406592997968 2.9771352334108485 4.722056740700293 0.2462913711362145 0.6959857986855498 0.11965734135403261
Ni 0.8817484175662175 7.921251203172132 7.098010203755848 0.1901287079017177 -2.1763220979449875 -1.0265039382823289
Ni 4.805144257610789 4.586457483930368 6.95600064490099 2.235944694703627 1.2780403598675667 -0.7071747254228337
Ni 0.957417260049626 7.573821922795895 11.176586272967366 -0.9286148418433234 0.4841934897674693 0.05145985844218879
Ni 4.507287980024692 0.4802434654743683 10.426335428099426 0.263469682687714 -0.31664986625511915 -0.01623523091193978
Ni 8.265234377888525 7.3378591576809065 4.760290328270408 0.34625894737080365 -0.3309827379380235 -0.5208877598647094
Ni 7.187003381948844 6.175357694048815 6.820113151852919 0.738380975822309 0.305366580031816 -0.21947450805368654
Ni 2.5441443322981456 5.363422467132395 2.4509967327964888 -1.2812226142502903 -0.09665393848032386 -0.25814004294468446
Ni 2.3732665917561246 5.618561582739754 11.21219845615296 1.1396504751010372 -1.2071146793912824 0.8947878659915492
Ni 1.1344507091185956 3.4936782846773657 3.6812664552501495 0.224810061333987 0.3861411282777221 -0.3609911113746557
Ni 1.4845623144807256 1.1281404259314427 2.3809571357326287 0.539362164519813 -0.024289468674983973 0.3118786701187209
Ni 1.5324077181274085 3.6352323029159748 8.132572039662477 -1.3327410938445563 0.5764852946243556 -0.009398153385448329
Ni 3.575484650433581 2.8129678516470964 7.290510211472291 0.47365839456410036 -1.1414211938482148 -0.1998909294948041
Ni 4.157094541018925 7.10345123179503 5.7578297145327575 1.1222749599370674 0.2983086447437701 -0.43117065771353486
Ni 0.6466503612856643 9.189827254212473 0.08218370977965492 0.4187671418428594 0.2318489704586394 0.42962773870644716
P 0.5000453887092118 5.733183239594578 7.848101018387342 -0.8409769908186807 -0.07039114812905296 -1.3219766562392008
P 8.51425415547722 1.7230892004296872 7.930357469183563 -0.2683365238617121 0.2052583644543046 -0.31523550240609577
P 2.121473562910829 3.403333942101645 10.36252428057908 -1.0996497663383837 0.5411210561924487 -1.400196556384053
P 4.164768718266702 6.287769842525429 3.456760400244401 0.3973963894765672 1.5222625071795786 -0.5791533283748219
P 7.253543226853143 4.034798706916324 10.204850853069312 -0.9615789554741697 -0.5341050298859318 0.16863377125273538
P 6.688945641517314 7.712620875032044 10.298086651053556 -1.7331179061056863 0.015145340281870692 -0.9738006943513421
P 2.5503818744687314 8.676739401232869 5.487598656513242 0.6221843393233671 1.4044743578238006 -0.09262116317184693
P 7.2641088595094425 4.077624980419912 1.8179498508714866 -1.0111439108864908 -1.1750921037380988 -1.1160287219170393
Ni 5.54304731491655 2.8689784344033806 13.800507496659518 0.5187277760989131 0.694476561129875 -0.5194883084140215
Ni 1.602520965470543 1.2437713643911286 6.772763296381596 0.02602547752948421 1.3100081710234146 0.1974794918398341
Ni 6.773325220734573 0.7244650637577876 9.235032158957788 0.757153885554438 1.0338135845698646 -0.19950809223408866
Ni 2.4342872120284333 1.5998750109929327 8.997710955358418 0.6299994644924117 -1.0596606275399558 1.2519860859826761
Ni 6.805322175396808 2.0313565360118786 2.7510516076083116 -0.6980429383248946 0.6520132497593416 -1.7745270651800924
Ni 4.516362421841376 6.844247711887011 10.33232766607687 0.14091136563680248 0.8180157540368169 0.5465352852294845
Ni 8.303968969210242 7.375648115787257 -0.29846730212525624 0.6337874707799342 -0.281320851936522 1.1393792237175215
Ni 7.8973012234675775 4.001792470649228 8.022768565892482 0.5538241055814139 -0.8892386540385459 -1.085120462373957
Ni 3.326119353016196 8.50224279511666 12.125299161122092 -0.2006118668212287 -0.9750394518544498 0.6288039015224138
Ni 9.211194927828911 4.939660582496579 9.891367986599294 1.300953002799682 0.6305954462051979 0.6181551635593161
Ni 8.375946205102895 2.356327027523177 5.767146020229525 1.5409780813112106 1.0634524904822202 0.7784318210966078
Ni 3.7695213121249944 2.835944920255072 11.447616572906409 0.8044171894167759 -0.20232165042348385 0.5405839527420562
Ni 1.2037547126524264 3.184192537067683 12.393614402617784 1.5177095977015733 1.6137616409318403 0.3939251430985151
Ni 3.115006737685773 8.412289435504984 7.573543688407528 1.4299197944800988 0.04230570274674649 1.4897568212423893
Ni 5.838830473530498 7.999511444370726 3.295281708305492 -1.1128742354484575 1.2556151980948311 1.1968521211230096
Ni 3.216635030456388 8.604853091610924 3.028456748386708 1.055962609863078 -0.5025429388089345 0.9919046030409046
Ni 3.815420893578521 4.56113451753812 9.385119607702366 -0.46936593783633357 0.10500822398229012 0.010626626475910731
Ni 7.524803570257076 5.941004323925363 11.368713482973908 -0.5857914025166299 -0.3220270714066325 -0.757913646538598
Ni 8.180973002823187 8.984933995798494 2.517417464286161 0.650036585648945 0.05940199610740092 0.8844895693893348
Ni 5.1735229507582075 0.7170818505762775 1.349975067103783 -1.4285301132214239 -1.5508431470307484 0.9319554761807822
Ni 6.303518272612099 5.435890704886873 0.39791154587345895 0.4959465165383395 1.4670591225345573 0.04461223939273607
Ni 7.957021598068759 9.11135788259125 11.223683353406122 1.1388989416469935 0.6535158024467971 0.6294767592197223
Ni 0.402759734627623 4.960564532132407 5.727940430825541 -1.06886311997483 -0.2848198662287159 -0.008454558525256409
Ni 7.13385697671987 6.257373190227661 2.6667856862294377 0.9593780911681089 -1.0696262233931 -0.20201851736076817
P 8.763755842300668 1.7357279520581343 3.5943782202240495 0.5618814286682516 -0.0008093832751727995 0.8260332250246549
P 1.8925393985215881 3.303842416692674 1.3938906373304552 -0.7310877845950055 0.21987739991906002 -0.06838260233945642
P 4.578774214055521 1.1474713510840175 8.468864670402366 0.8041009437279377 0.15267750503379512 -2.5060645357180062
P 8.74934402839341 1.81908006441639 12.242063040914802 -2.104568522250769 -0.6940163336640047 0.6956554119293246
P 6.893738881033513 7.8809708652483765 1.2565592351035375 -1.604675876580488 -0.5453312376190543 -0.4728765220927533
P 2.04447719687508 3.4529160375188557 5.8676741051245696 -0.3637357639993284 -0.8254210453619525 -0.6199847605688871
P 6.887355856829794 4.225516559726885 5.970744488548617 -0.10458296351941344 -1.3860097233607098 -0.006173475800563561
P 2.4684118414252407 8.532903133599483 9.856900565161917 0.19470938529386467 1.3046643902129984 1.0194475456561796
