# total energy = -340897.02153992583 ev
CRYSTAL
PRIMVEC
9.05709504054989 0.00000000000000 0.00000000000000

0.00000000000000 9.05709504054989 0.00000000000000

0.00000000000000 0.00000000000000 13.25597409704682

PRIMCOORD
 96 1
Ni 6.518844081620637 1.883133065317679 11.327706827529163 -0.32489025188704046 0.748388480656982 0.9651576739643636
Ni 4.827639915133973 0.4693096769830083 6.0391694651905885 -1.310280193737879 -0.7910119717544635 0.3399522884264855
Ni 2.7421170063318963 1.501476141725582 4.935464630370782 0.21551243808214499 0.6003230204739016 0.1998796166408945
Ni 3.5391504179702395 4.202365251899733 5.026293706956447 -1.1791459620924982 1.159822836283854 -0.5814943178031727
Ni 5.106027842243071 4.514373115418662 2.4085043485478783 0.23322091110550155 0.4572051341040836 0.5671663312162749
Ni 7.33731563697721 6.000823536642113 2.496683319154686 -0.11521421798101447 -0.06894233149766835 -0.1757737247316263
Ni 5.057490870470366 4.659567404369632 11.444863067680584 0.5943210372541958 -0.04163798725576055 0.05281508691850259
Ni 5.641718779445619 7.8664130090649 12.22898106193735 -0.5520464448557009 0.29848733641347946 0.7113005746657491
Ni 1.8743295690379496 6.58386496618049 0.44211212659370835 0.5906011652004474 -0.018528397821490673 -0.33804710098397267
Ni 2.765547710936485 1.7245433329534174 0.34572742797307804 0.07473117026530356 0.3133827654680732 0.9115699705458946
Ni 0.673406782863217 8.949831762642589 4.673062475827241 -0.3172116522958602 -0.038816972867197666 0.2812023240807867
Ni 8.821356870947154 2.434184835535064 1.3168418271576268 -0.43974657230800396 -0.4937945031923431 0.4628186236361191
Ni 6.961056741968157 0.6259892680248471 5.020700045122743 -0.7079026047277938 -0.19515084370665747 -2.035000898464276
Ni 0.8419810566871224 7.389556960579555 2.6530105892034372 0.08096223877667992 0.1940000179316659 -0.7020304622177329
Ni 7.471007415356929 3.7674526100722354 3.9474433520654815 0.4733557757220171 -0.21867155253641696 -0.6020598006593503
Ni 7.687055358007819 4.000826775339507 12.69404024426596 0.09427052584981183 -0.28762185445388533 -0.679546936403236
Ni 7.816064618304595 8.875953039233378 7.016891015132404 0.10445749368514269 0.1064318438026941 0.9217605379256512
Ni 6.8732391494493745 0.7110036896603208 0.449249117404847 -0.8300035225263124 0.05451072945337064 -1.548475161019204
Ni 1.908882386226394 6.549239692232542 9.208169092977958 -0.20908108063450445 0.029621165300542537 0.06720683686380038
Ni 0.25407596716704306 5.008021017919045 1.2823352011533664 -0.6202686103578932 -0.524596061954232 0.47008019029453885
Ni 6.320176704155755 2.085377995283068 7.061960930962846 0.08924839004487212 -0.359078210622659 0.523966141679717
Ni 3.489037511678323 4.290101330564074 0.3744040019657523 -0.13364928475775045 0.2288227820378059 0.20625852358404478
Ni 6.058535345587007 5.603769551655428 4.665983450423707 -0.8483131194687779 0.08573549179560719 0.7600108953872589
Ni 5.435434385137886 2.9799653764985368 9.215142150370719 -0.7462056140730504 -0.7789712385398456 0.04683444385503547
P 0.1616519361627972 5.700535553972947 12.409221779750887 0.28575214823499817 -0.8259648336805647 0.22430638222469113
P 3.9244030082527206 6.2810953394983144 12.551922650465425 0.23179240618909114 0.004471405507792299 1.6232595531199463
P 2.4861725604791456 8.692963493106163 1.6630012785592472 0.03900569183923605 -1.0413062934024842 -0.7247209618367131
P 6.338997347436905 7.702289391693524 5.805387730651107 -0.11088473736772515 -0.4257859963628538 -0.23902389094052381
P 4.761351037282799 1.1202992441651982 12.576406695211304 0.29305870919874044 -0.1590247874080616 0.7598255188493301
P 3.988409498179519 6.281466680390771 8.189050279203059 -0.7798739528597731 -0.4907035229718452 0.026201083875400037
P 4.838580885819068 1.0510577533642398 3.8275563977902523 -0.4006339225772584 -0.7329261233553248 -0.35407664364300956
P 0.11968769818659311 5.5967684172683585 3.699199248329012 0.6774756556965043 -1.560249785056629 -0.8348048005696979
Ni 1.4790507746591106 1.1733738205018387 2.7706042870403667 -0.09695475755019431 0.6362552155941366 -0.6332624515143997
Ni 1.7968914073181075 6.520420016139847 4.827388127894697 0.8343628279362727 -0.7353671286966497 -0.11026895816059719
Ni 5.986794096583162 5.679305723438291 9.17500291702452 -0.1616146596224249 0.30705810880162604 0.059530037044832965
Ni 8.758029663140706 2.1603073417050864 10.271497398564192 0.32167303050132345 1.2356770644100075 0.17419840982470644
Ni 2.316062203353756 5.093293566760252 7.075456002420456 -0.12468101982086914 0.6796901468493197 -0.2608260744172799
Ni 0.5257525869270884 -0.03679716531407895 9.226436347758398 0.30421009782986963 0.22130719038705113 -0.03393599062581252
Ni 1.4541347064846912 0.9684389333398654 11.575792432104215 -0.23109589434269875 1.2548628933098387 -0.40986906802228124
Ni 4.136982083542359 6.748215010925316 1.6184222572744444 -0.006794911434646362 0.6710018750467024 -0.21297553059290417
Ni 5.4861994022653375 7.897632815316162 7.883300868286281 0.7707449939753113 0.3177302438034915 0.8108048381106746
Ni 5.2764733118811655 2.800417526447759 5.005866335033297 0.397701836532128 -0.19520123732861866 -0.5136025390572059
Ni 0.5547189879577784 7.445076952549454 6.774173550727099 0.5481658788543721 -0.5719930631809569 0.3616508564458417
Ni 4.963460110824119 4.6384462589742315 7.141907907980513 0.3031554313131102 -0.5358664926617287 -0.579097535436222
Ni 8.214667366525678 7.2112952180099725 9.123888296032462 -0.6366624783348842 -0.5325088890434054 0.17712663921509494
Ni 4.548300993056385 0.27053633150735196 10.50488243234539 -0.22419582478875583 0.19457594503979395 -0.7294067973481567
Ni 8.134675104033322 7.195671729241934 4.55697950142597 -0.7115993368530906 0.8554975530323589 0.9442954858033739
Ni 7.209683055111009 6.034851042324154 7.038856281776026 -0.23868193422007278 0.5580733677760711 -0.12429381168477947
Ni 2.3447822514021324 5.1182639775043 2.6406032748478805 0.18136304589394572 0.6642103060461657 0.589842689767868
Ni 2.5162330585783446 5.14615077281838 11.380850237787332 -1.4173067337017784 0.028847006138679347 0.22826151021769722
Ni 0.8579786034760999 3.338662564422821 3.8773459657928826 0.5377007176569901 0.2912741064944919 -0.13153120997348314
Ni 3.7251378625219314 2.6660826943274434 2.7250833278820124 -0.5385676936429756 -0.3119000102749596 -0.035767901628228724
Ni 1.036312802805187 3.4623553099909947 8.367992209602484 -0.19944587153758556 -0.6001751820421276 -1.0223040412683684
Ni 3.4721098012392138 2.743937482414433 7.345811192029048 -0.0007407348207664662 -0.3418824155696628 -0.8230476600337696
Ni 4.158827796532799 6.84419304598323 5.914829137334349 -0.0024551464087119003 0.29635769166498643 0.11710732123866928
Ni 0.893841076592578 7.4917753340497475 11.528177472596198 -0.1957825637533854 -0.15986733791401497 -0.3017878615416222
P 0.22421200802799793 5.664977399246386 7.994160616036813 0.04966317155308221 -0.8262638529782221 0.6096404412200855
P 8.600970579820965 1.600651331296608 8.115532933881873 -0.338635626497591 0.7099432893069063 -0.7622120168036357
P 1.8349130918678032 3.266323547153069 10.357648485614382 0.12975277791682172 -0.4288042143638873 1.0507520121964162
P 3.9590011109158545 6.205251226487559 3.7779262346585307 0.1980263654822396 -1.3151431782571348 0.08080154482909956
P 6.90805462239102 3.9777492974375006 10.38182730626085 0.878869652099396 0.23440361855969305 1.0049233838980758
P 6.292534450405 7.799055394011043 10.088922667385136 0.08759928447722332 -0.11655504827962507 0.13855880624422587
P 2.435443771731445 8.359662399388013 5.865277770928588 -0.20984829781783215 0.49327308347123433 -0.09658837534971107
P 7.11576098060402 3.9096218293139153 1.668887484559449 -0.36839100338315267 0.6254815220174001 -0.6725679339822418
Ni 5.639146564483229 3.044207350893723 0.21845441277591562 -1.0249571626204994 -0.4597800939201113 0.19183874861428898
Ni 1.35119176541946 0.8108210272624505 6.984718402493664 -0.5073290473436682 1.7245242508994043 0.1905881640366395
Ni 6.887630873305846 0.857197881892445 9.223202059156039 -0.9053129338925892 -1.0983539303450955 -0.5980715054355635
Ni 2.5939701044311407 1.476098161709325 9.240646929716108 0.2016955868037107 -0.172499939076361 0.4752077413290913
Ni 6.364547412256983 1.9464059305545 2.481663938619012 0.40259747406153246 0.046422810238913606 0.7036026918008592
Ni 4.090238416567376 6.798771714869194 10.459082514662946 0.23873772715867275 1.1017845532931991 -0.8569335141479371
Ni 7.9704790299024415 7.361516194651529 -0.052706858282157876 0.7552798084601766 0.07569224862699221 1.0153180968688384
Ni 7.588876448879972 3.827718519789643 8.254177131773686 0.9187734302728692 0.025332565227517662 -0.15452972775118548
Ni 3.009011479964681 8.55143732760508 12.651408498392826 1.5006408151447448 -0.8876911070457679 -0.20907233888375606
Ni 0.07952763352203727 4.838861655762146 10.290135088527594 -0.0704525974946077 -0.14319604790592114 -0.03522385619930063
Ni 8.457352225389206 2.2844891703999117 5.787651221634036 1.207377703244682 0.7770480533752038 1.1452050863706793
Ni 3.7352999230423594 2.739218735951739 11.463315992907253 -0.45566581464142175 -0.4753504375545427 -0.42460534579119136
Ni 0.977333000568975 3.497406267401029 12.543862741680105 0.7332567672218663 -0.53469355539955 -0.26730319750119125
Ni 3.081450125278751 8.377794703453874 7.890008552797359 0.22247987053891363 -0.0037370984449290484 0.9369555004985347
Ni 5.773481396603545 7.727966255842734 3.535248621470952 -0.6692111016948668 1.0108736879442397 -0.2883600181714905
Ni 3.2107039271388524 8.398417708627685 3.8399374465704894 0.7835935678032053 -0.060653352015998765 -0.9688240670723574
Ni 3.5755599396209727 4.366724353739496 9.302578439192612 -0.7188300502735748 0.4139686920129515 -0.15152102283184873
Ni 7.21396706101668 6.090905402895395 11.299007610799142 0.1380805810562267 -0.09772120340257365 -0.2240112195817755
Ni 0.7227009277727391 -0.06549457062511055 0.45307755143513684 -0.687106751028365 0.19381875515879524 0.23966820939274205
Ni 4.598658440911628 0.24520635409426628 1.5451295279077217 0.15114178511555906 0.07698962728217708 0.08864752323607959
Ni 6.033700791267029 5.663329007967671 0.30100892742623025 -0.44382588458370015 0.0553098283158983 0.0027960746878984105
Ni 7.9442949684367035 8.86019369404127 11.25743735645274 0.0032447321895427987 -0.22274983637084864 -0.23214413310155504
Ni -0.04536336570643296 4.931923306250027 5.875723318520575 0.4980195970172842 -0.9042058168713395 -0.2835569403558923
Ni 7.919351728977469 8.886160385228496 2.3032255826981385 0.7825044485040846 -0.38097886735049225 1.1775752751712687
P 8.495038797426197 1.4633457720366303 3.736063436145632 0.09531542217455843 0.7824237158648202 -1.1592276259020164
P 1.806745526610644 3.320285718793633 1.6464584946550025 0.3081976217227079 -0.8933938138575 -0.5782500998342621
P 4.625132329415382 1.0342840135390765 8.301672537628523 0.4779739912203187 0.41917337614234257 -0.33540503537543526
P 8.550359533307459 1.5031698184789866 12.516979472485154 0.08115764261693764 0.6341718507025464 -0.07259226954542981
P 6.290985687170603 7.663787681112115 1.2616216250301757 -0.3021208194010087 0.3084308207794365 0.8207403520568316
P 1.6747293107944545 3.1815491385334527 6.021168489001328 0.3534629213184106 -0.19193002277651464 -0.08789701822330023
P 6.813643464757379 4.015064528582032 6.076233814805339 0.41115410538229197 0.20707202062427563 0.016524222907268318
P 2.3502436796497426 8.50066325338269 10.29404594212182 1.228178442040117 -0.15851442343054636 -0.27780615391504415
