# total energy = -340863.7633691427 ev
CRYSTAL
PRIMVEC
9.34990112113029 0.00000000000000 0.00000000000000

0.00000000000000 9.34990112113029 0.00000000000000

0.00000000000000 0.00000000000000 13.68452539326576

PRIMCOORD
 96 1
Ni 1.0686656184183796 8.568585743115447 9.445825231318244 -2.4488634039166666 0.5997244676579543 0.3208952717950344
Ni 4.130898398073976 2.7693190855620413 9.681021052422494 1.5814472450698507 1.967525895540753 -2.5809209187072644
Ni 2.336278427302881 5.228997504394759 9.42157626344185 0.5753439819310606 -0.7243391530172623 0.17195589364743288
Ni 9.123137712931037 6.530718751610889 11.389725719195367 -0.6242198816961572 0.6697875430236271 0.4796518931433739
Ni 6.564556042817625 0.5535328306220191 9.653911949873502 -3.3562579029286326 0.07814790925633638 -1.1415613189705052
Ni 7.242956799404257 6.4631750678094395 7.288966726538609 -0.22874307783980607 -0.5505685747585937 -0.2655039395089234
Ni 2.313399219902251 1.3975109815109614 4.931724886520995 0.46500843219858623 0.7703953239453765 -1.3379748314396698
Ni 6.9547835050459375 7.788345866378566 11.07277903993525 2.1587488649479143 0.2675356252269715 1.470417754594145
Ni 6.722382369308278 8.523201324348525 5.865543429788536 -3.754703559605321 -0.7839540364664176 0.43980673612197807
Ni 9.041840324966806 4.776668000664614 3.4389898397171383 -0.8169793423525028 -0.19439982447324586 -0.28243979603231356
Ni 5.392218723680739 7.344431273421026 12.681982996762573 -0.22085210512750353 -1.143317125319347 3.2507218314673305
Ni 8.559179742851844 0.7913784136295545 10.204331263509657 3.1697032855314187 0.7526364573000587 1.059415087188053
Ni 4.957261335745597 3.277121551085376 4.294819924934254 -0.9914292060663827 1.6367074510947361 -0.4716495916641877
Ni 2.058988417543798 1.5560946499711499 12.121355461369163 -1.1422395759844524 -0.006786426794214118 0.9090652018461699
Ni 3.1615380766732044 3.72233578026224 11.640521849881944 0.20508995719724032 1.38088397209837 -1.6174046370010662
Ni 6.958233618462706 2.9718472880569498 9.929518977478063 1.4722627782226838 0.8428024740631936 -0.6747011782751606
Ni 6.29010840291951 1.2550839417341768 5.17001365482922 2.8076032573633003 1.8431233261922513 1.5901481152779582
Ni 5.6019650496383715 2.088421905446202 11.588973041479045 0.8129799913851224 0.16429374911648478 0.8895060487673196
Ni 1.3541367914286073 0.2913821803329402 0.7883069711975533 1.1659022097087146 -0.8984246914131881 -0.1374097802414472
Ni 3.0992022876499115 3.617701039755314 5.739522661048076 -0.7782274183952855 -1.2172620522379294 0.07159802395296057
Ni 5.624021465763457 9.352425331682833 1.291776692663082 -0.13502971004504488 -1.8237554631886013 0.33616479635959523
Ni 2.739175005194395 1.8730375892709237 7.129076876928496 0.6237725097460936 1.6853496375824717 2.1721499688451686
Ni 1.061578393567674 6.850962205913697 4.26872341664823 -0.5015810891162975 -0.15544838291071292 0.4774188900477972
Ni 5.621496992531676 4.075631134099671 13.564552863444773 -2.1985063473515103 -0.041349509481064264 -2.2956544518594333
P 7.649294140811682 7.999401178456381 9.131574128475618 0.7612874481068372 -0.7614643400043337 -1.8268371874377185
P 1.841060928335021 6.06809500703559 11.378860199407761 1.3850977530694017 -0.4884262969018944 0.2432387003528198
P 4.61703714330828 6.755312720131742 6.56042993156879 1.3355579944680611 0.5352018624945364 -0.0461790696592237
P 3.3206733892840417 3.323899105080207 -0.07198956165964386 0.20187376425278783 -0.4558959283743567 2.588878997212077
P 3.7740687817120495 1.2982711337993622 10.937398085445395 -1.7538078303548699 -3.446558645497419 1.0584684070040673
P 9.596083748054067 4.581002625399809 1.2249894158410803 -0.7921843947960099 1.4898835766282406 1.4345382670887166
P 8.663543336233875 1.323618715026623 5.305052402947658 -0.22930512099086317 0.49777611354791046 1.71652580607496
P 1.3333239121176952 7.472281817759486 7.607952619175954 0.8468671310508705 -0.3612903877826294 -1.3117873744110249
Ni 8.613801863666916 8.564677484556615 0.43079948702338966 -0.674909951851857 0.45739796684118 -0.2813807586401799
Ni 7.933194530477689 0.8938140574545725 7.584155251511024 0.22172396620949555 0.3436888726507823 -0.6541940594607443
Ni 0.6064962790248009 3.181266367484536 6.178549125836816 0.324391457873751 -0.26229983074932894 -0.49223898577976516
Ni 6.924545925669706 7.462202624634076 2.445028059177611 0.9217731363311414 -1.6912757732589194 -1.2609265830054155
Ni 3.1208660079389428 7.547296072346839 9.410273168294069 0.8423183353379236 -1.6728715597201191 -1.7241393567561598
Ni 4.916813664631937 8.64746150675734 10.934880157144214 -2.317657695603402 1.642561852992984 -1.2303795634564938
Ni 2.3388216003363795 8.378670556878589 11.398333237925657 -0.3968942530291681 0.08655541659374125 2.1773181433096696
Ni 4.399820246564745 0.025861825774475603 6.440771770362504 -0.198585066199187 0.22570017724842423 -0.11614290044287094
Ni 8.082110401450239 3.6329507280554476 13.572763946378664 0.016972623298596577 1.5962169471798573 0.08705369638639847
Ni 5.291417442525779 3.02587101521708 6.7094271466788085 -0.0841411507252938 0.45071978349005604 0.26138503224454335
Ni 8.93858936978693 1.6357838549877282 13.315179787668853 0.5825245588399 -1.958232900274602 -1.518705128845623
Ni 1.1487194695684375 6.6540532938347186 13.528904496441758 0.42129505047103577 3.2329902185155226 1.0311915735659853
Ni 0.07442988578369959 6.9920335100660065 2.1938616724170403 -0.6321769317597047 0.2577862591496915 -0.5705481032043141
Ni 0.21978250953909378 2.1147979757678925 3.392489977777804 0.7114013619096715 0.9286662639065489 1.4699184463602235
Ni 4.690723711973732 5.493207002852869 8.586546902664532 0.25031874712805274 0.4022102659254428 -0.08344849553364339
Ni 2.9112505805933284 0.3930623521685954 8.983397834660972 1.4807361058010176 1.83986522426627 0.360463778116276
Ni 0.2597570756693154 5.854038376782212 6.44587681623122 -0.3484623827800257 -0.7048486483928185 0.32278528972889575
Ni 1.5130477064188412 2.674389542146188 1.1137031558634525 -0.8542770503616964 1.4968857189776865 -1.0267147687415543
Ni 8.788140115073595 9.077295149022053 3.834568250206743 -0.13225317574117226 -0.2246218565825809 -0.9471807777709687
Ni 2.1111889140365303 5.606677399671032 2.139110522970123 -0.6379284895315013 0.94300067825135 -0.8172778474295279
Ni 2.6808129240359437 1.6437499705191283 2.616029330967908 0.7470713045074553 -1.5181816522419853 0.8211524998935859
Ni 6.878628562553853 1.4056827948612478 2.790096435249691 1.0332489703156462 0.6642023356263658 0.013320885478622218
Ni 6.211017591557873 5.829943682269984 4.760202825252882 0.015932354959540304 0.14188838483809113 0.1847659009279076
Ni 6.372901775021095 1.9819265346684445 0.4492113117938515 2.6712946806058318 -0.836950643268107 -2.0949204576380436
P 8.075154075211552 7.069562887984282 4.462879717914482 -0.5812184384339667 -0.8839455239604067 -1.0746180201807363
P 4.520013222100133 1.2713434193270232 4.2651928940840795 -3.2160101390177585 -2.1203427543658906 -1.5672452425378558
P 5.773432881481505 5.9427315363254785 0.9079324077508336 0.21434310036439214 1.8864849810073383 0.005531728451506603
P 5.613643075810577 1.251026084761609 7.77420601131033 0.6563697269558245 -1.2321834494344521 0.5237056889294787
P 1.429403493339138 4.806980379247713 4.775105632231167 -0.48586239282946003 -0.05931277882770431 2.478217174488435
P 1.6897514827427076 8.835572162128518 3.975587194914245 0.7689225960545918 1.5689917929153172 -0.4419579781370259
P -0.11766850230360648 8.844688315465506 11.927035536837888 0.44022016951031284 -0.33394567722108937 0.5372834276139133
P 2.99424030061294 8.233363747637402 0.15703251990777123 0.3198408623885911 -0.36221855602385356 0.2805389794651749
Ni 1.5896888437555645 2.66374935496927 9.891777167672839 1.2059610254028135 -0.9260511948812051 0.1520038760055382
Ni 0.24495992257073076 6.344178879583933 9.00768794210114 -1.8721089147913244 -0.0767371449517388 -0.6749554603778118
Ni 6.610623004347213 4.162286015255796 1.8586462218695956 2.126909866060447 -0.41129500183553036 1.4592010599427192
Ni 5.69994266073408 8.640897876354709 3.774165085690892 -1.5190290878439452 1.7418097774527292 0.676459555727164
Ni 3.3648703706419396 7.794647699557161 4.951786033802887 -0.2835451132813504 1.0166501854167007 0.5345228341496407
Ni 3.448813780549113 8.811814064047192 2.4161808100590316 -0.8898276937727966 0.3292076483154718 -0.792914330983499
Ni 8.663618135440743 8.151019170777023 6.195600540032373 5.113145400650091 0.22813244083900064 1.1928090614018876
Ni 4.317045574264878 6.90423794100515 3.0832055422711875 1.298529480959854 -0.46182952024997237 -1.1429193756602962
Ni 8.13250636707729 6.258683386134257 0.2630482407714902 -0.7507279274234361 -1.0381636340084444 0.15295698394742688
Ni 3.5604048472947265 5.535318956319332 4.728728253993078 0.9646277696028225 0.40686087732357673 -1.179877183831568
Ni 7.124418756320815 5.159322043197582 11.996005080520252 -0.5060054434362382 0.3214038360003368 -0.9649897809279315
Ni 3.360812513669372 5.665647224385282 13.257321666166673 0.41824160835669255 0.054716417706273515 0.8956759250234574
Ni 4.372312838239182 4.846296712357499 2.2414975473106766 -0.2934780561243462 -1.017248224012016 -0.44303012815528214
Ni 7.635792883972078 3.557814924756935 6.205822786640917 -1.1845653333358566 -0.6999144443159946 -1.4568382161374975
Ni 1.0888894539752092 4.54568804985744 13.012067221718901 0.2803114368354011 -2.6229635976006116 -2.025763439026408
Ni 4.188839733693797 6.205398301141944 11.041440977227978 0.09430215041869565 -0.8359098607084186 -0.4526434828753302
Ni 9.491738854473752 4.309640452784984 10.001034499164184 -2.043364439937623 0.47199926169412254 0.4772371130542942
Ni 2.4270940143410162 3.7706747677004318 3.3749869633707834 0.7041426234647292 -1.6905329815556238 -0.7550160132758287
Ni 1.8370591707676038 9.346413345430848 6.60479521114214 -1.6334910010399675 -2.7063329031568877 0.5184889206152297
Ni 4.250866975988761 1.013987398198158 13.29919613215133 -1.7144462978381119 -0.2414103888948294 0.10715663778386061
Ni 2.7297877047325105 5.646059182086827 6.965984686274361 -0.8988887755338003 1.2054964270615691 0.8524726501631059
Ni 6.804474498845479 5.886800429390225 9.604004984061346 0.817296102261973 -0.7761268271125149 0.41888541258827855
Ni 4.806615733114233 2.3445811392651854 1.8642973019484435 -1.9990689604543574 0.7549766753974612 0.9786536515682694
Ni 5.5393674633910415 8.026123195109834 8.261894970106965 -0.5217426516658369 -0.16243561286182348 -0.06463059149619191
P 0.7198320372706012 1.309462965126928 8.553799809897892 0.17823838422203497 -0.6961197531602528 -1.3566549243476764
P 3.5974024049916173 3.8277278627387004 7.849990697728419 -1.204315005158958 -0.12794426395317318 -0.4186193034110855
P 6.928183037103644 3.5717182273334522 3.903921139824304 2.4197551736968004 0.5405052769853207 0.6931023064901677
P 8.89343869854147 1.2916981534958711 1.6786942899875033 -1.1314129176825933 -1.3239623192106618 -0.44772213431431285
P 6.183491483430593 0.09956522426147354 12.741620404398118 0.4275903965614442 -0.021702681784414236 0.33063383923903705
P 9.068926987753738 2.721036197529 11.41847759932519 -0.24347601317460646 0.11782543035161643 -0.4998198834508167
P 8.3828312627606 4.487550366319591 7.887390301162224 0.6490785926110498 1.3832293324020952 1.6720295234347977
P 5.417697203520019 4.331837117422947 10.718308403559911 0.31542422137813425 0.830750427994666 0.2209503212682646
