# total energy = -340855.09065891977 ev
CRYSTAL
PRIMVEC
9.36276310718489 0.00000000000000 0.00000000000000
0.00000000000000 9.36276310718489 0.00000000000000
0.00000000000000 0.00000000000000 13.70335020995867
PRIMCOORD
 96 1
Ni 8.321970211897645 6.543869157506451 7.338486856683863 1.6694347661244282 1.1401469551214818 -1.4074506668433049
Ni 4.487328893078294 0.4910993920623692 7.173580511266027 -0.29064624310250586 1.8534583895696723 0.28398348637034965
Ni 6.037137696273037 7.400477710769566 4.500673639238746 -0.7513367646520287 -1.5517576884252178 -1.9392121361977248
Ni 0.28834314078033363 2.705604449390745 0.37464440909855906 -2.7970162258760736 1.0945584678584053 -0.3626049928289949
Ni 7.692876800498688 6.900805772868069 11.298548940353818 0.5611612626727754 0.6618518331163182 0.3822150537504385
Ni 0.6374243979516617 8.638019641064991 7.928141501330787 -0.9868212749807264 0.04682698765586774 1.1414492188726728
Ni 1.3796499477116475 5.0602176379500685 11.983771179899337 -0.8442806012706169 -0.30932916422398987 -0.8396718988540119
Ni 4.927322579364889 8.560364884413907 2.545438470899898 -4.015885988920754 -1.0183612545705365 0.3592625587193232
Ni 0.7948246162405886 7.00170827014667 4.974330203758196 -2.721642022710132 -1.1115606588433564 1.5967224260613662
Ni 7.286046020898631 0.4301740204105811 9.630180405063948 -1.5003225125733772 -1.413539296239546 -0.47419909755891876
Ni 1.840241712685532 4.411078550883162 5.1100612432680945 0.885271956081314 0.8632293744589778 0.4512201201652422
Ni 2.302209803826249 0.1624579828829605 11.341509042285074 -0.7647867195093474 1.5270959240124797 1.0012698463058884
Ni 3.430132504453133 1.4525296952124953 4.672362370202525 -0.5392454364362906 0.7074346639524397 0.09933971284260311
Ni 5.229683648968227 0.9998588277701776 0.5723850282202395 -0.16774211267640143 -0.7324494408292225 -0.5837106087282012
Ni 3.3103172258343827 8.327138457095547 8.690691737097303 -0.45625613992725295 -0.7604780648316645 -0.19707454309193156
Ni 1.0506611800234666 2.7578393043891047 8.47653632181446 -1.2858755396412693 2.0191863000295225 -0.6371664145544962
Ni 8.080045777715425 1.6893888745902514 1.9262798873623423 -1.3619573103971963 1.424810241167675 1.3652213258604489
Ni 8.893417091261309 8.762787821331731 12.182840375096347 -0.19192179524639852 1.4953764814220118 0.9160879130209062
Ni 4.762360057368815 1.7037139020409577 2.5954281353213426 -0.7516596952090862 0.08743833341932684 1.8024086220817088
Ni 0.8884868888606083 5.648442588680834 1.3539454180625174 -1.3594414859538781 -1.964023795924766 0.5336681994588293
Ni 2.265779292838865 1.124055879491497 9.133817267620671 1.330028837119716 -2.2740006210350834 -1.721550512983061
Ni 4.509041140567306 3.817919424030487 1.7049844289854421 1.3063080964640084 -0.21535405812740976 -1.2218859241631859
Ni 6.980716955411714 8.742611066981228 6.911983039384835 0.030863008127443622 0.2240986370892592 -0.23782498553641623
Ni 3.998845457009211 5.82204694096253 9.59296154942862 0.24955152994472501 0.148496377072912 0.13500528456501265
P 2.7421004997194074 1.9138704812295544 6.927344524704034 -0.5420463962201955 0.5503158353178393 -0.19959628107252075
P 4.826972485105627 3.976356100187906 12.69242654278056 1.0218921505419303 0.45647931168165257 0.33884954228061004
P 6.729130149772546 4.185155078735749 5.195597573845978 0.7751860604658005 -1.0978337961755673 -2.1013898674124714
P 6.4125002292967395 4.666700707392431 9.161141555275666 -0.12199010325226733 -0.09222084240963473 1.4150030252692662
P 2.2936709639340638 9.335479948179673 3.5249398429929055 -0.401586773408831 0.8489263275727444 -0.8327630875493207
P 8.88614222437948 0.07886723446472167 0.9705777226398908 0.8899197392659707 -0.05939711101139448 -0.8002910830635444
P 8.687558020307925 1.023350000236728 8.067093331326333 0.05585773039956832 1.452784614893414 -1.031926909070113
P 8.806399571570548 5.39326048203443 13.254359918619608 -0.7092614327485333 -0.161928848428734 0.9754114904818879
Ni 7.343355493464495 0.9476520610609371 13.509447461359311 -0.14460809776209935 -1.2900463831895073 -1.0335107086174653
Ni 6.108491313398417 6.481915754472907 7.708668972917712 -1.278997067353881 0.4966026620650995 1.4298555169010665
Ni 0.7552847316477275 2.4549258317664258 4.302646519568052 1.8966490660245336 -2.114132254679804 -0.21466937335555936
Ni 1.839951467031302 7.036921621938897 13.568700643532212 0.02337132773608878 1.1834109080164394 -2.022836238077284
Ni 0.2981515713406996 0.5487421789924464 10.022507328439241 -0.7367352126887698 -0.1066079643692422 0.6329266654415356
Ni 7.899325725523572 2.231024716435583 4.669005819652801 -0.9427625940986151 1.1220114218630353 -1.4284825478129397
Ni 3.0269251141494307 5.298415692442499 7.6717384903840085 -1.8844005876744836 1.381321059635789 -2.0600562987710074
Ni 5.9463469830772855 1.7239281074436212 5.752077140214414 -0.22787301653002692 -0.17220709042629054 -1.1401634101817137
Ni 6.413745476781017 0.5753436613407775 3.473771406704765 2.209046327650886 0.7945984035541412 2.743978995644435
Ni 0.8521659222007882 1.1135602221240186 2.2025806423210432 3.3359186771506484 0.761003084097199 -0.5319792417921806
Ni 8.205254007845028 3.5552751952414594 6.881274112890997 -0.057878617484339034 -2.47353673829363 0.3156034272684758
Ni 6.158582095660691 5.390283123387812 3.434841037985787 0.8207046137228897 -3.78068352860885 1.0719319887081409
Ni 9.047284739055366 0.7085270930275791 5.924972731334006 -0.10790765701727222 -0.5118325916409766 0.9603769647462685
Ni 3.7111651998520863 2.118961805613685 12.991105237680394 0.8333248735900616 -0.5898488604154551 -2.552387844264578
Ni 6.379739921420908 7.740355371872892 13.086890984957812 -0.31638915639456483 1.5381735219828798 0.534299405284925
Ni 7.697642446885884 4.592322917805236 11.319419475445564 -1.098676860902153 -1.840874639367391 1.7234778119127607
Ni 9.117552275668142 4.348853627721467 3.8858593777516015 -0.7652577456084949 1.5994444529782197 0.2557939113100111
Ni 4.45638496123216 3.7503858142252944 3.964447601877741 -0.21430710492013416 -0.016156555155204436 -2.0830584160931354
Ni 9.100652488381526 9.378117971062363 3.6603703378092294 -1.3188936464385028 -1.8520010882978557 1.5469625810294199
Ni 5.311486109645888 7.962402660121878 9.911551096208633 1.0158222901987668 0.8641207759249956 0.09552033909651292
Ni 2.804522040904936 7.333974004898739 11.245407769893218 2.2827498279826237 -0.8848644362302504 -0.4795318226257418
Ni 6.396358825816336 5.58095579269084 -0.06636045559632074 0.1496222631472391 -1.2509620155935357 0.7558691053047434
Ni 4.183479144151647 3.3718867555833008 5.997874013189846 -1.5314919961976463 -0.9330952462121801 1.804078296474648
Ni 1.3515710213556553 6.821025669006978 9.36236137714289 0.36840128779579784 -0.34574601229012714 -0.13213181967195953
P 7.831932557163975 7.503486829732095 5.135495189065378 4.69133073023016 1.1945126743565557 1.6437759279057433
P 4.078766002315897 7.031406954508528 13.033941751139524 0.447278619018991 0.2731424298907877 -0.1895270697619768
P 2.6741174772883105 4.0907409762436435 9.738244479791598 -0.8508168597272379 1.01388547818737 0.11445368566590612
P 1.9291224222211887 7.25908126334436 7.052018141064073 0.7153495479241422 -1.3197277123040239 -0.42574511582258934
P 0.7497110788102075 7.18133287906288 11.533972808157593 -0.5379575708628026 0.03985544143404104 -0.779270000727187
P 4.9877966658381645 0.883360776096385 9.243992645413769 -0.6336982535002377 0.15493621916098477 0.7468653591442362
P 4.737623637417987 7.844937435026088 6.850880711511597 -0.017519496941002084 -1.6909934661318102 -0.44699322656808826
P 1.1082515354805218 3.5574005424514663 2.11069916723117 -0.035214086007287745 -0.13753499296540184 1.6191493876063148
Ni 2.2938675819578966 7.303114337919962 2.1009703201566414 0.5169457444978258 1.234788748267783 1.5734138332424128
Ni 2.084825171571022 9.274369193819698 6.135592767293067 0.6223198364599669 0.6828592886059207 -0.5610576472153758
Ni 3.544423752878474 2.2938769447209366 10.406762613798028 2.1214213321420496 -0.3284795119001956 1.8142035578341078
Ni 2.9116975894201222 1.9052005626548132 1.388135419854507 -0.8030455058802299 1.3374798940811223 2.103082681733862
Ni 4.719759485538283 5.5863206559125755 5.3897878332230125 -0.8177280475930692 1.3788977949062768 0.7919170000672361
Ni 6.903530336912614 3.15487663384966 0.059543427827131706 -0.7259628046636143 0.67825495706469 -0.14449136967857695
Ni 5.481279817370436 5.998609926364765 11.270854823558757 -0.13968906319392715 -0.9657850231357175 1.5035325348702429
Ni 8.335808375670288 1.9932386235168986 11.733561636703305 2.6723298067385652 0.2713907373070036 -0.45184284135090574
Ni 2.764805200090625 7.593903032406259 4.4864356854843095 2.781496790084235 -1.5342955270847125 0.09139089030917165
Ni 4.537972078359909 9.069605566141956 12.208520561561576 -0.46466441859560614 0.4051855465036828 -0.11241325819710962
Ni 6.1829159168008125 2.4642979575691424 11.628279238874743 -2.1999042561403015 -0.5905998796488667 -0.72037579749414
Ni 8.613311309403283 5.599849848504909 9.547781536380658 0.6074182367577862 -0.9041533663668492 -1.3772818565694087
Ni 4.754308081154693 8.896993666742466 4.97648083042841 -1.9659063576594593 2.689981715492374 0.6524891609544957
Ni 8.058548873776324 4.2184397013418025 1.7834771529285764 0.5221131476313783 1.1410650960603768 -0.15556356833233853
Ni 6.837335602222096 8.752816478694475 1.6570498910512061 2.1154206344739244 -0.08977289508977443 -1.6540587978889902
Ni 2.773765364319596 9.36922334617467 0.34170152734345455 -0.1461921544197676 -1.6851220949526977 -0.9934606346741148
Ni 8.667194010696626 7.514506801829795 0.8002718717770729 0.39822608446671415 -3.6236099513898887 -1.1938662990218085
Ni 3.4179328242124334 5.565507233675373 0.8974517344710994 1.1081614033538205 2.4388666977152704 0.4501538836842571
Ni 6.206173020191371 2.2345638408645807 7.944380277546803 -0.2873547168354277 -1.81979467876864 1.0805528976079326
Ni 2.452060826276284 3.781676168303896 0.15873253946947294 -1.3551212613119694 0.3288188975174853 -0.7348037999940119
Ni 8.517698773242099 6.676080734389734 3.130132723688401 -0.946701524141705 0.10582532056694678 -0.08012174515325557
Ni 6.073427765814826 4.297686127709631 7.051223242482004 -1.8998122942438638 0.6548674313786851 1.4500013957213223
Ni 7.901348082340142 2.684266712423321 9.421108033835345 0.5554760393625402 1.4708000776342283 -0.17408862371971953
Ni 4.113548667008298 3.4614603095838934 8.235480752042323 0.8826157494053896 -1.555639025757495 1.6249281990716207
P 6.570899454401999 2.8941049576685685 2.719608334069191 -1.5082021724317702 0.8688963429367681 0.14411958816145504
P 0.15716521293663097 3.6815414175945476 10.458561164038738 0.700846726322277 0.06629820900660194 0.27199648921180253
P 6.608781193660533 9.375496397411252 11.574876847325333 0.4113320257210529 0.08272730109690268 1.4484942150481763
P 0.14268289106685814 4.988564412407418 6.508789693225692 2.7528323322700072 0.8388871981691874 -1.412951027836244
P 3.013461460898374 5.471420827889656 3.358938054299427 0.3122543082905848 0.3168568400596027 0.24853028776906227
P 7.631251094171533 7.513495623421511 9.219147617411682 -0.9713494045973721 0.9373421944139921 -0.9256863553426187
P 1.5615309825204184 1.668051137622827 12.986624219289602 2.2474871481255874 -1.9946376641558812 -2.0303040072092386
P 6.284352091572676 6.760888642003131 2.097270156203361 0.6010012774878488 2.2153519581539394 -3.2098148088403238
