# total energy = -340865.4292221713 ev
CRYSTAL
PRIMVEC
9.24765823851334 0.00000000000000 0.00000000000000

0.00000000000000 9.24765823851334 0.00000000000000

0.00000000000000 0.00000000000000 13.53488259967918

PRIMCOORD
 96 1
Ni 0.8811825126925894 3.8455368554145704 6.683389710045553 0.21243508470840186 0.6563033924942633 1.3670200696320844
Ni 6.563432789521755 7.798448267876984 0.5942803965768854 -1.6082733641237594 -0.9342694690259394 0.9918130717683629
Ni 0.337554313283748 2.186183342032436 2.130702017856349 -1.4581582205005015 1.3460864048032108 2.161408414057948
Ni 3.7707972834517176 1.186576245746789 6.278074107526392 2.0253690318014663 0.6818372750993097 -3.0181393252767763
Ni 4.819694396881884 4.998285168194258 12.101227250251275 -0.3105193278773491 -2.461339167786174 0.34130288891710897
Ni 0.29466737453901604 4.7421897751767785 10.452664828990331 0.010992751566077843 -0.9739799002416839 -0.7576205407782113
Ni 8.9667696367301 6.129227503407946 8.193422214453797 1.2409262286240885 -0.15811050312390834 -0.03223623432588642
Ni 5.252235104555541 0.46954706069564944 12.984134451161024 -0.9981384997657584 0.28934629334415973 1.7109807078870147
Ni 4.510859610285569 7.494644207233131 3.3169259278333056 0.01581408421412115 -0.18959211867195735 -0.5843011911243485
Ni 3.2647561899873225 3.6597883968095406 5.714968490836165 -0.24623840641109204 0.754186832506314 -1.7933753082348467
Ni 3.336804693471928 7.750425179878581 5.431466738567373 -1.050489502563649 0.3790343420296117 -0.07245034465092684
Ni 4.621110188971677 8.780854720281054 7.366224754872758 1.322312956532697 -2.671263827367896 1.030502775029077
Ni 4.592100285823017 0.2535532118330465 10.598746383366525 0.4991390553337081 -1.096193689468983 -1.0835654591820114
Ni 3.219516647047175 1.117274296688435 8.577311918150793 -0.5450070215104162 -1.0893136745196983 1.2063495190904838
Ni 7.77385874525273 4.26731328917524 7.371124164081606 -0.8491147894344667 -0.5327816830888179 -0.44263494959939254
Ni 1.856994460176255 8.42283164077823 8.81154677242007 2.5629975014596247 -0.22822782876628434 0.10983829838108179
Ni 0.3607150727468714 0.8012476064648608 12.363573135311528 -0.02402233105652637 0.8413626562928734 0.3176343416555756
Ni 9.133921055095426 0.22156278851071354 8.523294498236242 -0.08870640149847303 0.7424335486251278 -1.7468974763882819
Ni 6.16318490358706 0.9202806859543742 8.682329247174222 0.7428153574445787 0.4770242257125398 -0.11599480490078087
Ni 2.039164075134957 1.7754116212927749 4.590991491628715 0.17775424549676483 -0.018232206737310536 0.2322444061248452
Ni 6.691697805993514 6.230461615543228 12.395082680417818 0.4726276393067409 1.4149292346085374 -0.903988815764527
Ni 2.5880218251432776 1.1139081491761265 11.211985403610948 -0.7301233637992072 0.48122206584397126 0.6075131104644376
Ni 6.215415675975848 1.98771935367624 10.961468197899581 -0.5908009399160792 -0.25684420695139637 -0.03512512583790725
Ni 4.089443835186932 2.4616433309036907 12.79540362285072 -1.1606707861064463 -0.45442937113115933 -1.382828754529567
P 1.3922903979756494 4.9150100078966235 8.631736235017383 1.5890091165775087 -0.8041125136921634 -0.013890899049479303
P 4.058815591888124 0.23057463123253977 4.25019679898147 -0.2621543063104001 0.6172236528839822 -0.4056048934292886
P 2.1736435177832862 2.8793877857759904 2.8067825732797345 1.1461669360633164 0.5710898346403971 -0.940560958461606
P 7.101174854613057 8.992801794002487 2.4967252462957075 2.2406449283927734 -1.5101577534962443 2.2998132112228133
P 5.293451916265319 4.336236084255559 6.42311345084589 0.9245149607423369 -0.2056424872666007 0.2661014638836062
P 4.105479274160403 7.230272160304893 9.032665673346742 -2.1375668315536602 0.8750595343246864 -0.30761578107730897
P 5.016133148135894 5.823740369007938 0.6504183044710323 0.9057618485045498 0.7092362359375527 -0.03294328769524004
P 6.445608378932953 8.800922138142894 11.678234749463495 1.1164611814687675 -1.5627959485172505 -0.4734287950517976
Ni -0.0025283096974318027 9.48180870142932 1.4421685661690222 1.4514152453497131 -3.037279388540337 -0.28889840717346377
Ni 5.441137014538859 6.292208228014888 5.234845808450746 -1.1795992475798331 -0.9970344680683022 -0.9111128284038179
Ni 3.857068684941628 1.8159626016264927 1.528615673160948 -2.65118839677426 3.06687792813306 -0.28644788875044214
Ni 1.2415073342718252 2.165801503798567 9.472333551041652 -0.015223501817973781 0.6068592789305226 -0.7309785127106508
Ni 5.197082072238484 0.34329433460487424 2.127480133808854 0.30381414794303163 -1.9738878332030392 0.7938399281215619
Ni 1.4839994223700574 5.9073946832836075 5.102448013618408 0.321372211431453 0.5069210132719721 -0.14554063687869773
Ni 0.9417722431483445 4.425198554223715 1.2182568725260934 0.2908457607078217 1.1700571124173529 1.6093437143698026
Ni 6.455817793365889 2.322780498362959 6.325797571405568 -0.2771584930287162 0.04259238074922987 0.4141558683230932
Ni 2.0044113763677704 9.102645475736558 2.621544585396351 1.4154120877822267 -0.23003017208234577 0.2852494975669668
Ni 5.462443618572813 6.196541205996118 7.663843057079844 2.641772759887315 0.1482248685790802 1.843236454731348
Ni 6.0651319858040695 3.745569672425405 9.035196757341573 0.48070578832918504 0.3104079991104654 1.0411671967214586
Ni 5.794767456491281 7.204434203850525 10.23996407114183 0.9997719216041234 0.0026821748178534454 0.2621177966455099
Ni 8.952787177832818 6.997406884185543 10.63327436404429 -1.9475918756209873 0.8757858709677497 -0.5499808205759238
Ni 5.721424280886557 5.182100866277111 2.981842588767384 0.08066501925123527 2.034679510569115 -0.8626382778421982
Ni 8.834713080477993 1.516958075485079 6.103433010946181 -0.1842982172628697 0.2241683139849301 2.0207379607873586
Ni 2.7399885890712103 3.9169657658131194 11.30547090310732 -0.570345757385521 -0.4915938959965984 -2.42663287465324
Ni 3.5150995397282747 5.821650398299746 6.831799824706359 -2.905172508569042 -0.37685790320358326 -1.005649206320507
Ni 3.8591309126758166 7.777428341241058 1.0188191057824083 0.7277072981585467 -0.48024067576730833 -0.5244924464968321
Ni 6.843562845683438 1.683452910132344 3.649437493209191 -0.945377920234275 -1.8281574489110386 -0.2907657993995057
Ni 6.544197660879991 3.946068145541787 4.559550379191633 0.4630893607990025 0.5221648268049202 1.4136753075967783
Ni 4.249798224921634 7.11767267648657 12.151359729039674 -0.6367516956145809 2.2572933355827316 -0.007080046775232968
Ni 2.72395315009774 4.095806223891516 -0.0037194080479410066 1.411435619632982 1.9099095305788656 0.3509635519353246
Ni 1.8896386929192477 6.655622692132208 10.367827739256354 1.981573631883071 -0.5684367132882662 0.5223782283673069
Ni 7.306694806023899 0.6993384152955174 0.7415465759429871 -1.26367509228483 3.171700518467105 -3.004741049592999
P 7.277842113061255 3.282151034686917 2.2035328732078265 0.9556888152419799 0.7880333487421137 0.3253913598931751
P 0.994012263195134 8.033311038124518 4.454288911996983 1.2119154432140353 -1.1686273219493615 -0.535176922793872
P 1.5164402066370317 7.120132553514796 7.214741643458269 0.31795547244042016 -0.5346105087674405 -1.5266254121339642
P 6.048162533372513 2.934383607907033 12.889133260518314 2.102087150589812 0.3830241799152952 0.48147686216725466
P 0.7473152650039161 3.284499939819133 12.145742701569958 0.5062319576247476 -0.7777882739753379 -1.5487001325458167
P 3.5687544514491942 5.6774424194345245 4.2073181831289395 -0.4191008710331944 -0.10462692938347143 -0.5261466942708035
P 0.9231835258008402 -0.29495035287384197 10.578661394954484 0.5379352022652993 0.07202714107057917 1.4561530171450148
P 6.820637901499336 9.498362009250839 6.683836371926994 0.8189081839440993 -1.088951148973957 0.8548761173982761
Ni 7.517874324131261 7.090466066648076 3.4820511843306448 -0.5104925326733144 0.40982304527569413 0.2512746832834189
Ni 6.029833675214833 8.574918624260174 4.959194393058874 0.19153253022777983 0.5605082024698089 -0.44862227753107903
Ni 8.660431717794014 3.2357832774706665 0.15679774046757566 -2.7405936241119706 -1.236104638865729 0.0876062264557588
Ni 3.48691267814169 4.549783002811138 2.209406985569965 -1.8423455674859626 0.47380340478239696 1.421474491926223
Ni 8.111897635815723 0.05539347142507864 10.449213603024415 -2.3031728717236657 0.6988993727879189 0.791672745266914
Ni 3.512787625228063 5.077371139417508 9.132255551889473 0.4061126863036425 -0.47069751216356354 0.6263659815048825
Ni 8.714622993678983 5.079100451463668 2.9466524757767583 -0.17672374734972143 -0.2549163938010642 1.1705564206512744
Ni 1.6169437537902462 7.788756722292097 13.629761544021818 0.03580569684469962 0.37016120790969803 -0.30992026084076946
Ni 1.8015085121711678 9.44528045232597 6.624512645851555 -1.1188425372167505 -1.3098518479512085 -0.3078628640911085
Ni 9.074329146937963 8.262532736991533 6.281037981915664 -1.4863786487987756 -0.6114720951121856 -0.05244484806327742
Ni 8.586542930367239 2.837116741054115 4.173197099403211 2.0041067799885806 2.2351247699054926 0.9001159630726822
Ni 4.2518512049978225 2.8835029935863683 7.691710874465398 1.3195325655740824 1.7896289538185375 0.7245538401312296
Ni 5.269435748437117 3.661184793167668 1.3611082199625906 2.2736460659091424 -1.0270256151137538 -2.1897391426818418
Ni 7.543333126607596 5.378548865189122 0.853801122117879 -0.8320832878734765 -0.08631373289658038 0.6431712259876794
Ni 7.42787611646701 7.683037496026404 8.238019969928686 -1.622027480485058 2.1264190424669573 0.26694092906576605
Ni 8.441410185701933 2.6444417866064502 10.475078377686986 0.41183184817560686 -2.0174176381648743 -1.0695015248897775
Ni 4.559705739846048 2.2693475304340605 3.5235491248436492 -0.38877625190772397 1.0225943188152773 2.554570453738194
Ni 7.366443924367378 6.559086390261356 6.174586341136305 2.0326781638683706 -0.8173102433293601 -0.2740459155416635
Ni 9.347995090157053 0.5885449990847595 4.13512264188212 -1.4669861032047766 -0.6317447293182926 -1.7548588973272035
Ni 2.2468017402279936 6.553278861036824 2.344620692263562 -1.2089661307777244 0.2776048365375155 0.6742522636632
Ni 1.6898615371269317 2.14205351805239 0.36497361925626187 0.4383273233629741 -1.5831698841879123 -0.9338200401933466
Ni 7.392744263721789 4.142414420215789 11.656200354744875 -0.8672968596601323 1.0942491641481027 0.31923151093936636
Ni 9.226536349973916 5.6605654435829775 12.54159794995425 0.6038053225955472 -0.17858214071469888 1.5801454955392915
Ni 8.44148416696594 8.048005566687864 12.715723951983817 -0.16646735972903587 0.07245240153345588 0.534063378014719
P 0.14521967265051416 6.540923989947691 1.1026935143184982 -0.200902401478454 -0.09398230518543169 0.7063473444255318
P 3.1557725404473307 0.4349941113412815 0.27733633867962704 -1.6763875432931774 -1.6676843590922248 -2.0569056689571674
P 4.159892493837392 2.544650309119301 9.92178637566726 0.16520211986336708 0.39261285204499474 0.8915603601931872
P 8.834935024270013 4.81954643435387 5.4815594524263656 -2.7971193271128407 1.1928630545682746 -2.875311202233235
P 8.403430054292452 2.2370177180630963 8.202585718766837 -0.7239491166676952 1.1773323059225274 0.7229857243131613
P 2.432707409019038 5.9446257543950205 12.462486085288598 0.05476912532107987 0.5557007537788364 -0.47700185711503656
P 7.290400432626406 5.737838873838062 9.633642299082041 -0.004767339481656306 -1.3808767730095186 -0.05123411558462789
P 2.057428199686631 2.263956145819566 6.9526657900116415 1.0263507005339163 -1.2070030935140825 0.9319050825588209
