# total energy = -340867.18629714655 ev
CRYSTAL
PRIMVEC
9.25400647292436 0.00000000000000 0.00000000000000
0.00000000000000 9.25400647292436 0.00000000000000
0.00000000000000 0.00000000000000 13.54417388243094
PRIMCOORD
 96 1
Ni 1.6769740491193814 6.001658179378353 6.747111899991307 -1.757649058477831 2.479468016176401 1.0938717262040258
Ni 2.5688659454203533 0.27646344537701706 6.104697840596593 1.2544522881349816 0.8091873571119097 -1.0554776998068598
Ni 6.0479929901232135 9.014633152651038 13.259895697182689 0.46881983552487644 -3.1227140612660738 1.74825373330586
Ni 4.25665792818478 8.69991364423842 4.0197072399314715 -1.7876569176938308 -1.335693491604661 -0.5020757693645288
Ni 2.701300033011667 8.178348581647823 8.00207363807413 0.6921587116299757 -0.3880769118478542 0.21394380804344443
Ni 4.493754829741418 2.146124418668457 7.168605986661635 -0.45717248109393527 -0.38256549511132176 1.0185592295139556
Ni 2.2383313398311886 8.445493242439246 0.06538233240576531 0.8477981275055722 0.84741374758296 -1.2879301081774528
Ni 3.357085206455761 3.231258479533876 0.9265037315611933 1.9394170531196793 1.1274462197253616 -0.6760183544246873
Ni 6.628774440562096 2.2050816943336278 5.567075225858108 -0.37519774189234095 0.2917384477254201 0.3786646173950188
Ni 0.9281583479305124 8.23506638773036 9.761231593872967 -0.3813547626326722 0.7554086207285571 -0.15859901272455268
Ni 2.422430545934297 5.571263589218028 -0.08634080641714165 -0.5149968483015712 -0.4554873800820285 1.3546890588705573
Ni 0.5917011781558651 6.115315887700379 11.106859461029643 -0.9828455781624299 -0.30241418227171146 0.3291438849570718
Ni 4.6772987954521374 0.3692885341766081 9.322901693104752 0.10674191884394521 -0.4231220763774454 -0.2820093933631143
Ni 7.9148129834069305 6.734556989318738 4.8179606202580025 0.542787388151278 -1.5108172414571142 1.1056581773159926
Ni 8.923721792403882 0.3193113464576753 -0.1309173559194376 0.09479477378439805 1.324728765063041 -0.19968189880779158
Ni 6.857829610435633 7.672913252456128 9.691994042342715 -0.38050295615533825 2.744316581489512 0.3376133558806637
Ni 3.819794787453124 5.862801811248407 7.213871034250493 0.47652028949292774 2.257612152374731 0.1496970822492325
Ni 8.17549834763356 1.2458113764162526 3.95282668386691 0.44029833104641586 -0.6065795429065747 0.20631894450833502
Ni 8.266058055632204 3.357075952449221 0.5972073120470559 -0.6312904153896934 0.5088544828492592 0.41319093330666257
Ni 0.6447358896355533 9.046466935148008 2.0825660509516895 -0.0356696854874676 0.34185156233172737 1.184637838445005
Ni 4.527578223644448 7.451335319866762 0.6130242600249103 -0.9918269557254338 -0.2404966188313084 -0.3131094572020285
Ni 0.5754853824961448 1.426403314040771 10.630998085937891 0.0980184229280183 -0.26460405340247334 0.6496115822963844
Ni 4.924973026483785 9.04829922844289 6.564088934848778 -0.6487122104105666 0.7744581811608404 -0.45697656303304524
Ni 4.016331378345747 0.7982839185481121 12.87606726793072 0.7388962248958306 1.4998062350585912 2.0986403296917917
P -0.17831267581376165 2.3449189871567944 2.2881937778690276 1.1506118592085475 -1.1379039247235758 0.9334012074883732
P 9.304255795327675 5.288488911380857 0.7185884142272126 0.4212559697029842 -1.1308845559829492 -0.18187880918809968
P 9.292503207022108 8.484970834338103 4.2063189088101405 -0.29637311828395413 -0.24495259772013298 -0.10880934289593518
P 6.272920873079993 5.037177855779061 4.386402801475623 -0.1627767982513261 0.10231139387641734 -0.018389815361097357
P 3.580763798529665 2.5907979409197184 5.311605419717319 -1.518662705643462 -0.2682694180692025 -1.298747253397615
P 5.627962887287484 0.7392563124332387 11.377634468586635 -0.2442414305857213 0.4729719100200371 -1.9198455587456547
P 7.172456578782853 7.514336596389833 1.123975902514991 -0.4836239904172445 0.41828428866916995 1.4339402284934013
P 8.616951475608966 2.4023030817101967 12.167598109854797 0.012958359932880909 -0.5833719944418598 -0.8659871397097733
Ni 7.581474413836201 4.559458276174115 12.110712806253892 1.4696654498091528 -0.8265469314362797 0.6537135202798999
Ni 8.142063622005203 5.703003626318856 8.550329106326865 1.2267285969674682 -0.9680470796970165 3.571193128351069
Ni 3.238476604634933 4.591273550658004 11.480962854808919 -0.27817305033615963 0.5579062460705876 -1.14907356818715
Ni 5.963531672434309 5.875452038188335 8.67726446323222 -2.184489207136812 -2.4124923214867997 -0.6655879031199827
Ni 6.733927716874031 8.255980442510344 3.6318838560562647 0.6697736590665562 -2.094516794441722 -4.789985244080279
Ni 6.547107832848216 1.1411763244705477 7.776224981466639 1.442961458155405 -0.07901977033832844 0.8092873730248836
Ni 4.026788405735739 4.167338257062472 8.611182527932044 0.0184908597153359 -0.555483752672024 1.0708169012670914
Ni 1.8611750492944283 2.91696465542209 9.154737886263206 1.2144523507032763 -0.9103841777679095 0.024367373100770938
Ni 7.740282420065991 -0.0728965857160963 11.382496523622654 0.41982386524214793 0.5198276940313112 -0.8512953420255532
Ni 1.334233408904199 1.5753372952925773 4.363390863413062 -0.6795052845320232 0.536494870274347 0.2313239511931048
Ni 1.9474316442520576 6.871803160310756 1.9856710500758874 1.3066701077891174 -0.2214097774031864 0.8605150608516082
Ni 2.1113756241114463 1.4950032645204305 0.886983571232253 -2.1533580329496465 -1.0871963710663792 -0.017982038399717418
Ni 8.694509304419167 3.6090995665545833 7.773692159876692 0.12858266886812048 -1.173132923129199 -0.11031986600319066
Ni 2.113355981510967 3.7804189896262055 3.105327182338092 -0.3823263825173222 0.2875462640209435 -0.07973942211317235
Ni 1.0226972787412776 3.5514193437919066 12.598614569254599 0.19769700716727887 1.4688452679007025 0.6838661326038803
Ni 6.777588119728884 1.7319706099855108 12.944261892923937 0.9349176441328996 2.1747249286611967 0.21143184025486814
Ni 2.1559059035810435 4.418399454487693 5.460374679652716 1.7646062065219545 -2.534583726203622 -1.1639129471928276
Ni 8.97572005515111 3.676246638007491 5.3773486583781365 -0.08972841500508418 0.8540155691701937 -0.751135704384816
Ni 0.9545137585559097 5.820788621557639 4.139058938477446 0.6983548131383586 0.9326838697063744 0.9583907875541752
Ni 5.757398676759897 4.652220437729235 10.703378298089065 -1.4795238306604712 0.4086796756998704 -1.1974992677887053
Ni 0.45211281810861953 1.3394619225991955 8.184893015072783 -0.8530999993344597 -1.543813750987793 2.9921439296542793
Ni 3.519761387419195 5.881837302700809 3.874135239255581 -0.35540667530834275 0.4284244624269654 0.4562911069302464
Ni 7.057540325571412 2.5270748518865425 10.598695125309355 -0.5719550108541698 -0.7990806076952108 -0.49619308533150674
Ni 4.701100100272546 7.990834647131523 11.252391669477413 2.0376159674896197 0.44391690163560965 1.4926359425623972
P 8.778887336049214 6.199888253467762 6.846972809963121 1.8679498983176281 1.0133221494847322 -4.898125328823332
P 2.7930812698735665 7.448124179597445 5.320653061911297 0.35754711869011324 -0.31118164405169635 0.7206743025711653
P 5.8389357283822205 0.728861286887063 4.005852141340058 0.7057948143561715 3.7520221561184153 0.7451154663326652
P 9.165464205243508 1.7916589521673272 6.2674989506483145 -1.6813757405363885 0.09066018279073419 -2.333617818477084
P 4.774974834479901 6.085425446576772 12.394842270648493 -0.8007178861883177 -0.4338039815713239 -1.219111189631526
P 1.662584068949967 4.873418956050468 9.709209270708735 2.0944373473540376 2.3431676669490487 0.0427733864117844
P 5.773824538368071 2.8302916301701684 0.9866575502719623 -0.12136352541186196 0.32845122976542146 0.9613676107943122
P 0.6694126234746279 8.442976152660416 11.953248481773683 0.6273396582720615 -0.16631489331157162 -1.9345761800876102
Ni -0.032600014238465466 3.7922641179971706 10.14871720650947 -2.148313271436887 0.12341500862425196 0.9833274028948548
Ni 9.646191336973894 7.293526746343272 0.2015124702090815 -2.2034127835141923 -1.4426943205369476 -0.16587780577415304
Ni 3.9918175150217725 6.463747741937548 9.847088415748077 -1.3224957619674644 -1.0088399453436627 -1.2210192052875164
Ni 6.202571915364309 5.404386089285518 0.31244487360513146 -0.44276941829472777 -1.266281933780058 0.529250787117424
Ni 6.897584822530685 7.571517102799359 7.260314116871871 1.6511807050102467 -0.5111782458864293 0.7971695067154272
Ni 5.251815283463563 6.891486432220946 5.535355267641579 0.05604670648192283 -0.9414575021339464 -0.8890396506538625
Ni 2.5930836805350532 7.092178072049945 11.754676934842953 0.03411262541299286 -0.28448973658280685 -0.7737233598773449
Ni 1.7488499179141364 2.604281028448231 6.9014206082414375 2.188348947202534 1.1210382593164885 -1.6316940570405447
Ni 5.549766532026035 6.35069154404061 2.4198967989436957 0.4663603182407904 -0.44885239126401405 1.4773450778415977
Ni 8.685199773840111 4.354435761284481 3.086121417165357 0.5833449978586662 -0.7742501789150924 -0.44048216492244785
Ni 7.079194700874583 -0.3416366372349825 5.622213373024296 1.570408470757186 2.5528899807119774 0.6040439209689145
Ni 4.876315460097431 4.233698737959496 6.119000833104534 -0.8360672122218892 -0.5602114971649965 -1.7587623461466677
Ni 7.2709377163795805 7.035312201862773 12.586627854583574 0.5434738726953414 0.243163109919878 -1.6570358782394428
Ni 8.864135244294003 6.532921440822677 2.4912072479388674 -1.425231130755178 2.153654995364775 -1.1230558039671497
Ni 2.8475503523669263 0.11750830044324354 11.198472274972518 -2.2866771880614873 0.3029821389600395 -1.4297835260125507
Ni 5.107859957730178 3.388456288625739 12.4250464225938 -0.29441393767505425 -0.3577831459603193 1.9157166241789458
Ni 4.609883357809575 3.715742737919428 3.2081132837771413 -1.5762559306768984 0.5384756481498016 0.2347610018991118
Ni 5.097060532098213 0.788556106873457 1.8804733545325618 -0.12186283364578368 -0.0003802661575541838 -0.405011997040296
Ni 0.45141506601551734 8.933558801355707 6.544964604933594 -1.8240477976180391 -1.8100026323788827 -0.7822612221450269
Ni 6.947380631721438 4.96709726425303 6.5524001991883365 1.1019313632837087 -0.07093545066829719 -0.5190951867406609
Ni 6.7136984585779915 3.1367102947165715 3.2637668791075978 1.2056131551450913 -0.9695270066766529 -0.6036839665263345
Ni 4.037245433125732 2.4971011247040766 10.398918706727143 0.27962572362228616 -1.0682666240414118 0.04246459692211396
Ni 7.4612185988512865 0.8201835250245878 1.6077883200257517 0.08528554874238214 -0.07804300824735591 0.447854546127119
Ni 3.2870786469820494 1.6360713402133928 3.062053596956602 0.016867465179299983 -0.07445297690325241 1.0389367647290428
P 6.011180552107825 3.162963911270031 8.768701451050838 -0.48820286803717855 0.2892699315802696 -0.8244998190992641
P 3.0483252782547843 8.909600178424123 1.8638272475687399 0.6168500715946473 0.8402465404105592 2.1408334181200743
P 8.317501077987044 8.988259234012562 8.606780397021053 -0.614674146989251 -0.41015960267950646 0.11451179259735117
P 2.8419146623841782 2.589659698115321 12.31281938368283 1.0456676556949733 -0.8538965270938261 0.416644696183218
P 3.613689553798332 5.159543584255054 1.7609865474911055 -0.2285150209894 1.6095853980669632 0.7601440785310135
P 4.968957319567534 7.7274378589887265 8.160798358245062 -1.3441200251054592 -0.8958911263580571 0.9747026373403215
P 7.506988915197219 5.9137728792697155 10.50510473016892 0.8069219581165006 -0.5332439674372171 2.0233370889731024
P 2.4924648674276284 0.7873318018082394 9.17438969455116 -0.28234157989155245 0.20453151359060906 -0.4280706786319724
