# total energy = -340887.05405028875 ev
CRYSTAL
PRIMVEC
9.06067159751248 0.00000000000000 0.00000000000000

0.00000000000000 9.06067159751248 0.00000000000000

0.00000000000000 0.00000000000000 13.26120874968414

PRIMCOORD
 96 1
Ni 6.518147515279883 2.7311491938065497 11.1924601293204 0.8214103815406628 -1.2284067560008394 2.5634099064066946
Ni 4.883584228863881 0.4931524242546806 5.939469599217253 -0.11589581742907137 0.4120295660087097 -0.8955877361850253
Ni 2.8842836053081786 1.66535144867164 4.4584982882210396 0.5503196919725812 0.09472355422683042 2.064759617783947
Ni 3.8076838348428512 4.331807446920434 4.800597537251348 0.07308592135239671 -0.4670689142720407 -0.33016204180894104
Ni 3.632604476612807 3.049586498831385 2.60767126667188 1.6929709015731553 -0.3619655594727831 -0.2551948442734315
Ni 5.340821962845196 4.693880946595992 2.6712056023260176 0.4419824036170582 0.036713810481265804 0.021034194962479904
Ni 5.191420548062025 3.302922878074362 0.6734616021592257 1.3459745618156949 -0.5483797946373911 0.03528042046884892
Ni 5.858929288949341 8.241713779281858 12.402784647892531 -1.1300494616761636 -0.1525980579461114 0.23931262582553625
Ni 2.178973742310646 6.780299928035142 0.3643114855723031 0.6217667921699743 -0.6632273733076062 -1.9804639437586604
Ni 0.9401896540960903 8.991085688497508 13.258052250912344 -0.05093869583139614 1.3536518758552945 1.6205768640814606
Ni 8.384890512643715 0.19374434182233777 6.64003348240622 -0.8390571480881484 -0.5152022794441579 1.7071937300407565
Ni 8.759757680684475 2.5241219073500845 1.3146681193232055 1.367735350531554 1.3332594282418715 -0.7275651161537277
Ni 7.329956512813251 0.7149060203385997 4.649644935482255 -0.7491240732714259 0.8222758148647515 -1.070310393944318
Ni 1.20011314162625 7.312741236684436 2.3995358600730183 0.4448790084385628 2.1966446115524234 -0.4980285958783487
Ni 7.854225095637181 4.238346618884265 3.7008983830829796 -0.302767194735756 -0.7532586642650898 -0.6131888206929761
Ni 8.07368362359298 4.1521705708520775 12.63777316705085 -1.1032009740247515 -0.8559294983634549 -0.5753357544009446
Ni 8.12058166003653 7.524126706202986 8.729734239115821 0.9584054428421946 -0.06175558394124204 0.2687759253919758
Ni 7.276860976963328 0.9722010070240388 0.48071484028519446 -1.5666986260057663 -0.5342042744679574 -0.3710760064144835
Ni 1.7927626133681616 6.858466342331607 9.171491815588674 0.09512104677556521 -0.7038682867574201 -1.4566217292513173
Ni 0.4542214363901135 5.153121089011236 1.1733977512758238 -0.9377430293968367 -0.405445742143605 -0.1484891779840604
Ni 6.563432752170312 2.2464032607057187 7.041820811976622 0.13767614652895646 -1.2381178126410162 0.5792412601029379
Ni 3.4827137855607133 4.486799296109646 13.01961614619244 -0.19345391562020878 0.47516094725155583 0.9865415389567783
Ni 6.271479790368911 6.106267503562171 4.484371036108318 -0.9679578624173201 -1.0407049123730592 0.6964478259236327
Ni 5.617833877101116 3.1784654923346793 9.29670395527653 -1.5842597748179814 -0.5779868188705466 -2.3096402246155643
P 0.47320354349004323 5.609760818663867 12.141220272727148 1.3793369393262245 2.199194888778103 -0.2550652606741027
P 4.215885213871985 6.514251426471784 12.40100694411544 0.30496008862201673 0.2924295602551738 0.49095883351576086
P 2.74709597590482 8.572582325806026 1.5132236777899646 -0.5210178576846705 0.8739074229981143 -1.6283976456774598
P 6.572837729339633 7.963967950622551 5.655454691845564 -0.7207372945986168 -0.013765943435840809 1.1732661062729535
P 5.290589599235644 1.530492411881495 12.631142567539763 0.013543028791757323 -1.4243016769623726 0.44266888816112143
P 4.128476914495841 6.199991091076097 7.766467054335473 0.2853721391877601 1.6176884867900723 0.9004226956798235
P 5.108560705852548 1.0399476489267474 3.650319901816522 -0.41716225924958483 1.2727294891776144 -0.14131348617122758
P 0.5941535432352709 5.698347005354087 3.3188696601726324 -1.6190712260702116 -2.11526019763666 1.0657744537471774
Ni 0.7190413108781739 0.007272095063677141 4.723019160544757 -0.7791758983514839 1.4550584985292554 -2.134908053774575
Ni 1.8545292119840187 6.7021606957536175 4.7279925632116555 1.839095178869465 0.5073033363120553 -0.15210106370503482
Ni 6.018478655976864 6.154207517245097 8.969736027896284 0.6425163660124998 -0.7105973779511374 -0.45585350517219553
Ni 8.857078354842157 2.468371594707665 10.249920136999144 0.43149384538090846 -0.01774472557793073 0.04927262098288288
Ni 2.4295013133431316 5.249200451153316 6.622276378112931 -0.7872553329255088 0.928372129704898 0.279577386882854
Ni 0.7466464591843104 0.29509157845983375 8.896666241401112 -0.1362908361456556 -0.9351729546768152 0.5246595682023157
Ni 1.7709445160428006 1.2262169366405211 11.373276704837163 0.21214609271307336 0.8497328826344398 -0.7615671841307853
Ni 4.5879163916873145 7.014318955327259 1.6066482631395473 -0.3911781764809973 -0.18179833365915143 -0.3250594304750531
Ni 6.030511227923741 8.398300306680897 7.826831967047579 -0.6116759835928756 -0.29180503929729745 -0.6203876524342606
Ni 5.697078511323544 2.736413444033308 4.878865431070257 -1.115072528651357 -0.07543051032517332 -0.899336147483864
Ni 1.0319108331760851 7.553736981144547 6.9083072849260185 -0.07694437586653845 0.3623975048038791 0.03754042014761922
Ni 5.226249769872112 4.308720855564529 7.165787109313053 1.4534068218584453 1.6610514271567394 -0.9187875713402563
Ni 1.0516812187092814 7.804047096057511 11.191598459446794 -0.39799777050599194 -0.6637045700543408 0.6348261964570938
Ni 4.800769690012636 0.4785901127840329 10.547474406012563 -0.6183166288378448 1.1545322773088762 -0.601387457182674
Ni 8.267427965415319 7.335465401174472 4.5931788297797445 1.375930741858153 -0.0781327397476848 0.18934400721689326
Ni 7.23944946373392 5.949617551461605 6.7604978301511816 -0.2982556800186476 2.2499206972677444 -0.0903501077494831
Ni 2.7870897805535506 5.313268460367445 2.2064792232286683 0.315661791310237 0.8845494760929926 0.8404028634827656
Ni 2.6575312366767507 5.693345514605084 11.119722869474664 -2.730905964510561 -0.219267534249203 -0.09436745643899232
Ni 1.6099816842383847 3.713634063149643 3.7095712579832436 -1.4570104800493036 -0.026743072421799102 -0.12425627357862472
Ni 1.917609607988654 1.508429676421672 2.3972416980120625 -1.49671679749999 -1.3882851496584476 -1.0392216429593133
Ni 1.0905605607454623 3.571010030758238 8.110594987747488 0.6701544394447425 -0.1122782752811421 -0.8035615262847
Ni 3.7592726662342955 2.752278680086758 6.608803159374221 -0.7553913943373765 -1.2414229657548492 0.5367663787681787
Ni 4.23816540545133 7.180237974522445 5.899036351993655 0.060654123346947156 0.021523990114704867 -1.1215812763041522
Ni 8.588057952978666 7.232717384700389 0.416872441795068 -0.6025866196970977 -0.040292528971459636 -0.9583020844951109
P 0.1402184240691946 5.783689471594774 7.6983172125444845 1.1211156495216432 -0.1303140497369304 0.9377823672752043
P 8.552639787511541 1.8489387775779773 8.115978838839984 0.4002924800774396 0.8717677509472922 -1.1415263519675114
P 2.289976030654913 3.6558360387150604 10.12452225354253 -1.5009161802933182 -0.8441278777428366 1.620121521711597
P 4.1609231796628325 6.155892802171391 3.8707877885937685 -0.18920876719060964 1.389697199514626 -1.2231848454802676
P 6.885349355107499 4.675252205690284 10.322829549606167 1.406176685226888 0.13422521186587852 0.2584547459716258
P 6.389730616030573 8.10137303614543 10.123553667743492 0.882990359135989 -1.0948957965931658 0.42270890009942685
P 2.4596552285834976 8.651654807267166 5.596774157992587 2.8060361699864966 0.2445839015268046 1.6476192129112335
P 7.134998040990249 4.161965156902208 1.447461322977893 0.15366506575804503 0.6046527581975071 -0.07766068520727269
Ni 3.1900450306992187 1.985310946533129 0.32847381100793455 -1.4153033301185045 0.4400489340397712 -0.3058733444649055
Ni 1.5863423919120283 1.2699256166644166 6.748602980413335 0.14808217235362886 0.1633411553952284 -0.3400610460902079
Ni 7.062123058935483 0.9168221819191363 9.357228335809618 -0.4312565325591218 0.8600540620547897 0.08098409315355086
Ni 2.6285552087504613 1.8940699830504117 8.768656166308743 1.7756616930051679 -0.7471972885623582 1.4965329636239582
Ni 6.745697223016225 2.306919486634325 2.623610800232833 -0.5118331058616089 -0.7117145222747162 0.04446440096096213
Ni 4.32124270378033 7.209730460732598 10.172315484344779 -1.0487210978093164 0.43258450734192594 0.12888271660704254
Ni 7.779284280446958 6.751876601079305 11.3716983358363 -0.3935633888837222 -1.9636604990480762 -1.0142765429782015
Ni 7.886327055281598 4.085230328725929 8.012966250753816 -1.7956751600126173 -1.0279689528636295 0.19172819117835369
Ni 3.2182690228788275 8.759594588594833 12.583653775304846 1.5565000882062097 -0.7300719417359813 -0.6196088652867071
Ni 0.02344267575162206 4.807900438598625 9.86632573002824 0.707929087090355 1.9696863935271818 1.9984979184422353
Ni 8.642023313306675 2.528153906232886 5.847476599987855 0.7735040447776872 0.9097966806955557 -0.7354915700896559
Ni 3.9198911925161353 2.5976311364201226 11.396577128043932 -0.5794081246981053 1.0977756892441224 -1.2308387624810997
Ni 1.3476661793934843 3.519762871924251 12.366686932051902 0.3453708883388955 -0.1834032162524261 -0.6025498529218913
Ni 3.482414783396371 8.470758497839912 7.948582930166379 -0.3660140185105438 0.27713021089394213 -0.0806292809172934
Ni 6.027575570310196 8.220683960389763 3.2426177657951243 0.026324239716825633 -0.21199696872971877 0.14119418698454395
Ni 3.404112459025204 8.585339751484643 3.5457824026922076 0.6321640762438984 -1.204228358982423 0.5212641693675215
Ni 3.4227049572443238 4.457560508705601 8.597917775864653 0.22695950357682204 -0.7642593862509677 1.501781356507091
Ni 4.837963747122522 4.8591657187759045 10.924981853771186 0.42413997611899856 -0.1884153247550368 0.18906247142073246
Ni 8.555321746318977 8.80549595115724 2.396605638862461 -1.1148334160573574 0.9974502154494821 -0.15088287502721756
Ni 4.657221469113264 0.5778842012263765 1.429412465057578 1.553813285402666 -0.07471882897012938 0.49288741799704144
Ni 6.197055433462552 5.67579499362534 13.256992152329676 -0.4111199097102468 0.6447462837842832 0.29471064297986665
Ni 8.022762648938276 9.028053228816226 11.696200854461466 0.2741096789000634 0.5464758927464589 -1.3302391533583091
Ni 0.25208600655572566 5.087503704945513 5.329454444197189 -0.44940235023021313 -0.6941670003092562 2.233943862223514
Ni 7.626820358647188 6.4156622582835565 2.497775286335681 -0.5270517225835761 -0.8874959603158264 -1.0654540942932813
P 8.98901985536205 1.6995736054813941 3.293010503292823 -0.9136039702567879 -0.037922743187702425 1.6738496073626719
P 1.819337563308063 3.5722422821021955 1.4117224097344738 1.7611673560437344 -2.173446319059089 -1.2739350794499413
P 4.845176041753331 1.3828125247112064 8.06338526419929 -0.4465121731666116 -0.36082681788264953 0.4913079893250635
P 8.905208642629663 1.8021222871792484 12.330987885763728 -0.1847432752200883 0.41531620717978157 0.9347397237941385
P 6.5998838342051656 7.954073697184306 1.1457282722009956 1.002286974716493 -0.3462810588579907 0.41513777262038826
P 1.8081476338243334 3.332315696896401 5.814880833738692 -0.22627559013591997 -0.8461078842873427 0.34931804591210164
P 6.964258744478996 4.126583234121671 5.7905728638448055 1.1692844959173863 0.06948971936070612 -0.345605887167837
P 2.5919047919393803 8.807960453845155 10.011801155786875 0.896178832801805 -0.2563294720985069 -0.11974013087582602
