# total energy = -340860.99448239664 ev
CRYSTAL
PRIMVEC
9.38507699381901 0.00000000000000 0.00000000000000

0.00000000000000 9.38507699381901 0.00000000000000

0.00000000000000 0.00000000000000 13.73600883857554

PRIMCOORD
 96 1
Ni 8.366026439949943 9.271808362458675 6.8327160460685965 -0.06766320767492863 0.3959066923049182 -0.9485606888376308
Ni 1.4995100395879846 2.7378615455312736 8.796402601829111 -1.1491517297232532 -1.53563455761111 1.856286088826455
Ni 8.99452626677705 9.225586858947691 12.714475102186814 -0.8174380271564761 -0.6885524823359561 -0.5453687757252091
Ni 1.230580662307331 2.1510126897867523 11.121592932968214 -0.5310955536356466 1.2738072956228257 0.40462941688989673
Ni 4.285207321849305 2.799953214004099 11.354748274292897 0.2531089082786802 -0.5749099797174357 0.8110349518436096
Ni 6.870045189259446 5.409464448466092 4.360235380259092 1.3256515339876265 0.8145995292664163 0.26655474937094087
Ni 5.268519364257373 1.4090848240898481 3.6897251339058488 0.5915825552771102 -1.58172158177716 0.351268227659937
Ni 1.3275097360659975 5.50252687056049 0.37492537378895674 1.1229442180899498 -0.8719965791286465 -1.3527262787172316
Ni 5.17929543859668 7.3611193356984685 5.197967048999746 0.5925847712893794 -0.3440562832925301 1.165430926499251
Ni 8.644519210545864 3.9123569885529936 11.498742569971812 -0.4549659603609197 1.0514346400857375 -1.0791331344422705
Ni 1.779523192634419 0.9613415774904617 13.286703885206581 -0.862273695413928 -0.04217277671330801 0.5312120246088529
Ni 2.367357481448718 3.5259921445854503 1.8584272877853305 0.23147178962487877 0.10650100647773271 0.13158417469860567
Ni 9.040259746291573 2.022193124874721 5.041815324762834 -0.5870517572862922 1.6977752649403344 4.04941934479151
Ni 6.451827394445958 2.249809393839568 7.457911387335052 0.43615654096390044 -0.41543859169025876 -1.2707759649956696
Ni 4.3356990353293225 3.3476193738789037 8.284749797370083 -0.5977110367723512 0.3404842496705555 0.030461916034283026
Ni 2.9619114852912123 1.5253940815541351 3.2546920968912185 -0.9185764837707147 -0.5014430208765365 -0.8609696318905236
Ni 6.939701229677419 8.571024673694186 8.983939900084588 -0.35368814995533926 0.015004186718316095 -0.9311892874387189
Ni 3.368595020649878 5.47896094257753 12.1011622067265 -0.21402582623428948 0.05900913154435644 1.682987307997882
Ni 8.533381130428694 8.79080440348509 1.7616427442102311 -0.20184625344896204 0.42641565952705274 -1.7474289234117197
Ni 1.2753005535215105 8.113108003783957 0.3591584446725199 -0.9041471957192623 -0.4045985636519613 -0.9606507872329456
Ni 2.771150413136036 4.140489436744867 10.390658746299284 -1.1450413070993055 -0.8901223421950799 -1.8855874088937334
Ni 7.775414168386557 0.4337876373159688 4.020199968186365 -0.7630609950674923 -2.410799250055093 1.0263851533162776
Ni 7.603038461790368 1.6157442164374312 2.1760445667744666 -0.3408694009241162 1.3208929362567186 -2.2208224943502075
Ni 7.731923722240385 3.5507875176364188 9.000423849072748 1.111525691840363 -0.32408626792850637 -0.2124530824305309
P 3.849786681160562 1.8539562371715979 0.9525702846617583 -0.34452808072262603 0.11385847528406842 0.2744976583671015
P 2.1268555019619257 4.540706654150422 8.063971495401804 1.6206956490475122 1.6847428572364083 -0.02168905493765942
P 6.990558961154783 7.912558296468992 0.008323624662718954 -0.250489211267646 0.7011915112562053 0.035885658153015615
P 5.978903986644548 3.0677751522158596 10.082216318443617 0.534441330179428 0.44449154319215706 -1.1675433448565635
P 7.158730153319921 2.3966764615438065 -0.4594652075913088 -0.21200648181141551 -0.5479892440671917 3.0373488083256914
P 6.4306922013684495 0.17696407067060807 5.879753465194298 -1.2223746908741464 0.8329672331403267 -0.29368117327408777
P 4.972729897017646 7.052979107317534 9.657004764357765 2.3792088768433213 0.9746357886581279 -1.5987245440930595
P 0.5622411842306541 1.2581821733379503 3.5220091179681794 1.2904305060018033 -1.3558653385668455 -4.633633375518691
Ni 2.6877921605097312 3.110449096675645 13.220372977518343 -0.8728422149583935 0.8499773945450781 -0.6789681810816307
Ni 6.004778643533844 8.711772671288951 2.176511943601847 2.6608413464829916 -0.9242233976438469 -1.2912504307999373
Ni 2.8239883958298098 7.762199980174686 4.468405899074704 -1.0001318760467035 -1.7876245217939988 -0.9257555180176573
Ni 5.141839596868286 6.253023311426029 3.081742023591503 -0.042502649248900994 0.06778919172983164 0.0853714235879691
Ni 6.9972317507987025 2.8095729177804967 4.138000514362915 0.03414630686440571 1.2976907871086425 0.7577845771599014
Ni 8.83846182375489 7.55831857057619 5.021513526510051 -1.5640123374228547 0.8482547554270164 0.20493903344167283
Ni 0.5879487867519301 0.3071669959110694 8.709082908262301 -0.3987151082879907 0.06969257940013159 0.5285483617337607
Ni 8.507440778001413 4.3066334523093195 0.7580129489187261 0.0454650743113346 -3.2502343503079505 -0.5796572645944339
Ni 4.878287868625561 5.858333904288082 7.769306360369309 1.2278647674544403 -0.1000699061404083 -1.0640163334054902
Ni 4.664120414793961 6.921878968729732 0.9545083030323203 1.343523786282357 0.9808809982368913 -1.4964499169918486
Ni 6.335123963753761 8.49943530744408 11.234269227181924 -0.6194134614464494 -0.7450645584900718 0.7643887127399803
Ni 6.754533663327836 5.777725479180298 0.7454087907024317 -0.6303907863935595 0.004431296298476239 0.4566091523912975
Ni 1.5666884197162314 0.6646530198880244 5.2455202949164565 0.3238088458974036 -1.7556891065379827 0.3925945972125497
Ni 9.006445314382928 6.256674106322632 1.5670309750214397 -0.022115600952116753 2.8007198999799052 1.8361818618774122
Ni 6.7804458605245514 1.3851622631863973 11.445034590653579 -0.060444064218670095 0.9353513892362085 -0.833407406001539
Ni 1.8051913778329038 3.543241915844981 4.3437382921633345 -0.2787268659571006 -0.43203969058204944 0.213868988941451
Ni 3.7637161413231564 -0.06598741387534472 12.975075223758635 1.3452587666955929 1.613625372464292 0.7010727262901538
Ni 8.599799319331684 7.635782994937541 10.313531246197027 0.5454657063143896 0.9429783096538469 0.9020568888491367
Ni 4.499008757683559 4.168935604692439 0.6189955594960281 0.5334506841313845 0.19892239493394773 0.08686189209056654
Ni 6.218936712288589 4.037216051032205 12.555536010123959 -0.3698989553872468 0.94119293561865 -1.0373964168251166
Ni 0.6264904818724487 1.9980640922804598 1.5060570692020478 -0.09452660772467592 -0.41861621808729194 -0.11230141520959369
Ni 5.527528715302268 6.36059506233829 12.42524955769949 1.1716931053588788 0.7670446623055887 -0.047063272036389915
Ni 5.878427353834684 0.8138794959136151 0.4836571202004989 -0.11940280214106533 0.6651130203660932 -0.847367981946689
Ni 3.0816932211918573 5.77204750768301 1.93978558053383 -0.47136985564023987 -0.4194286866862583 0.7146399234516273
P 1.2402754466985686 7.913121401080294 6.090560123004115 -0.5276186508306397 1.3666945679718656 0.5557426627603655
P 8.763277973069311 1.0747508462065467 10.528444813638602 1.025186505022486 -0.6973268860944765 0.39276249024898163
P 7.729286515644124 7.525696043428133 3.231794386380336 -0.8668173489205523 -0.9996567361824977 -0.6589817106573748
P 4.615759113760032 0.6564410776398801 11.11776100608831 -0.352387943086677 -1.4154658238382978 0.47370236042815833
P 1.5605599645299022 6.188191200511537 3.318413953213761 -1.2544833984832329 -1.206131489542407 0.8997608937261085
P 7.71675743804267 5.954099228516726 11.596762189661032 -0.8583861874340636 -0.16348385162067974 0.2049680869073954
P 6.996199392344651 4.1205555335048 2.4630589871547475 -0.38386647331093243 0.6049119253961646 -1.1161863305408262
P 1.4033693122851398 7.812335060734213 10.552400222311046 0.5557362350024623 0.176090998861729 -1.2883687383767684
Ni 2.189932603504528 2.328024624349321 6.709298531394316 2.247066258538085 -0.28790827534605257 -1.5271476031860216
Ni 0.5247449866717849 5.673888988856335 5.589484300160696 1.5648839413945308 -0.001680987246848718 -0.8057099400862704
Ni 0.34695409073024935 6.629974923307985 12.114596005736779 0.6971368815708574 -0.46371825263225297 0.8892265698536879
Ni 4.6514693311933915 3.578980288508905 3.1399557783078333 0.3589586543256592 1.657867630112119 -0.701301040250876
Ni 2.620839022226005 6.587010041465695 6.786220498313447 1.1713562908447506 -0.6381002392226753 0.6080404437228174
Ni 3.4786819721592854 5.177709360608181 5.014481288422584 0.08838089983825424 0.5922021911389801 -0.6981779212408621
Ni 5.056266466104197 4.998867336058883 10.29986375877306 -0.34118770349548333 -0.15318452657720072 0.47207459501674826
Ni 9.137667458969846 2.263445910509915 12.863359961414881 0.9660130799861235 -1.0590006253584536 1.8424203865879558
Ni 3.7840442177911338 0.02077668314164756 5.630760806676768 1.2961815495529676 1.6945120208080302 0.4014309645572571
Ni 7.8059062830885235 5.303563241234025 7.139867087349011 -0.25194162744345644 -1.1674978363306086 -0.11468328517820894
Ni 3.054654814772539 8.420319109556244 8.859629864601393 -0.6178803126313747 -0.6163638759868482 -0.6827528449350435
Ni 3.747433032979693 7.744884513377171 11.142554502123906 -1.4048106581172968 0.5512409182352701 0.892498041516108
Ni 0.16480382658955617 5.354158190559448 9.555591500877771 1.2227886384831135 -0.09187374348286112 -0.13412313907037549
Ni 7.2116901420128094 5.803769067452984 9.5194936797703 -0.7323334840766484 0.6536926943442934 -0.6061185441097561
Ni 1.243813620672912 8.23438196690455 2.597438271595694 -2.547400675462632 -0.13763835131248553 2.5861790817824106
Ni 3.0115585418542783 6.137999809490879 9.1319866719495 -1.2736525152125162 -0.09861723285428178 1.3339577398604767
Ni 2.6590738253333646 0.9653865456149762 9.922192311496323 1.7772652900468617 0.057500665319629995 0.34513923194406365
Ni 5.228829874237486 1.2076247643199474 9.10807255761522 -0.40680945526035095 -0.9256418752579283 0.09073628744430826
Ni 8.852820991343075 7.4075660810539725 8.044274096098484 0.8864865452147055 -1.1941606903337758 -0.5394968903254643
Ni 5.49822850536089 4.123830925327202 5.711679877828452 -0.48023553356098586 -1.0013528929379978 1.1543376447995668
Ni 0.509611550243062 3.82096511013879 6.9926724804625335 -1.8489874982825123 -0.48178693720850574 0.22171496734843107
Ni 5.044713436495665 8.41827316280185 7.471152792269803 0.32035791123432567 -0.026013393344626167 -0.07659110629217777
Ni 9.10779475934031 4.558857392788035 3.497023227857054 0.11943802625437495 0.17747785190692658 -1.2994427368027428
Ni 3.128261972546476 8.700041325220173 1.8385787887446445 3.0058494521658297 0.977499483359168 -1.135523083196225
P 4.590729113787689 8.704105063498398 3.5018030474993167 -2.748352442121783 -0.36262916119871097 2.230111890071933
P 3.44875296206862 0.8454818652075304 7.7079889607370236 0.18098946460461085 0.3934186357757418 0.6509552408084724
P 8.696024512326224 1.9171928850207356 7.354712143729545 0.6263096743456504 0.5144772283526752 1.5756769182449766
P 6.994022054514286 7.1741310644390115 6.839900322401115 -0.8251230545055596 0.9882631496335753 -0.080762464061048
P 1.3354401260084912 4.522884393202736 11.844450322495716 -0.8163627918144264 -0.28010266325870464 1.1157430723558202
P 8.429216162414805 3.987062200318968 5.466628951590032 -1.5948948859343242 1.727157060536561 -0.38186255550702625
P 3.7950810681726397 2.7734028315812416 4.977696479689324 0.19573165591079195 0.3536848075212296 0.66438668372303
P 3.114991473873475 7.40019879572278 13.359380981864184 -0.4114071019333624 -1.9323616889347945 -0.40966852197570097
