# total energy = -381176.7516542312 ev
CRYSTAL
PRIMVEC
9.13694593475993 0.00000000000000 0.00000000000000
0.00000000000000 9.13694593475993 0.00000000000000
0.00000000000000 0.00000000000000 13.37284395218104
PRIMCOORD
 96 1
Ni 6.053820402559566 7.4873889030399585 4.987883306652712 -1.4302057011516336 -0.2981754616000155 0.20154569148940774
Ni 7.022208725494943 8.199613817394804 6.93137195280679 1.1326113088660685 0.4425094797651218 0.25960994262199166
Ni 0.03552444473395304 6.374837851449151 2.9955969748014577 0.634472669772417 -0.6099386891867946 -1.5299002262304942
Ni 1.9574626908495791 5.8333276298435806 6.526736831996618 -0.8040137833307701 0.22733925551374395 -0.05586544370905217
Ni 0.4760449196317285 7.191470643883956 7.80580871827783 0.19356421594582793 0.6406356040500193 0.6956649250110213
Ni 1.7547321405005691 2.696723827418356 3.500060536525782 0.18697730675692958 0.2898160338917267 0.6631132163272452
Ni 0.6707048058774716 8.510681132458444 12.245044935068362 -0.44581411865832254 1.760092892032633 0.4043630506023875
Ni 3.0134925965750994 1.9767781939790996 7.249659282332562 -0.024665878177796228 -0.4676510120277559 0.06450537877223729
Ni 7.72058203022616 1.5157370528189824 1.6812473413191673 -0.47854451901180817 0.19963947560563036 1.4425724502471027
Ni 2.229140633164229 9.053863415120166 0.40701346776599756 1.0681866627330958 -0.01773752648907913 1.1192899091668143
Ni 1.6139043970117783 7.4329783916225995 4.55516486965574 -0.7648355704694118 -0.8915431338020066 0.2587445092979027
Ni 4.624317842898776 4.741033186785482 7.417528730202681 -0.46118134514301223 -0.14056041005528697 -0.1810030914513657
Ni 2.415214531571367 7.050387065916628 2.1373545318217912 -0.18875573881359106 0.8441538458847655 2.503240693115966
Ni 4.682172982830718 0.12325556959158428 12.700964818184916 -0.004522570460701889 -0.09542083740417115 -0.26707822597457875
Ni 4.418709154666228 3.020920933398326 9.062869702459222 -0.43475786084416096 0.7290447860230477 0.12699269867318128
Ni 5.931175180938205 5.642995914757938 9.263689717470305 0.40009090558959487 -0.014211515613691654 1.4348177460023483
Ni 6.478679238898065 1.3429848211870765 5.354513301981692 0.24005464619788333 0.03692669782302027 1.3289947394282466
Ni 6.632764690542454 8.758712659399773 9.215520653634675 0.56246995418187 -1.334478131140321 -0.19367503049207935
Ni 3.134484031031634 7.227954467912422 12.49466263577662 0.38167255098340724 -0.18043770586619892 -0.06801904835245061
Ni 4.040092400323237 3.2175480040451028 3.1788183187729118 -0.11030341094295841 -0.050549687923093584 -0.36339612127172255
Ni 8.052143514409721 7.124222723811452 12.644331287887985 -0.254014193701769 -0.18742982091331592 -1.3292724185696654
Ni 7.013117464561229 5.526746555099995 4.003227565660666 2.1787744161402216 0.9172081426682784 -1.35769005048041
Ni 1.0518269107209892 6.46209568252149 11.306351685534567 0.8264489724058347 -1.9078019973175597 0.6473806360833366
Ni 1.5857351935357558 3.623639553993802 10.64299115658023 0.8135824008558118 1.668796875430113 0.26001771958337155
P 2.999768904190738 0.7625978094841552 2.4212732402398562 1.1165413998873999 1.1456408883565172 0.06659877096615627
Ni 1.7160097647849075 4.44732606847969 1.635966466007304 -1.4560159773465184 -0.7068199131865762 1.152002826018803
P 6.530768966117269 7.181575331731984 2.536414288388996 0.1965148139337196 0.7325599982651577 -1.1992910695818055
Ni 4.434205414509022 8.331003096014722 1.8304883843735504 0.3409215943182903 0.18117432692190732 -1.1273562311147165
P 5.096414688309943 2.7964170415367104 6.344424614118536 -0.3239697969553001 1.5241926343227556 0.9388964262749896
P 5.227749145255889 3.771511882588014 0.07595086081558247 -0.11621951931707726 0.6893528667500645 0.49137046713188276
P 2.7159296871999326 5.016676563517452 3.710496273151578 0.2926491324651476 0.13156874807963792 -0.45304200386532945
Ni 1.2679430864648655 6.45212727480422 0.40694219958983374 -1.4251277724080942 -0.5141108461521919 -1.5182960663326626
Ni 8.806224776842303 1.558013700397172 3.8396643602810587 -0.7349881480906761 -0.19731237013435052 0.739912581975487
Ni 2.7051298174274194 4.617483407543581 12.531811629449281 -1.445072590961137 -0.3849630488092209 0.681866071454716
Ni 8.50447714635393 7.458982138976723 10.052633909770908 -0.4863475599959947 0.44679345185245634 -0.044665204117858556
Ni 5.488005905493009 1.0571263392049637 7.6871252762955224 1.2078024494869262 1.713470564188404 -0.45110699162614576
Ni 6.713133264585625 8.818513968757728 0.7378211539324422 -1.4646700534770905 -0.01799103726078192 -0.6186197619005604
Ni 8.739031678443771 2.5459002653753102 11.39592299124853 -0.1740287170160616 0.22652832957667438 -0.5532710612914213
Ni 5.789552523176819 6.517100095406881 0.20198771666668713 -0.9379484605394234 0.6259234946508253 -0.24848040836773336
Ni 0.6998050641164549 4.978657732617766 4.5645128787625575 0.9592832174614575 -1.937321089822599 0.6850164441582396
Ni 9.013112637467534 5.128549326203284 9.82643237340529 -1.1865669371469179 2.1440277566876556 -0.1741205053989195
Ni 1.0044152996807416 1.7264807045135881 1.5315649837893082 -0.3859336402526063 1.2221386636039404 -1.3106337204225558
Ni 1.120555015990741 9.01002434983377 2.7836773982001493 -0.6053922074666929 -1.1857531829963708 0.8181993308025327
Ni 3.310288002514656 2.750129274812892 0.8310271366307589 -1.2059381425846778 0.8298695680516095 -0.01748247305547957
Ni 0.36582320302702287 0.8136294783956971 9.881648763430038 -2.3865421772799413 -0.3150269859397155 0.009800788140505702
Ni 5.895751242606535 0.23482041720860763 3.493000418612736 0.11749221538191379 0.34512971886236693 -1.8103774992197983
Ni 6.596819946308048 3.512104858297463 10.344522775889958 -1.1423663313703036 -1.2309814587065508 -0.3803803145345449
Ni 7.569621413998182 4.764652191321817 11.870017172981417 -0.0938717477494964 1.0869796270698828 0.6720691399689522
Ni 3.7296555345102775 8.342945083994989 4.194485767036437 0.3391652737488159 0.9867670247040231 -0.05424719137933884
Ni 7.94190626499739 3.4478721302934283 5.340203931380395 -1.2584248996294842 0.43684019729448637 -0.24697297058427145
Ni 3.6097422596418625 5.534558643641026 1.1126433347419935 2.3673545486078966 -0.7678208783499809 -1.1180472950089648
Ni 4.377136051904015 2.591685500087717 11.789432053326054 -0.4223764564606726 0.8749371498142092 0.009750394518544498
Ni 8.522961187428205 3.2518024133320345 0.33393709005568817 1.2573355232200474 0.9654854896174275 0.4812092103281647
Ni 1.0573638997921762 0.4535022472943806 7.568253613232578 1.1341560276453693 0.5046671842407888 0.5240661575926909
Ni 8.426502452074207 3.98455804458945 2.6965666719529695 0.4618768285481401 -0.9791154216960364 0.27771719374566367
Ni 2.7727614892177277 6.736258874056211 8.614491454292105 0.10472951639960672 -0.7276306792843403 0.5106812516453527
P 4.717304538901204 8.82497378934078 6.283966358367483 0.02973815049438104 -0.7929832365482213 -1.3565281689618252
Ni 1.8815346723981516 2.1027309899301136 12.547979454798234 -0.549135441856493 -0.8607860551248079 -1.0493489612013025
P 7.665303508970908 6.300600167945198 8.115751275330474 0.15003595364588998 -0.007305789632793869 0.5408526330224105
Ni 4.684365849789604 6.253718499753349 3.1816672184303307 -0.8462007011114652 -0.38790824748047387 0.15954517868790588
P 8.955851399003624 8.90873217022456 6.0021866089288975 -0.06958742128083499 -0.15252658127822766 -0.8639554539917249
P 7.548706945377807 1.831592127409523 9.316431822609777 -1.13633298069203 -0.8926726194207594 1.6251835096155365
P 3.3704273788621046 4.932278596437327 9.667482411890438 0.4991418835471855 -0.5041714755512929 0.41246948175960574
Ni 3.9857732583624994 6.389100623627573 5.708104875850962 0.827511095121762 -0.7475693271897964 -1.0849386853804541
Ni 8.054656174466778 1.4530484686318292 7.357952189708014 -0.14423117403865482 0.2682827878056412 -1.5429997397269297
Ni 0.8073962540650637 2.7232118328925665 5.835346894834888 1.4341929679341558 -0.4364951552502418 1.3040162151060382
Ni 3.7853543552659823 9.037654473515733 8.573971841364724 -1.8430497926418388 1.0349631247932756 -0.42092635427770736
Ni 4.693447973777657 5.088383313073024 11.688146269578809 1.3113970809511415 0.8511305343129149 -1.07875595360851
Ni 5.197122103396782 1.872516507029733 1.4655569472431413 1.6823964684914186 -1.4882092742496111 0.619926653637442
Ni 2.716340849754724 8.097746010208889 6.6094609106314595 -0.40390153758493663 0.9199342833501899 0.17578812290932952
Ni 6.644925965218609 2.1940273509850674 12.676051108448272 -1.5562442634416618 0.4253630498928223 -0.0022867391516476748
Ni 5.443691719032188 1.247302726214351 10.12471344670949 -0.21853142741412687 0.09572319913593837 1.2209639265695487
Ni 6.871723230441392 5.3265926234276755 6.330195648639063 -1.347224889283028 1.3797316036614817 0.2154183357064419
Ni 2.9759214760128527 3.914139604372224 5.844120190059564 0.23459567996584113 -0.21145626573490037 -1.5673817681157198
Ni 4.317124592795834 7.919146133353285 10.367725135704102 1.3205327247038225 -1.4033235320488089 1.6702053257418654
Ni 5.050812192510777 7.1274115178474995 7.77416930283937 -0.22729811786316337 0.6160003219998423 -0.40522334172015373
Ni 8.6507230986203 7.90310165677077 1.37054276299831 0.8791912971048729 0.32888548908936266 0.3272651798771202
Ni 2.255409351942551 1.8375585529268252 9.46509815178202 1.2850522724090254 -0.6123835511828615 -0.3040368054767989
Ni 6.927723570403944 3.8015358860334283 8.013475960368032 -0.15158478619024862 -1.3580399776206613 -0.16981185072123658
Ni 9.084828523968767 3.2348442421833163 8.974890052679585 0.428675659205823 -3.2214413373356585 -1.071244218612497
Ni 1.7199660622565642 0.6779193381722065 5.026851466206682 -1.167244839779538 -0.786018375194614 0.2993355433463877
Ni 7.98720724158971 8.051439969593744 3.9121989171136096 1.0667643284642723 1.846513325710407 -0.2501086879997757
Ni 1.827526186589922 8.272755067419313 10.272710951459272 1.7905674064724066 0.6695276044940212 -1.0473612413473123
Ni 8.687142964029132 6.663647566880098 5.66095184037295 -0.21685275416012328 0.5859814070402488 -0.012662425959016904
Ni 9.132103080824084 4.741298158209681 7.093116905999654 -0.6705928125337419 -0.12911463011219054 0.3133938212116667
Ni 7.764941901415291 5.441252154540427 0.7545764848874635 1.357418541986578 0.11123183629449877 1.8780646181541267
Ni 6.072359265307815 4.364545340781745 2.036055956350619 -0.7701567255720091 -0.7667680116054343 0.040034904434698794
Ni 3.773622517035942 1.5859362063403202 5.120488712740247 1.4081165825620783 -0.3427470775628033 -1.3823492437899871
P 0.5159788543421748 4.62203360648327 12.441357694784367 0.047693449421221085 0.041624874629637994 0.0670217174361878
Ni 7.456743587289527 0.2323232899591762 11.427789916633973 0.9916742321976534 2.1268934110002142 -0.38615449801416074
P 8.480063227544997 1.1481760027270422 13.052176217709228 2.0829008074693482 -1.2381059855664742 1.1390735195516448
Ni 5.262332484586654 4.433465321910398 4.719249794632648 -0.7838406508170049 -1.2923588333727678 1.3571598890085528
P 3.4124025072334474 0.8394678470333375 11.031312260910857 -0.9005952167019458 -1.124313844743967 -0.013886013953472859
P 6.481392911759687 7.658149280517543 11.321342672282253 -2.751303811440623 -2.6099538156045052 -0.3379954218104308
P 6.77054983112579 2.6858051773522362 3.684673437321563 -0.34904885141111497 0.22834095730538095 -1.9235320064583068
Ni 1.9435562595519769 3.998765995093899 8.163934044584597 1.4140488888861131 0.42709751608542573 0.10804881058082683
