# total energy = -340871.3609491536 ev
CRYSTAL
PRIMVEC
9.26522775603693 0.00000000000000 0.00000000000000

0.00000000000000 9.26522775603693 0.00000000000000

0.00000000000000 0.00000000000000 13.56059736453193

PRIMCOORD
 96 1
Ni 6.000680338809279 5.119455262990496 0.6454074258389476 -1.7838434574850117 -0.9045179487951197 0.17873357869089865
Ni 8.025456883520802 5.091048074731932 5.848943704070036 0.30838017004715923 -1.1663953472950492 0.19213365414688846
Ni 8.420340889906988 2.1656635977642757 4.739862588470565 3.445012898276854 -1.2935795931537464 -0.8528953395228215
Ni 3.44587717585918 2.1523402002705327 12.937853763444245 -0.7222326481972207 -0.4226129979515108 1.740321108722345
Ni 4.611776374066877 3.0101335151284827 6.717405002150723 0.1463371646380641 0.29706320237244327 -0.0017033558443519052
Ni 0.10420972251121503 0.08786215468231344 3.6057496070791304 -0.9527922104204752 -1.0836891292440693 -0.12574237120584797
Ni 4.430113053719295 6.381731360175883 7.811988815901473 0.41113147967447256 -0.445039188165511 0.2934716283664429
Ni 3.4429493638925437 0.459648874829172 11.291488576715482 0.4679983680648456 -0.7036661980489429 -0.32961542527685167
Ni 5.520593298102884 7.080903976081897 2.723889863159985 -2.840877703145714 1.0910034035172953 -1.3641082953019281
Ni 1.2256969780579188 2.485397341930885 1.2229377932361967 0.6154315939805659 -0.06849058867223043 -1.7942340566907165
Ni 3.3130416057146763 5.245332647100368 5.566082786750332 -0.23796588198965468 0.5928711921815467 1.8478646975319788
Ni 3.156107178211879 7.240117649609355 12.055968076887421 -0.778336176059008 -0.3472205399531246 -1.5375065778228423
Ni 4.629222797906042 8.592794573878505 13.216605552260141 -0.1571352836948326 1.327360032038301 -0.6555701138726645
Ni 4.6471602788155595 9.401889851721773 1.824890374439953 -0.7583913575059648 0.20942149469305868 0.862435674913089
Ni 4.823014301368581 4.562948623863799 3.100915143072464 -0.3877709505716612 0.1912815905592383 0.05885563668562767
Ni 8.500485109879781 1.6980753492825384 2.1587517378683563 0.8912785672867101 -0.3498415225157394 -0.37560808995688216
Ni 7.39020507381043 5.86752975092153 12.546400670891115 2.09629342672617 -2.1718658619458466 0.25587592950085614
Ni 4.348430805941243 8.968082623589263 4.3114968285912365 0.46111989577745743 1.5652729493028332 -0.5684642240920919
Ni 1.368362954837236 0.7547954841354568 12.418578515478087 1.206811803438883 -0.02009060010228798 1.3331108184791491
Ni 1.3822978573619853 2.718454880566223 3.5574870357683452 -0.9761175154099769 -0.8110084694810484 0.3950949950369002
Ni 8.916123226409212 6.580377842975504 0.7488898279723748 1.0550331560702733 -0.3692772626428479 0.4165940454509406
Ni 7.852595529528614 8.115477836267122 12.933229488277952 -0.6025624513273816 0.5406171199728367 -1.8671477141313069
Ni 6.952719550264139 9.109720160089159 1.3084539922541039 0.15386149803956728 -0.2072864506279269 1.0252392126372925
Ni 2.49015966899054 0.5226329665000461 2.973744333169737 -0.8779013746488558 -0.37011544227342713 0.46819068658130975
P 3.142440967291663 7.596115495160186 3.265093125624363 1.438999902404496 -0.4416602443909491 -0.5373613320397004
P 5.875275481314277 7.202352581330844 0.5615200538581752 0.41535863038194276 0.8429374569791612 -0.701680535077482
P 8.036491769762142 8.017924253366132 10.441945020639473 -1.7495500835197806 -0.5021017375064579 2.4756267880534395
P 1.922451369523136 6.228651267413974 9.811593589882117 -0.6119618902644106 -0.13867990520312246 0.18050866831345042
P 2.8904453031506145 2.5323349856744892 8.053950238397373 -0.11276292822704449 0.4214614008455709 0.250719067890265
P 5.145601735679888 1.9419268782379122 11.489215948923043 -0.26893919044271747 1.0645866040866632 0.07799724261108502
P 2.8023144568637677 4.133977844612884 3.98948661796829 1.0242336541909134 -0.3518289852594135 -1.7813780266636545
P 5.420602960305612 5.129795257151148 6.037394730261788 0.4282275159248109 -0.6677167765375275 1.5719693874864025
Ni 4.209396798436994 7.972635820160697 9.875857209504234 0.27082997970752715 -1.1225361840182537 0.16501442933259322
Ni 3.887541317117347 7.481838176183948 5.840874617229075 -0.25960402908472063 0.34731438521851155 0.5191898033369962
Ni 7.167746955712534 3.4564580659411375 12.467463710093169 0.6640812366674692 -1.0537776863966175 -0.7336187785469752
Ni 7.0159361991513505 5.490055107463538 2.6184024657430767 2.716817861848611 -0.5172871869976446 1.213722157405471
Ni 8.441558261437358 0.8855111701724719 11.612034881355111 -1.0046433907638115 -0.8389044245603681 -0.5864192659086159
Ni 2.5282212245568103 4.781802568369854 11.67045306879447 -0.8445752496929003 0.5103603779708243 -0.04811639589125262
Ni 2.5258307957992407 0.30574880941205 9.003748191261318 -0.44779592497504167 2.2060165396856264 -0.15317424216455555
Ni 5.913318506425061 1.0504729909913881 5.970907455981466 -1.2335857290986174 -1.9212933469357751 -0.9129388258689631
Ni 2.2453167606667166 4.978142009461588 7.953087116146755 -0.5446018156521976 0.5327071210971407 0.13887839436717372
Ni 0.8839870402088275 8.548849598695734 10.641719081655356 1.40714084891237 -1.0708269285694203 0.1292462705940484
Ni 7.739763586080209 2.219485305720572 9.860168399367826 0.7839797474980305 0.6298022608799411 0.35485234546676947
Ni 5.868104195041566 2.153192601222844 0.6096204836834656 -1.1675320320026539 -0.5946349689501889 -1.3964165205163306
Ni 6.619551225870876 8.769139653501881 3.996335474315561 1.8174410909347989 1.1214902592522429 0.16564692071026957
Ni 6.853813244112742 3.0758517755061745 2.3379014019293924 -1.814215642018966 1.6231538807800174 2.3068251237642725
Ni 6.6613374029896395 3.90781363541798 8.047224609579077 0.26061498684773826 2.01283079012514 -0.7218909485870858
Ni 6.9717966541859875 1.6232771657171778 7.846663004205078 0.6543876635287891 -1.1589625451660879 0.020716149501428843
Ni 6.565979679063628 8.558476170320212 8.792026619071452 -1.5118500535970028 0.12073694757145659 -0.3952063238037839
Ni 0.3917171515437925 9.117984743235485 6.395638467017405 -1.025698668772214 -0.02202638367242013 1.0938305885534452
Ni 2.9877301944470704 0.6505885411925646 6.374986274379329 0.3831540206249401 0.2965111865237151 0.49378576144159475
Ni 4.716427121418636 4.0150586465376445 12.459083311600061 0.642580643591532 0.564405480641686 -0.493886034464885
Ni 9.149579169837478 6.0860316167733695 8.61718991852456 -0.1937058837300148 0.6035644102293347 -0.16280970837179057
Ni 3.4628325426279907 6.564154429198352 0.9105986273308924 0.4985237903472124 -0.12614654862280208 0.7762101308549407
Ni 8.187514981965212 4.261736069954487 0.9090939543455071 2.0161925075085216 -0.4891552046481189 -0.6774507159958397
Ni 8.398650991761748 7.287435167690402 5.259870715951156 1.5159854159216148 0.663810756614902 -1.0967624174882595
P 2.4450380098844695 0.5286794541248143 0.8248665485065841 1.12847903186525 1.271040788621282 -0.5841872912543036
P 5.696039650635234 1.5349517496477385 3.205047037670642 -0.7529627302912258 -0.8925589766610306 0.5672414074285844
P 8.765396501493903 3.9001327616194312 3.085944388086101 0.09999585836936327 0.25796623637098154 0.2684172565009764
P 8.054531168176828 3.134685971671174 6.659717841180248 1.2474072083627419 -0.9603810785113266 0.4712590410939884
P 0.8599511863991832 4.398676135988926 13.40667058112464 0.3465543671240354 0.5310294762844016 0.6819257210480579
P 7.921843841676205 1.5291702475364062 -0.05639836779149111 -0.2990923169873301 -0.007892258263883182 1.7856476005732858
P 0.9333234514149702 1.4141887712517378 10.375863563334274 0.6394678089941632 0.404252236056136 -1.893677127880403
P 7.995715502467314 4.886444050493871 10.5313359378993 0.24430853637823083 -0.36086744131259785 -0.2247241864884001
Ni 3.688996751822894 2.4948942003669674 2.1093912370700827 -0.1182676600953576 -0.3973627080251544 -0.4926143668413129
Ni 4.407524428483033 4.23869344855884 8.734475656948792 -0.9607634015514098 -0.40782709789158794 1.3341022358581411
Ni 0.4924588993109824 4.022276258949067 9.49854748710006 0.05389803557003622 -0.5328112507751727 0.5737483553091667
Ni 1.26519464392428 7.38586894722693 2.4010531942224063 -1.0229578728022835 -0.17420483758260966 -0.7966969379543827
Ni 6.531689071188564 2.970858214727942 4.985987804313953 -3.318260340638937 2.7140418417653707 -0.22662474594522264
Ni 5.918886908298315 7.069201993443096 11.68817744946591 -2.2133061313685043 1.2438014932893546 -0.37214481399863003
Ni 0.3263796920263185 6.278007135598376 11.419582203301365 0.06427629348056672 -0.19296077803387413 0.2690924281911301
Ni 2.9885362692606696 2.734641233432405 10.513992358088077 -0.5919129420333354 -0.27749864997695434 -0.9805254146696856
Ni 6.1828532466827 6.011743020733848 9.595167135044603 0.703610148000027 1.0216628081399437 -0.964118948287204
Ni 8.889170678906222 8.6368322013387 8.709565165640253 0.7657840504256102 0.9397716297910912 -2.7114992778491755
Ni 1.6409088941111927 4.904761405740833 2.106801605916049 0.23672532471433425 -0.5923076063685928 -1.093924176708516
Ni 1.897685415767381 7.5796975116004415 8.015140052429507 0.16410785835792382 -0.8368871370200233 -0.5072223465624749
Ni 6.327233290594383 6.431448572242243 4.706706970993959 -0.5953116833022393 -0.21547824241009986 0.8356964591460317
Ni 0.19629218843024618 9.206115589522332 0.750383382684469 0.23621521784713512 -0.3886921768343499 0.985973068047818
Ni 6.123092527743449 3.861830310131855 10.296127939904924 -1.2958375359499876 -1.532073579732729 1.449191498225517
Ni 3.971150732265844 2.277707996854565 4.490605725650206 -0.060825358817488795 -0.34636050594567447 0.1411597342021827
Ni 4.868904974377282 1.6253896376424724 9.282228508904357 0.31479250133140624 -0.09853418622217223 -0.47843190469334373
Ni 0.28070026621014826 2.0696943688072578 8.030504579594925 0.3857377221917163 -0.5188568454776097 0.0838480449649072
Ni 6.0396406214665745 0.05056961301867202 11.10511203501528 0.6971206836209414 0.6178885401614908 -0.09001046502187723
Ni 1.6577252824638657 3.3580798777710643 6.2994672560956 0.023392667892327457 -1.1555226662466034 -0.6865148830806371
Ni 0.6821329355647469 3.0393653086561323 11.706185346106272 -0.3718043999400758 0.7647427536452894 0.7059153990944358
Ni 6.964838468151354 6.652609558456186 7.323278627735114 -0.5171905135187802 0.04532777740252193 -0.40593785128867504
Ni 0.8588903178226647 5.077298476762032 4.445245023668378 -0.3333029014307679 0.5099842255783281 0.3124394277181974
Ni 1.577525471124616 7.694447357191546 4.796030252091268 0.5194404858952215 -0.171284321501705 0.5461426777767563
P 4.406032726816487 5.667363770772137 10.873321053012345 0.4313953721298312 -0.32381784475846814 -0.25519278739090245
P 1.621748403139662 7.563724258972337 13.501744789081732 -0.9642115080010103 -0.24232595873056326 0.6053582689049639
P 1.3336183508027875 1.080640572521032 5.025231602940169 0.8558963311326743 0.9607245778936746 -0.35767567384817756
P 3.902662168793139 4.24435450270952 0.9597191587306343 -0.27325247310609063 0.7402861632648219 -0.25322692191378326
P 1.0528634197489581 6.2215263072799765 6.363743847036556 -0.5601058248250675 -0.3971572768825676 0.3879439858144158
P 4.14396576011932 8.563868532866358 7.829807701895886 0.27734284112538043 0.03928054276717751 -0.9105122187053416
P 8.067678526343464 7.470645781070985 2.7274430779992413 0.6112813192576182 0.656191035286115 0.19659426102140337
P 7.32860983977816 8.670817056698263 6.447250418157111 -0.12815406597113413 0.6813269111217943 0.952809693921972
