# total energy = -381164.07388423 ev
CRYSTAL
PRIMVEC
9.32545290264510 0.00000000000000 0.00000000000000

0.00000000000000 9.32545290264510 0.00000000000000

0.00000000000000 0.00000000000000 13.64874295425083

PRIMCOORD
 96 1
Ni 5.61144205813412 1.0613391167497637 4.149190531898345 -0.1545502965764758 0.6676285876990954 0.46023183674554935
Ni 2.6682172264778967 2.707729170294125 10.560209974862476 2.483883885855909 -0.7198011559375926 -0.3443715005401037
Ni 0.4429235746717816 2.2952270879795065 1.2672376557885332 -1.5515082914185732 -0.6917848732303247 -1.262701415517651
Ni 5.468249729293388 5.579735518371275 5.3789016327869765 3.11418159831503 0.8079406291890022 0.5814117853916954
Ni 5.645396032038979 2.6523639565964743 11.763264268718139 -1.3873544103140623 0.010462590094220691 -1.0762265023184368
Ni 8.716612704355512 6.624428701745545 2.894530114397503 -0.10540494520007652 0.9565239095487654 0.08797877930382912
Ni 8.274399729192533 3.4265071012649586 9.028670333792011 0.9457787552171195 0.9512351503460004 -0.6345068654444621
Ni 6.43377914324213 9.182307169848741 8.032817344741256 0.3961419482441758 -0.5169277467756969 -0.5474336286740378
Ni 6.6296416299006715 5.025691712374166 11.167592573648275 -1.1022766624382692 -0.364990719452352 -0.8486576472923901
Ni 0.09891601115249334 8.984766101673342 2.2641630719195023 -0.3117010068902761 0.06500880077121707 -0.12133112951202976
Ni 3.9555120663022914 5.782918485533885 0.10400118060328145 0.20260267199901236 -2.214125541946006 0.4134030493174687
Ni 2.868248190569966 1.475109460654896 5.712695027776193 -0.33941338520388 0.14635927612525115 1.908378695756636
Ni 3.3169889827429424 6.50615398297726 5.311271583472828 -1.0846440369581707 0.8710028477568097 -2.0010854766637536
Ni 6.131513239320627 4.94772160091618 8.50855812061287 -0.019028477386360775 -0.5388366310336462 -0.26428626505173836
Ni 1.790720087635408 4.951890078349708 0.4220037862453136 -1.6071431071740578 0.5978719878302478 1.0634735735281429
Ni 8.448757721529569 5.66824339157397 12.926260147219306 0.37685790320358326 -2.0854140608095055 0.4075298783661433
Ni 8.394996485725803 3.5814681516294296 11.41990295908284 0.07868681247894191 -0.8366948185035591 -2.7253873486851776
Ni 5.426471700429404 3.2475423352094395 0.49924278219817925 -0.1203811068939346 0.6190676480712565 -0.0009104276294113353
Ni 3.660921010093972 8.358235550506645 6.8321923313586 -0.5985875258400336 2.0060515624197777 0.6553199455350713
Ni 7.306725461083364 7.5569273616237 1.0645694536244255 -0.7087641813971407 0.6108380610726124 0.4866391230944845
Ni 5.014165452625084 9.174091445869015 11.78645387237351 -0.8036183476645643 -1.1172893337970176 1.2800774449022536
Ni 4.855166481167286 6.561854912978283 3.0192524512810914 -1.049622012357031 0.2525008423810361 -0.04895586107341247
Ni 9.152745484246323 0.2757042165078221 10.888106886001088 -0.35935177599901985 1.1563870711294277 0.8444356387912425
Ni 0.12002044354581552 5.873897603747509 7.044403269446036 0.0998099676108023 -1.7793949347953548 0.015359770285521934
P 2.5767811610735736 4.817948598757429 7.7399841363992 -1.5040678385484225 -0.18468156874421743 0.7569667092442963
Ni 4.102378623574365 3.5995035774827664 6.639130278197347 -0.0128575726889585 -0.15339175749200035 0.2728408394899688
P 8.879220626074552 8.40001357937063 6.5919882488417185 0.45645617175320097 0.15428033074454076 -0.013423472494757527
Ni 3.5084405301932997 1.6314133762328524 8.262634737849943 0.08473276156270569 0.02560047417692365 0.4219316556137701
P 3.423812045385117 1.4690106144769841 12.376448231735251 0.8579354730498903 0.04742399780991832 0.7585659354106161
P 5.750801625844697 7.369280598944883 7.011045191979662 1.9565737674046237 0.9556492202532962 0.6454705635448174
P 1.9719043114743264 3.787057085632868 4.818306696147691 -0.660209669527205 -0.2106383978192953 0.4838227366916119
Ni 7.084555871874532 8.585963109626848 10.711150822494075 -1.3538598781010425 1.251991742409631 -2.375164017349987
Ni 6.311205390700119 6.240070836196887 13.093306984505146 -1.5324106513571738 0.8816202182613396 0.3042322093170567
Ni 3.8837527064566753 4.292142264054995 2.1612650923909102 0.8154091696519054 0.2527967763549001 -1.0517388015897176
Ni 7.826843269534228 4.1826334709858495 4.2679072771327355 1.0570010784299217 0.9395518004708012 0.24732006951104502
Ni 1.450424986904234 7.053819179210314 10.217093924637695 0.06362657571170977 0.0628264484079176 0.7087443839027987
Ni 1.408926721626392 0.584805677384079 4.1701410943192885 -2.675737546868534 0.5025815053563537 -0.06658951499477564
Ni 1.380493415821417 6.49986862774192 12.493513439266112 0.000945137522088695 -0.24761703192617354 -0.6793623311962558
Ni 5.168343164948356 7.728580972628022 9.664906816307287 -1.0823583262477876 -1.0353896708077328 -0.7376176152937232
Ni 0.979760055030537 1.6798311275412916 9.533333069199063 -0.586325677753545 0.21741145487707073 -0.9759552788004997
Ni 8.7130597068115 7.400632771498615 11.558178909169756 1.0199980188430113 -0.4603495932703362 -0.08497418814955043
Ni 7.374120508985153 0.45736403844318335 5.512222037218018 1.2126435796293116 -1.7501617489618504 2.4563699967063566
Ni -0.03435496837833013 0.14449695969744503 13.225741470913402 -0.2219646214653919 -0.8455085601404471 0.623791535909487
Ni 0.19061598687307793 7.164624210228588 0.5745141075951742 0.961209230839577 0.7365004709701445 1.4348722533893676
Ni 6.4582304806710065 5.097469723125525 1.6257975885136802 -0.27126218214893927 0.22179724264959222 -0.05131253423104712
Ni 7.247033237253372 8.50923328340076 3.738936816271027 1.7350804291486959 -1.6135009310712856 -1.079901637177179
Ni 3.2837157668976973 8.89884137891603 3.9387682156716477 1.4525095068551566 -0.7779767358370602 -0.2703103597586312
Ni 5.30349695341392 0.9513080983198189 13.76803334120194 -0.2931813508195338 -0.36097054254936545 -0.22760613602188542
Ni 2.412858350499663 9.066195956146625 13.701972765606053 0.3948800508126167 -0.711638160510826 -0.9506689934298853
Ni 1.59966020920565 0.35147352108815116 7.357627513036751 -0.6222475884611348 -0.4623812789883843 0.1356071798150697
Ni 1.270369142862758 1.9433217984234084 12.378386060841931 -0.6192327128942109 0.9256657865173283 0.16362809050802787
Ni 5.279437285005643 8.322817480500973 5.083255867858899 0.5333205863114235 -1.3611702957195266 0.21600866099227314
Ni 7.556209301752601 2.2899209052956655 12.993808132548187 -0.052579316758612674 -0.990091718201882 1.6767169016081382
Ni 3.831912513944423 5.6326947652280985 9.689665893680921 -0.9497955896859965 -0.8466719843209289 -0.13823510435622
Ni 2.141907317320406 -0.010928498220023094 11.229093935335323 0.4604205557175877 -0.0825727777969094 -0.22512630702282518
Ni 7.6953916858586195 6.991357295877509 8.732479029870955 -1.2498158178042347 -1.8572068008685112 0.0638417770463094
P 6.830474582939683 6.012212720736486 3.5361846850310767 -0.08834130484957042 0.20098467677961515 1.230747231208558
Ni 5.957537590551321 3.169796034620368 3.4665897627969184 -1.262085122089891 1.2645292127550094 -0.3842688509556737
P 7.600682386496426 1.4400364324054664 9.67297333304107 0.49810367209065826 -1.0828540349372833 0.5317799812971808
Ni 7.512165187840859 0.7433859360079502 1.05979668684483 -0.2861794655804039 -0.9489874919624044 1.2655216585752656
P 2.99417910614569 7.8329421157121395 2.0797951384702795 -0.6325417712982913 0.5672162106176037 0.056598722330650914
P 0.003625736076410085 3.631872224399483 13.160186334863145 1.599235422291207 0.24030532875610872 2.9850721104091624
P 8.51046424317979 5.46610487513296 10.288340384575383 0.8343137198658922 1.4462974645071738 -1.108138520535685
Ni 6.436623406367914 2.2603778705989908 8.089159865899832 -2.002425792741732 1.0268908893081024 -0.2474712503769286
Ni 8.90536919592603 8.79008794752947 8.75669256825161 1.0779794804538014 1.100174528493602 -0.4537786249210379
Ni 3.991694823443421 4.566245300304793 4.36725692184375 -2.109467759324599 -2.444566319203209 -0.9435107851185491
Ni 8.96715032119922 4.651237477774962 1.5979536513301793 0.669135511261925 1.0110395240981427 -0.6216019844573359
Ni 4.657252394877031 1.6787773513668205 2.2225202621221536 -0.36079545042408184 0.7971237410791563 -1.7060081943730876
Ni 8.241695365972445 1.500838385127158 3.6147740065597245 -0.2327655687356378 -0.16445341462280064 -1.2459892449692929
Ni 4.532972084459549 7.781689426730788 0.646028208030272 1.170493685734139 1.6841700154520738 -0.38286657129150836
Ni 5.074072161871119 1.2287496466975873 6.340100306422229 -0.6598175762951088 -0.9003121382438881 1.0507085605529904
Ni 3.1380521930460374 2.2641173772004324 3.71172141461106 0.12283548197169813 0.3409732734918321 -0.4447687081129437
Ni 5.200031053805459 0.7583905896780733 9.851922245826707 0.43356075521226617 2.036247112166551 -1.3894863690554005
Ni 3.3502528731353154 7.343076076376178 12.040839171071969 0.6750433921059278 1.2119822918962289 -0.9205716598238728
Ni 5.501746756007547 8.919814322423866 2.5024283927844144 -0.9596709398181794 -1.007571363043884 -1.8532457593382343
Ni 1.6364118189719363 6.158025501834089 2.4991532937359695 1.0042649243784705 0.4121568356151934 -0.4856435919504346
Ni 1.433116946374869 2.8429482369297894 7.435548199594517 0.5872052521450208 1.2761238595711442 -0.1732005646878114
Ni 1.074133638089359 4.382748364153762 10.198122223316068 0.1487527160580922 0.5106527124002626 -1.0109215104630396
Ni 2.1202069884886 0.9722344145632968 1.8606787025315519 1.0659341192534932 -0.2597045592183269 1.6357890530455248
Ni 1.6085939930564754 3.668138910616455 2.604875952939316 -0.3136085083256341 0.8103345833424755 1.2061877967016388
Ni 6.777832401480488 2.548142695305427 5.6753251404845315 0.7897796420092592 2.789709664912331 0.2881059931791554
Ni 1.3997504760009098 7.695792680332091 5.477077202981479 -1.0331736369930207 1.5366856245834437 0.43961133228172034
Ni 4.1468983355825495 6.206042258669057 7.287937471183303 -0.9041163424813268 -2.400328432430756 2.3923662401608867
Ni 7.541064766289405 6.579498669811019 5.984332414286786 0.020756772931377156 0.5742432926677142 -0.532415815108967
Ni 2.7280493321009605 3.0139956934974688 0.5615321446528633 1.6258913343158385 -2.3857531057197425 -0.8715571775983829
Ni 1.5471019568222981 7.300402804036537 7.986998597148084 1.2858107478416048 0.2678534135777064 -1.0975615163507872
Ni 8.65568019529362 1.545693813438713 7.401535475336568 -0.2521635136462754 -0.5069032726601593 0.8212897968023984
Ni 2.7458236452738967 4.484255918659224 11.98988862676365 0.7381881430852125 0.5980547932650152 -0.15589652619172506
P 4.671828077715069 3.458885073634547 9.704378660676168 0.37880499962762504 -0.8285408219378569 -0.3086604202917394
Ni 7.576454859936463 2.96316264989533 1.8279211842300969 -1.1258050845775127 -0.6444886592475223 -0.1885384805964624
P 7.781409663144645 4.208492951798312 6.880767682820566 -0.1758248896845359 0.1019871777677792 -0.12152421935944234
Ni 0.6955687438644307 5.663571339685387 4.614830909764919 0.509929718191309 -1.3566940051157281 0.5504253643125101
P 4.6696365962902835 5.758597704445209 11.688387409977604 -0.18151191276698417 -0.4901242534296075 0.19419927842666554
P 2.739668846378756 8.737268582465719 9.221049763803075 0.5434386485820317 0.41844061174137615 -0.7060704366150614
P 7.100567674454769 8.74623966812803 12.760564568054537 -0.09893913497007477 0.1640536080812207 2.248781698567295
Ni 0.08177769386538827 2.3190256437073837 5.393614399782224 1.1303456527603435 0.9556556480111994 -0.3146174092061227
