# total energy = -381170.1416560225 ev
CRYSTAL
PRIMVEC
9.23684873771917 0.00000000000000 0.00000000000000
0.00000000000000 9.23684873771917 0.00000000000000
0.00000000000000 0.00000000000000 13.51906180262857
PRIMCOORD
 96 1
Ni 3.126211374152437 7.185464525634643 0.3893396299851888 -0.17956918721831655 -0.5925644595744053 0.923185700407952
Ni 1.862370341563336 6.559982092743207 7.607540470381639 -0.7722969118434635 -0.19835238136309064 1.049781934973663
Ni -0.1346510826646316 5.155565462862849 7.145081024001331 1.4735717268420945 -0.9439429875599615 0.37650746184269995
Ni 1.325460048919345 6.762241364304194 2.2053243657612036 1.4104328894000806 -0.9545433887836271 1.1039113698282148
Ni 4.562522841896434 0.4418612742297394 5.340448375029374 0.052622768402038396 -0.3263974325601863 -0.42257494562472386
Ni 6.127651398793717 1.206036834688537 7.09372229898268 0.434254181734865 0.5905746828378862 -1.421611017504087
Ni 0.7748487388982516 3.0600108809671793 10.194480613413994 -0.5182325816300495 -1.3079582304729216 1.1584339263561274
Ni 5.56688232647936 7.680291736521688 6.870548955052493 -1.013349660288558 -0.05732145942928838 -1.8231229718109248
Ni 0.7488710261824404 3.5279034416340185 5.577302415269968 1.8366552019694047 0.5032571912671397 0.007034024028645951
Ni 5.213203397490449 3.18471757253885 0.8511857496252287 -1.1646876205753232 -0.08481323709165393 0.048228753099400806
Ni 1.658448437272707 6.056112007176608 5.349601168206055 0.08511559882342115 0.10321179420349967 -1.0456303746991347
Ni 5.5361513315264705 5.495592329771697 1.9489750330807039 0.5763701092027299 -0.683903413599719 0.24913912499765478
Ni 8.022369183797094 1.1014572359940362 9.389920627637034 0.37713223991089245 0.34797644428254265 0.09046297917826354
Ni 4.289564731931657 5.2514070028782305 13.407650450381272 -0.17232407562012905 -1.2295136159117728 -0.9433871150564915
Ni 8.991268406996149 3.53184757594267 13.442083574212166 0.7844433173980103 0.5612196267145366 -0.8375255419349705
Ni 5.118202410688387 7.288132096690055 4.39107215481572 0.12154144575062292 -1.1725099448332192 1.4271203773580905
Ni 3.5921364860892 5.739445130119235 3.359324490751336 0.3522095085272838 0.5096013883176127 -0.2613408092701692
Ni 4.027773971800978 0.359524930403303 7.73843215570758 -0.5016250549803554 0.03538377881593261 0.8508505411786508
Ni 4.4311748562546915 0.651302195497931 0.23271131368923526 0.051040254406266944 -1.081467696112718 0.017778407029343576
Ni 2.802995571509973 1.9445967668926458 1.3645466970235358 -0.33754702141910253 -0.318853044554025 -0.6399900000462204
Ni 1.8720782693347473 4.406669497189464 12.0253810121446 -1.4946887113263678 -0.9716149995539332 0.4444612041748539
Ni 2.48660579990754 1.6019835824043547 6.273371920698367 -0.2984199735106538 0.8994153374612317 -0.10968043264697884
Ni 5.394725944173397 4.251767547877789 10.806353473728457 -1.3736185487852084 0.7822771629846269 -1.1532333559917947
Ni 1.280042464854616 0.5033639062689079 2.64715423470605 0.34922677174987593 -2.1335733941235513 0.984869293460678
P 2.5594660608598647 4.1169095598068015 4.130437848116991 -0.7341787648155033 0.10390213540230493 -0.05821234667467393
Ni 5.859930581927314 1.2147564196706613 2.064576963087884 -0.6215245942521812 2.128090516632109 -0.9348628796355641
P 3.6276429317155605 6.989098363415389 6.045954244883344 0.7844836837176425 -1.2911113341189118 -0.2751041816028488
Ni 2.7145712208384962 7.854119988405791 3.973927763481812 -0.45637132534887853 0.9005353099982878 0.19904452233410883
P 2.2787859455507498 6.35730716299981 11.874873031663428 2.7906321767266005 2.932905969928568 0.6934213803924832
P 7.69906101266965 2.8624162178976897 1.5801892383732932 0.15638400735110486 0.3724710869897972 1.854373188074458
P -0.08616871226826195 7.148009104975202 8.763001864804156 0.10472334575201964 -0.09804104863583761 -0.3230567982227275
Ni 6.14869293967219 5.978319269126345 8.940249598002225 -1.2023964479800067 -0.05842343424421551 0.21289634061553658
Ni 6.9080912020878165 8.632370658605861 0.9918721890984619 -0.842055311484524 1.1297237029056286 -0.06588657539048008
Ni 9.033822568026494 7.409531996499438 6.357487281545521 0.7279204426106173 0.01872174477921937 -0.10377075203076322
Ni 8.932060208123886 1.8713393214549063 4.243904218751431 0.8868837806531241 2.4959315610490624 -0.4347372920188707
Ni 2.7863692442135495 4.306726796440965 1.6717809043947385 1.6663856948854592 1.8866377045351184 -1.131652287386909
Ni 3.4684089004583183 8.372316425992807 11.960921664901216 -1.3091257684184614 1.640488515403723 0.13983355919159143
Ni 7.183413945268084 2.88742036678181 10.554372246702666 0.4930339708772347 -0.36246718169954995 0.5384825901283371
Ni 4.1825004209911905 2.6173533903969113 7.543190117950533 0.07126532320389017 1.5852205960693537 1.1371698747710286
Ni 3.6734946476596964 0.9237956919832577 10.384869610970185 -1.0320698624058806 -1.475232402373969 -0.5726808332766008
Ni 6.24031323992398 9.295594854460177 12.13837353245109 0.18209015386795738 -1.382704827357193 -1.530939466128286
Ni 8.712629635205094 1.0608797605422657 11.92423105529741 0.7022184098588229 0.07734958172475712 -0.6671585900412123
Ni 7.753392155534961 3.6344597259070945 5.751063238160035 -0.8141012494737592 0.699939384016659 1.5281215370635166
Ni 0.4184264659054311 0.07007073270592522 7.817951260742122 -0.7427245975029854 -0.3592278488266458 -0.7154109972896968
Ni 7.889663381426144 0.7298274156340874 2.7590244779200326 1.0049645215486562 -0.952599891904011 -0.3548672578651049
Ni 5.572720014730104 1.5510515997863121 9.327733545124161 0.7492958229625999 -0.2690250652883044 0.6148250707448185
Ni 9.452159436501493 1.4738038357974308 1.0351717638025966 -1.3748915019603611 -0.4216971710054609 -1.6422898302785198
Ni 4.248026624236093 2.9762419019387014 3.0258899626155205 0.5049870294740529 0.3418685316125919 0.7610136256201603
Ni 7.941020259075096 8.14097031851158 10.415814900808225 0.4239155188130183 0.629146115353181 -0.5883367946463028
Ni 3.007684134225937 5.9438565873802585 9.719272468736728 -1.3000883408065416 -0.9259365236802118 1.5771619874309355
Ni 5.120483912267396 4.945750449230488 6.724057156298259 0.9153908869538816 0.5993331457568066 0.582960617936054
Ni 5.05320270780787 2.0958593978961035 11.933789346123154 0.6916964272815764 0.376347539226068 -0.452277357785163
Ni 7.3855346641016 8.666463866412025 5.191022029507321 -0.16940561642175342 0.0582128608953062 -0.032409526678957086
Ni 4.8995107856494355 2.968944791625271 5.326320615251664 0.021485680677601704 0.044593984560290935 0.061912421234080466
Ni 0.66836542572831 0.24957502799205725 5.283735972621274 0.02950906520271047 -1.4147657124474795 -0.5379334024930864
Ni 0.9615189812491419 3.3617048266092744 2.0751891783272507 -2.41890645254326 -0.02536881778209179 1.4914403795923992
P 0.07961516825892186 7.26984313666399 3.9765103863218565 1.0140029776018407 3.4227252905232475 -0.08614789674267744
Ni 7.2196039176832985 8.625101258837924 7.884627451625027 1.8823074525908807 -0.9362088521404973 1.5482697298766173
P 5.799493882204816 8.36393860440511 9.932967882423105 -0.46120371374051544 -0.14985366243175482 -0.19353644803168604
Ni 3.1554459996486477 3.1565451846199113 10.526739290736012 0.4806600226929142 0.43551582205610806 -0.9624425890260456
P 4.206525463934522 4.415352134777596 8.850753772904978 0.7613293570883662 -0.22384229810407902 -0.21223351022055703
P 8.544694492662723 4.325736230649875 11.459594483726121 0.2078577497503646 -0.11290639578344426 2.4815097291967776
P 5.997688940426677 4.849770356487637 4.265250575630338 0.016427806538720092 0.36680540406358764 -0.12477460797593994
Ni 8.536335144772021 8.05975994651705 12.79991477450907 -0.866978814199081 -0.08824797380481576 -1.0675084057191486
Ni 8.84442098957474 5.409467954376225 4.295560370291717 -1.4023429133030945 -3.21813387022898 0.43872918678708306
Ni 7.180993890961605 6.075546336416427 6.919177267655131 -0.3860724798233158 0.03533389941460366 -0.853564340565388
Ni 4.6407681855231 6.635373250183988 11.40461306672655 0.10364785329965374 -0.6992171611386538 -1.407342423400215
Ni 1.537510379888225 8.828542847006657 0.31380807244723835 0.6673395957037669 1.0451876307347614 -1.3419623553325084
Ni 1.8482841476038663 8.411388295139403 9.55290666675417 -0.032849442429853104 -0.7039521047204779 -0.32603464990412884
Ni 8.610035958937665 4.740673938877607 9.53193902066368 -1.4553850286307386 1.0114480723904709 -3.8774770779908314
Ni 1.7351881745941973 2.0777274642945045 12.624045179106904 -0.697783771126237 -0.7564686865619553 0.3133585970983571
Ni 6.661550478827356 4.084885406064192 12.778595204490806 0.5655732756975421 1.6053374214238867 -0.12436348858045035
Ni 6.8754389426473415 6.186684097544518 11.166704178387482 1.4823376459601825 -0.632199300357208 1.554681546940232
Ni 2.338225065635462 8.541738701143359 6.4153081057733825 -0.05484831529844748 0.0983539518905661 0.7441998964969313
Ni 5.591969606999962 7.247656226571763 13.422034994547229 -0.6392510649976668 -0.1493978058412588 -0.3229866071064244
Ni 3.0238116717034673 4.3651313894939 6.223702615270003 -1.0118090552743155 -0.7107943244532919 0.33890867765331956
Ni 2.08444265315256 2.123375969571684 3.9354119526147984 0.9808352326006206 -0.547116097433619 0.6508827356993242
Ni 6.97263829939193 1.8316023992164552 -0.07339137974096081 0.2743356788679404 -0.9348590229808222 -0.3276652435290163
Ni 7.243961487172558 6.93991214516347 3.1208613915023884 -0.12585035753862198 0.522844626480764 0.07666026896721637
Ni 4.744987547126179 7.806439376459049 2.132767073439614 0.20716149501428838 -0.9143495901735607 -0.9468120815776404
Ni -0.14206642463883631 2.6015399057683135 7.804648351535284 0.34460392826588393 0.2666372817824182 -0.6977668018453725
Ni 6.852910269160687 2.8315651439143266 3.97087313768352 -1.4046746467600648 -0.4858271687161504 -3.227105220489655
Ni 3.9134587347895713 0.49564097723971945 2.8935388552268937 -1.9630416345171544 0.8290439868265205 1.0704119525191886
Ni 1.820638260049314 1.6433277162814601 8.662230618745387 1.6101518120933946 -0.14837836343780897 0.5521120079863137
Ni 6.9213091322884726 3.3086206582911943 8.039069405881502 -1.0419236152715088 0.7939430293583294 0.5159653828624275
Ni 8.29398795072966 5.192041777581501 1.7191382266440502 0.5100762710715021 -0.9607346051960035 0.6323101149034595
Ni 0.7698008011940877 6.351875896082979 -0.08940068555771663 -0.18926353168794502 -0.7487702894764331 0.46587283708141064
Ni 0.4538821088650533 6.3001587813426045 10.881965391848341 -0.7839177839118435 0.7972643804220786 -0.38941619948456807
P 6.026332407619015 -0.21777348229824894 3.5500654122353006 -0.3898064929444513 -0.09676449591625916 0.3389089347636357
Ni 1.7910711080071748 4.256912472491182 8.413277230657245 0.5296788757937781 -0.8739362193535207 -0.23601467180055483
P 3.5115449829440375 3.2186260433750555 12.821356270927506 0.7307640827069997 0.4627836566331255 1.2002449488546425
Ni 8.982391795589558 8.13208447025649 1.4869072290767118 -0.03811017660816017 -0.19679300729577076 1.6282086695951057
P 7.442960151213747 6.24737942902496 13.688995618782245 -0.14470322857906692 0.571563431842706 -0.9236870655244027
P 1.628862811533572 0.455965941886205 11.228554115930176 -0.3439668089025173 0.05995863994181932 0.35730157833821047
P 8.076968195268847 1.3310298685636468 6.123931719903568 0.375337867014631 0.33135477656546164 1.1923706883128886
Ni 3.922603214802604 7.427285219312618 8.396486487457558 0.721671633487428 0.3722430301393912 0.503195741901585
