# total energy = -340891.56153616065 ev
CRYSTAL
PRIMVEC
9.09551642756018 0.00000000000000 0.00000000000000

0.00000000000000 9.09551642756018 0.00000000000000

0.00000000000000 0.00000000000000 13.31220768062451

PRIMCOORD
 96 1
Ni 6.075914086956359 2.0540586547629807 11.423032642613663 1.5720215808805764 0.5608856404138857 -0.26655526359157317
Ni 4.619931111653949 0.013795169691093435 5.975157594723183 -0.006563769260446759 2.292791014268709 -0.7194663983059932
Ni 2.6560908838481487 1.573096844190468 4.769963473418652 0.6285015397906466 -0.7593958875110793 1.1675896247134665
Ni 3.502737930413548 4.65789579701732 5.093077145002518 -0.3398787548760727 -0.8005651626605375 0.1968112621282159
Ni 5.2157329120199245 4.801141084460474 2.365592824445527 -1.214987654381456 -0.3532171238561917 1.7414567649886847
Ni 7.477060194013497 6.115534156300594 2.645561914088533 -0.6260939587904185 -0.4618099798659466 -0.3751386065196313
Ni 5.1348373893505865 4.581611701151822 11.565739475487215 -1.1246578583469469 -0.1753507782615948 0.22881995382432851
Ni 5.835374060813642 7.822580670195508 12.379554436581566 -1.2147045759233983 -0.09076894045445658 1.3240497367181456
Ni 1.7472668873201234 6.442790835594813 0.22113838015598705 1.1965073361890812 0.7691218565495915 1.9313777277549704
Ni 2.8506075971162472 1.421874788883473 0.37442602723251295 -0.20669535401114725 0.4672974853430791 0.9566064419602428
Ni 0.7791501290730575 8.818839865668929 4.482832574179307 -0.4231716986684583 0.16153161299031538 0.7546061794319198
Ni 8.630235238046781 2.3136446922020304 1.3884232987470564 -0.07878245751654174 0.4922022190045588 0.029790858109187402
Ni 6.684258604408124 1.0448474439667426 4.961020252256413 0.5925927417091794 -0.0913960325154942 -0.3143896094660328
Ni 0.6058687178935701 7.2985243030222176 2.4381441203893366 1.6142673769236653 -1.5227738995983582 0.3449867655265994
Ni 7.665028135489158 3.6965270023713757 3.7136265731627356 -0.2461584451027761 -0.0854776101485302 0.2851857342085669
Ni 7.585678850604146 3.897183189194882 12.446994052320724 0.6708200980531995 -1.5182595566677723 0.4490470237733234
Ni 8.124497240859553 0.37364017461742066 6.885779774839214 -0.5403391837211017 -2.121293548314934 0.4333779497774988
Ni 6.967611226143888 0.5106595810995708 0.36197881306869584 -0.3874138243425586 0.9892985328766252 -0.8863461629820993
Ni 1.7701330154953783 6.359075702848177 9.375748328449301 0.28010240614838855 1.1074741474788088 -0.2963785176005928
Ni 0.34292370625598356 4.931616266908376 1.4050499026867402 -0.8788364848686154 -0.9748574177506307 -0.018873696976051364
Ni 6.394229873650627 2.3169827467128967 7.10166367518341 0.1257678251271447 -0.5556902122558752 0.2271381952465314
Ni 3.4633907265606636 4.227768827483589 0.5608659219566069 -1.0607271211312572 -0.13074959461245225 -0.16959382117315955
Ni 5.879887517969449 5.605230209891419 4.744857119559401 0.11665789240607652 1.1779043763759134 -0.6336756277924184
Ni 5.103630672656355 3.099715599687399 9.193436888609355 1.4185915139514729 -1.150001222207742 0.20129423760023396
P 0.1331410782984076 5.3770327994741685 12.515777985380607 0.3471562623740924 0.31354474496723417 0.20937624327742005
P 3.908270623660131 5.902790028210218 12.686387133848125 0.2662940395103866 2.419593194197639 -0.11523350125472412
P 2.3435507500541535 8.395734634779311 1.573130497601068 0.8456944508990081 -0.0447258821524649 -0.9510780559428459
P 6.5588496245829795 8.027411699036692 5.745947853333019 -0.11581019969380056 0.04870594984613547 0.536301009095986
P 4.797366445163444 1.058463431985182 12.746598542721383 -0.3375688757959735 -1.0325959101126796 0.46856941007696723
P 3.842009786843611 6.183595905360034 8.39672786516783 0.5051214981693881 0.21634753238893062 -0.4276593021261667
P 4.617320698453353 1.1014397468730412 3.5803581576350307 0.9335840129231405 0.39735448049503824 0.7649489561188245
P 0.2184688460989317 5.2693145990049794 3.615528700366962 0.767849160484755 1.3538750476096941 1.0322256712574545
Ni 1.4390289327731032 1.0860774197099525 2.629373714038287 0.40532387185375995 -0.4294729582961378 -1.1639998504796791
Ni 2.00507020354901 6.618061436206252 4.709952165905719 -0.8230178352370987 0.2008386381200541 -0.010845170244620032
Ni 6.151634260806396 5.8024391960075175 9.178394723622786 -1.1862440065898603 0.7946688517807604 0.46287595923661573
Ni 8.593070958124708 2.3759944569758455 10.425561924358641 -0.5138020566625215 -0.19671921663504183 0.04017143001256307
Ni 2.0554320777361164 5.541270538718629 6.94529810536444 0.6316652822306088 -0.3593522902196521 0.627240670800352
Ni 0.6610621303808735 0.27506387766014395 9.102448071414926 -0.6812158394652268 -0.18421594196170857 0.0771732040478929
Ni 1.4844428460503694 1.0453749839166888 11.296725935321973 -0.268794180224421 0.3856099383646004 1.355240817608969
Ni 4.132529675485541 6.724133348210955 1.4467173727677505 -0.5971973303607263 0.11348078022967552 -0.23000497527136518
Ni 5.640684532734355 8.202655013098997 8.01409586305874 0.7974659549099233 -2.0526633487410453 -0.4975025481715496
Ni 5.012402643381174 2.865242282969065 4.975104659368339 0.4162960545945475 -0.20010587371908764 -0.18754294945241248
Ni 0.6736958026304475 7.7345087851036265 7.242639631290157 0.48819232651421735 -0.020942406579621996 -0.8652988553934969
Ni 5.094808021769324 4.659951383718834 7.105471058339401 -0.1736006283397075 0.2956166997339038 0.27842938932133987
Ni 8.085950442447965 7.412445645661464 9.039068694187078 0.7299806675737558 -0.11769970340702955 0.06630515098513742
Ni 4.585195334604904 0.4237455552426567 10.333427981652173 -0.5903090878813253 -0.2983922055965119 0.6695245191702276
Ni 8.28829839531785 6.965255487401887 4.857970780344248 0.38583208167773553 0.11379368348440402 -0.296400886198096
Ni 7.110065203662123 6.2249168362670275 6.9131490931734065 -0.30468369503217846 0.6475737259307492 0.14768905068026822
Ni 2.542842609420903 5.11321734691917 2.6563446487551055 -1.4430270212860181 0.2634295734783979 0.20783023894653885
Ni 2.1863438449701826 5.2496409970785365 11.550563606409883 0.8879919261156385 -0.5147801043050747 -0.47971514228114154
Ni 0.9769948917840057 3.0413587666036945 3.8585299732416685 -0.12004686348296743 1.7288483321960548 0.8771246443838313
Ni 3.488976414133055 2.8832605009146417 3.002661892171864 0.5697256073030188 0.35480709405113087 -0.8464552403244324
Ni 1.1593418041378272 3.2868558491726287 8.048014862737006 -0.5095893041327546 0.8239130933578586 0.8761640802427749
Ni 3.78863729673526 2.6567912386092845 7.16455007542355 -0.678001189182671 -0.08924376205918179 -0.7396840109044487
Ni 4.113138034566829 6.8920274850395264 6.214084985812011 -0.1305595900888332 -1.0632817692323107 0.17131517473964045
Ni 0.7187213373583566 7.360210095100411 11.644653994689342 0.9455964640029845 0.5558493635415588 -1.9417289890823077
P 0.08422811987037757 5.744573520808245 8.00922339493484 0.2344820372061123 0.5760975722676337 1.6111473432374444
P 8.43600958130279 2.0015866207760893 8.220940639226098 -0.01793987230787233 -0.685035470321633 -0.15143977597195207
P 1.7889243523331173 3.22171376087065 10.649712739539149 -0.29848090865557625 -0.4281221006951982 -1.2885787975050453
P 4.018935771435917 6.257633408680071 3.7394387390929484 0.45059611342799816 0.8178280635060432 0.13092777206152936
P 6.665112542431627 4.03269728771641 10.329540557952052 2.777319518778094 -0.38823297780974425 -0.1888472700861328
P 6.415404235779502 7.894098715478734 10.361250256702009 -1.3822124611018067 -2.0257469839661755 -0.8730365903573868
P 2.4692871684689197 8.565038576646531 5.928032814815143 -0.26684476980753397 -0.8864369229236927 -0.32099811592148586
P 6.876446865483356 3.7814245522472025 1.6016185644498013 1.1239857719805868 -0.18513896799661017 -0.8063293188378243
Ni 5.075243566039422 2.707717034811851 0.9908355390569911 0.06489207268769469 -0.8619556499528768 -1.2351093648319955
Ni 1.6992152742931264 1.1375944244771135 6.99290221898562 -0.4427506492416504 0.02456251983071254 0.2941532278144999
Ni 6.8765742027126535 0.5309098387644026 9.374017451682496 1.15981049498868 2.814737040194604 -0.9224004855024953
Ni 2.7490652522679797 1.7433649107937972 9.246899424329852 0.20446646468062848 -0.14834211088323485 0.11499258888851163
Ni 6.435932816245512 1.686854467534904 2.561827680757501 0.9307470576949776 -0.2125060471556534 0.540277734355547
Ni 4.2024014323042795 7.104853472777309 10.615021530520359 -0.2816736072902504 -1.2760878641268862 -0.7413218036181878
Ni 8.29960412217618 7.2712377538870685 0.13015320116810883 -0.2976715253804035 -0.2094171238176845 1.3857065902979941
Ni 7.6757881313647855 4.0979758087640645 8.237873762067734 0.06440819107274069 -0.14611347866303223 0.7359034608160939
Ni 3.1651760310626216 8.325562725920086 12.57131702749029 0.30193415731149936 -0.21451664982777893 0.10376278161096324
Ni 9.283338791596568 4.697315765001231 10.367055015254694 -0.9307239177665262 0.3305572203648307 -1.0246236905404806
Ni 8.821741335393634 2.2838386850300694 5.85754438198595 0.05599219909490357 1.1226475127851374 -0.4874104540428702
Ni 3.611765885241225 2.5983616413945523 11.593934666708565 0.2093165936840782 0.3202103299128679 0.11818409924261583
Ni 1.2376360091229477 3.2796885822664628 12.841754015968752 -0.7249737012774676 -0.26820462626953806 0.3138738461718788
Ni 3.293722964038308 8.529466012090674 8.183267010386837 -1.2246562878194716 -0.48540422224611884 0.23447278123473167
Ni 6.017611826970923 8.20556557834008 3.4929238682412733 -0.5028381014518502 -0.590366680592138 0.6763559402697642
Ni 3.2885567107353864 8.54664744252944 3.58198261686021 0.030836782875198507 -1.3430486464181515 0.11678233379908276
Ni 3.289029677587062 4.303789153374114 9.38900686267407 -1.121046743956921 0.8021731305776056 -0.08371537604178486
Ni 7.513778793633028 6.123110721443788 11.460812688994551 -1.2520624477465663 0.16211525340792726 -1.2440357207873478
Ni 0.7774483579586619 0.04590779981661232 0.27647732090534466 -0.7202364437027984 -0.02130750322852459 -0.27462004287757863
Ni 4.823416004071133 -0.12168163721328291 1.4479552725468485 -1.064898221789811 1.662785893349343 -0.214020941138283
Ni 6.172235605403434 5.48665196286644 0.3314151493824156 0.08831199427353177 1.0793370229229606 -0.03865422203708827
Ni 7.97629489699018 8.795737254067836 11.449523334065702 1.0870606168194634 1.4095304321904691 0.47281404428593404
Ni -0.17869961028609005 4.815411949658156 6.1900564506436 0.37348692984882126 -1.1264743427303954 -2.537453591552249
Ni 8.181871758174392 8.876687349835445 2.3121311982766675 -0.3458555412847979 0.48508823366759685 0.3308451839188947
P 8.539325551844842 1.4317252331212618 3.643937636223203 -0.6590619290760068 0.17976767638236782 0.9330098855872254
P 1.6804785105536575 3.162647477509431 1.826128652527255 0.9955368004768531 -0.3581999217827637 -2.1807513373609346
P 4.884510587584731 1.0990021484836348 8.250427393773178 -0.5263253859405129 0.19261419332773277 -0.19336469834051212
P 8.571278100882102 1.640685626398232 12.560374211735457 -0.08508577402675024 -0.2425887254736467 -0.35774869317795804
P 6.497791423134895 7.631083668365034 1.3478472906314518 0.10745025776487947 -0.8340730646099959 0.08777823325724883
P 1.9515430896622263 3.3207821252639973 6.0390563259362375 -0.5062481555746635 0.019774097303133686 -0.6546745986415886
P 6.784891397618553 4.039227868476089 5.8201372517765755 0.8380821857693889 -0.3451883400144442 0.6231184211018623
P 2.356384523664052 8.455546750483556 10.28821962704506 0.23575010528525853 -0.3678767827508955 0.287951212768846
