# total energy = -340854.80580770446 ev
CRYSTAL
PRIMVEC
9.39143726069723 0.00000000000000 0.00000000000000
0.00000000000000 9.39143726069723 0.00000000000000
0.00000000000000 0.00000000000000 13.74531773205674
PRIMCOORD
 96 1
Ni 9.486572293062691 0.5907937036226029 11.596333266295188 -0.5177666977372244 0.3999816337052402 -0.26702628969072073
Ni 8.159900331624849 1.4214221696929281 8.57814985830558 -1.3279966371810354 -0.5450970101210613 0.5336705134516745
Ni 2.9293958231086106 6.5432677517039295 13.478506850118467 -0.962097032761169 -0.8594650223205391 -0.004847043679656169
Ni 6.617197144050448 6.317488213924118 9.889356940376423 -0.47990771790792186 -0.10670335229652593 0.4229595826576522
Ni 1.087087011215275 3.2068940046450627 5.944547675223037 0.35630450453226375 -0.4909076685628513 0.9606003936109841
Ni 7.105345258301894 7.66785477100351 12.180852550834114 0.14007190045464266 -1.7637544000446204 0.42523269496254507
Ni 1.9855564010017528 7.08170701128256 8.958936942650148 1.2749426947788494 2.3018546671328743 -1.3339914213118897
Ni 1.8979624677680147 3.9200139930912328 12.643685107411619 0.32700909800225614 0.5899943848543839 -1.1723155694342262
Ni 8.380007441434982 5.6063310358184495 -0.06523386079498952 -1.6420579167733718 0.9882806331350722 0.8121235569220981
Ni 4.505260174856736 8.635989840722214 6.511514363941885 -2.7400007277229776 -0.15600065586975714 1.5412231074424811
Ni 3.040383825998749 2.428757097599433 2.4443158913367906 2.5789658518634226 -1.5315025377206077 1.5366568282280373
Ni 7.321019609831088 5.331913245629769 7.2432322151502255 0.026493161194522115 1.4237632879603996 -0.9381685469700294
Ni 5.642206325295547 4.323225950790096 10.596539662328503 0.030119959313831997 -0.8247183628679731 0.9015930618388409
Ni 9.141981685341849 8.176466826556158 7.902224656240048 -1.4429455173158052 0.8649808099324459 0.5906978386793117
Ni 7.299353564589292 0.39423186560514695 3.1038990538161704 -0.44150572109095576 0.2500161282859694 -0.11834839273462198
Ni 5.903382189263623 5.528100365309494 1.2105599905009239 2.5334889504775466 -3.4119747368749627 -2.287255686272777
Ni 6.064022719762506 8.724494743348432 4.994140821196981 1.9165015819740865 -1.6350658017262552 -0.2515045399060378
Ni 3.7326360413511726 3.5253576345320634 9.119371800677945 -0.2482999169258111 0.04978349918103039 1.217276964636265
Ni 1.1716944674716003 6.929575122738193 4.358626033553177 1.197782603357079 0.06603569937383465 -3.213948371392723
Ni 4.979170870561774 6.465055864069044 5.76178937136093 1.295934209428852 0.5856967859202945 -2.451274070240688
Ni 5.799869770254053 1.866266367771889 4.660102432129662 0.9407393930209992 -1.3796680974133981 0.8414534162344669
Ni 4.398094486840205 2.178494083467059 0.0057560117592964505 0.6444066410566773 0.1305354217191171 0.21281097999058185
Ni 0.346448233966543 9.359261972604179 4.485399163813238 -0.780727816219636 -2.617525714414492 -0.35331225467315924
Ni 1.5823444433028886 5.306537582758796 10.119495044084589 1.2790263779299198 -3.0229768558747354 1.609944581178595
P 0.8664812160985357 6.101419422039418 0.5910031326685032 0.26211522554234856 1.2906763034640223 -1.1432772732203471
P 5.131415456350572 0.1209156909807762 3.432810657405598 -1.6756925741086819 0.40656648601160955 -2.3692252832680487
P 6.446864650530528 0.5449090205526558 10.035868992998516 -1.4028291089108937 2.1100981938197467 -0.7536821249557536
P 0.13341475453184104 1.1937643445059398 13.679628230816846 -2.9012117241490807 2.17617451662353 -0.21161773101342907
P 7.425330300988709 7.514201469659328 6.263301500514445 1.0761596536362434 -0.6451021244618051 0.702678637324693
P 6.619873703605677 3.0822414608677065 14.184479954980326 -1.632478500615053 -0.7153557185717293 -0.2606088162001512
P 7.428992961432706 5.093286221984862 11.889960301797078 0.11490954225640211 -0.28695053941847354 -2.7785063399973438
P 9.563394248016266 4.67467230754714 7.6383553281300784 -1.1277652936276772 -0.45748152769392175 0.26139197422307886
Ni 3.9329647847637235 5.9863743183497755 10.049187929002814 0.01056492000003987 0.37531369864491493 0.17468871919756365
Ni 3.799878730528139 7.537060227404681 3.8693208942589106 -0.5814560083660695 0.270371809124186 -0.26317066339005646
Ni 0.0993407426782281 0.674565321982734 2.1356653740085902 -0.11272384745899297 -1.1146428973131062 -0.5763839931598009
Ni 8.230232803586622 7.550593288173398 4.320593530988937 -0.639319456341757 -1.0790238625579158 2.2620131096559044
Ni 0.9263506880586253 2.7439431159609082 1.9586527513250411 -0.8533465681276271 2.0535136125564826 -0.7358813493289068
Ni 0.8454011965277789 0.9199804763171817 9.233375394000307 0.27196435042228645 -3.348915860741265 1.3966054965986852
Ni 3.2747189629182545 0.48072981813679666 4.808868429640366 0.8850647251665145 -0.30244426417869846 -1.5702323501906377
Ni 7.786384097833467 8.471959001453373 10.212688152079124 1.0292362496118275 -0.9183178307926894 -1.1264627727661696
Ni 7.1554391834513265 2.2233851524986092 11.2319999796375 1.0815324879123827 2.529788361697508 -1.5114343062158229
Ni 4.686242557975356 5.75996555428856 7.73761060873128 0.05713942532546933 -1.302432415558686 2.3335401711616135
Ni 6.012266510257722 7.38737950392668 2.26140732448211 -0.7176532563566543 2.290994327379603 2.8145840595565077
Ni 9.305214252462637 5.228663786857204 5.507061668061695 -2.094031113054555 0.169564767707437 0.4065752277623578
Ni 4.589707976683451 8.083294379723101 11.265799761529664 -0.022396879637961428 0.8138017159554695 -1.57847530692572
Ni 2.0394538581507202 0.7901072326915745 0.23799310164498452 2.822215093739204 -0.5387659256967109 1.712390700860664
Ni 6.508613349041498 0.5863308927431484 12.329755663325544 -1.535866728226574 -2.5488510347559137 1.220907876520633
Ni 2.042966255602143 8.4964330863689 11.902771161057734 0.992471274177652 -0.6862500594550246 -0.32352036812270735
Ni 4.858969867939429 1.7362231391359322 11.242020642954794 -0.7832071309980639 0.17067137050805448 -1.272298315177467
Ni 8.536750525563972 5.7207656961007585 2.4675728460124664 1.13370505615088 -2.4202169438245673 1.2097644583093037
Ni 6.309374012325111 0.6056096346904216 6.827629195426209 0.5213320464909795 1.8521828652913586 1.4301419377932338
Ni 2.837735397638333 4.428447611340198 4.869196203727808 0.26455108867735083 1.00675143824575 -0.1733910834320627
Ni 6.051851417363994 3.189576194750883 2.562470499829015 -2.4988603046600835 -0.3062176151782017 -0.14761988800522965
Ni 0.06292732385897515 8.458651335173519 -0.061789081690225386 -0.5117094357995509 1.0294807615224657 3.0680837755157033
Ni 4.2586222554202156 1.1807478127741975 8.055347341391702 1.125221701270217 0.6736506255234591 -0.601219564146242
Ni 0.2338533561995646 7.117666823692981 12.151493040372518 0.22289587503040967 -2.793704387894021 -2.2145598012699472
P 2.716651599934614 3.553287768276798 0.7902330779478554 -0.4431522555554432 0.01049010089804645 -0.647463168494814
P 8.038938622602597 1.6559075696050083 4.605767334014821 0.7773596710783515 1.2876997373342016 -0.6681430654416686
P 2.6243901224940394 1.3326355239556325 6.637434751719087 0.2587159700528125 3.7317263819838566 0.7561347002613042
P 4.006556085376951 5.075442491616673 12.047660373360024 -0.5608573582791115 0.36147550721024196 -0.5677389158902931
P 7.217760759621487 7.873048278800652 0.5238233661196775 -1.181560485071262 -0.4132086739184755 -2.2045648948407646
P 4.254255237198527 8.073001364731766 8.630423535991042 -0.34655462423435157 -1.2706831481715473 1.0267412511041154
P 2.949042709387691 7.037905348947174 5.90846577413115 0.7612601944133276 0.022837052499173574 -0.32692116627414014
P 0.5094309888621774 8.123452164488564 9.999099638715602 0.926238885411979 1.303128413184446 1.4529530221504785
Ni 7.598179699634248 3.851202933929273 4.297981768037626 1.213214364531117 -0.659737872097109 0.39934862810693156
Ni 8.229115222579352 7.76762000663576 2.2334631035818218 3.324780658255958 3.1916252824154903 -1.8351858165127297
Ni 4.417140321148988 5.202959423689975 2.9602739289389106 0.7492551995326515 -4.256885772640727 5.488349827410651
Ni 4.981687775687392 7.57697383480721 13.397519792839478 1.858483867808722 -1.2506059178056979 1.7305509167094584
Ni 2.641041140358671 1.26981620162257 11.748301743835134 -0.7855298655939698 2.021488208689822 -0.4355101656291531
Ni 4.055626343889472 8.708172425780058 1.6841316553289658 -1.400154390292208 1.101470621597206 -0.34353486357142127
Ni 2.096704058321501 5.5773490611256955 2.2115942033000504 0.19951323444041122 -0.6098787824831368 0.17791828187845488
Ni 8.066455533117752 3.5452017409888974 1.9285644653494594 2.3323973158064217 -0.2730974355854652 -0.45949367302794414
Ni 1.261176079549552 2.8047057135831106 8.470125792943968 -0.0897564400295422 2.5982619810888736 -2.7578089595489925
Ni 3.8031187763055203 3.213486793444257 6.813361724281286 -2.120266392602 -0.24457644532763687 -1.771891170219142
Ni 8.551673519014 0.6529086681779738 6.283300565682371 1.2357696241238136 -2.1040836121945503 2.277291118860897
Ni 5.614858460647037 4.241745843066722 5.682107723829929 0.42947938605404107 -0.26079419273807986 -0.130211205610479
Ni 2.255222124050273 5.090797491170352 7.736771953403975 0.5084346217030211 -0.12767686922439947 -0.9056816300859176
Ni 1.3804191555942364 1.730391056736645 4.16637110856038 0.9953789347427502 2.794648239864529 -0.860464410119331
Ni 7.884590354917759 2.7987327596282854 6.583140975927204 -0.5708108699473976 1.2704378649299604 -0.28761491247534987
Ni 7.334787456525702 0.6108425434068191 0.6526898476950375 1.3354782902700613 1.2192893670806033 0.9021522767764204
Ni 7.606030940996251 3.70319388624366 8.797401408201743 0.1036815347510666 -0.0045971324523791796 1.711389513289659
Ni 9.124983184306888 3.349634456153542 11.04289212519543 0.9502517033868085 0.9927602661729805 -1.1134213662011792
Ni 8.979688261924649 6.17760275927455 10.097008187245857 -2.0798599637604953 -0.8258846152619325 -0.7118165950702193
Ni 6.388562609411728 7.802434063727801 8.042590952465854 0.014884116200684045 0.07676619841746134 0.8880680307692124
Ni 3.1920273598172506 9.626974276749234 9.674105203513845 -0.8506715923986252 -1.0154903607806447 1.223623732789899
Ni 1.7302407937440707 8.993042885389682 6.524943179759503 -0.7976179071067554 -0.27552738518319647 0.2698169650619805
Ni 8.529162244438973 3.3564995966267768 13.26183982369458 0.27678414040843297 -1.6280369199039317 0.03961889994320274
Ni 1.009851833032123 6.975687078584408 6.509631380816189 -1.315160918868948 -2.5437499660839222 2.159997649753351
P 4.412068945149608 3.191210304795128 4.015529603464743 -1.7570643896189546 0.8443749607566362 0.39683280366361334
P 5.588290085272507 3.3908628647410954 7.802913966160335 1.995675618502092 0.5020850253359095 1.1025088330537334
P 1.7874346452926355 8.841821966237795 2.8474799527067716 0.6812716324038267 -0.10458579173289084 0.5039331342882418
P 6.520155425158607 5.545296086522206 3.666810520022922 0.09414222780206367 0.8180910873594427 -0.13781550032029813
P 4.112998632741719 0.05188862876699106 13.167532891267589 -0.7869529711937415 1.0381191539237542 -0.9164260130866153
P 1.8194500541479814 3.0176001997496815 10.423018775934898 0.83634874801805 -0.2682722462826799 1.9010258549359904
P 0.8937267140833536 4.591501741157305 3.80025063143476 -0.2692796045012717 -1.0015734935892364 -1.0474910820569574
P 4.13430780337615 6.470221154438784 1.6534789439875273 -3.242560892923093 4.891680858749569 -4.875106499330656
