# total energy = -340870.2969241794 ev
CRYSTAL
PRIMVEC
9.25366364099114 0.00000000000000 0.00000000000000
0.00000000000000 9.25366364099114 0.00000000000000
0.00000000000000 0.00000000000000 13.54367211324490
PRIMCOORD
 96 1
Ni 6.5243325590909285 6.712653867685815 1.5302320866686403 -1.5268462698955187 1.0609659766149406 -0.35631401761396053
Ni 0.5853386423717685 1.092015591664981 8.319796854273651 0.17974299379201947 -0.3632739938715615 1.4218395885751254
Ni 2.44519733204371 7.094746892755419 6.382171300796463 -1.3968487229577427 -1.106778664073681 -0.7770256847777005
Ni 1.290997120765067 0.03286161029345796 6.466453669165695 0.5838833868606396 -0.4362642701863583 -0.12179572785327411
Ni 4.297216317885787 5.648732398810578 0.6193754679466157 0.9305215719477329 -0.6548584325176205 -1.9867163524262752
Ni 0.9295490192606551 3.319529740406341 11.241288581804392 1.9884078811960855 -0.41220748634747073 1.2196909733943961
Ni 4.105683988010254 3.4739826401045013 8.445414412725066 0.6711461139340507 0.26862731562925346 -0.14766899607561018
Ni 4.393176809759846 5.38028361681767 6.725909740840067 0.10431222635653002 -1.7274717635635024 -0.7806771654873587
Ni 0.6295017520601915 2.554973543721817 6.352496652258206 -0.6339772181932372 -1.1771816392772758 0.20371004613057822
Ni 3.1343084091285043 2.0013083412330306 12.136592568058457 -0.5378405856689641 0.5926570192882116 -0.06518852088219096
Ni 1.566626745737172 3.3747556049679988 8.6486230153727 -1.069828826322209 -1.8181059782123075 -0.6005747314733915
Ni 0.9248139195796564 6.043021752548456 4.059878353026976 0.2507157254561553 -0.9178118376905483 -0.9752767646762365
Ni 3.9078499132006574 3.2242910342956552 4.135384546806684 3.5224352422210754 -0.4758859983430385 -0.5667351572161272
Ni 8.465501340373187 7.259665686022485 0.11984512307715796 0.5666325701999918 -0.3924639851719564 -0.5342911777548088
Ni 3.8587222129731376 8.666713002408823 4.9433589332571755 1.2405084243603797 -1.2465888262265048 0.6005202240863722
Ni 0.9194930629906899 4.78801212965207 6.352429100513684 0.7840831058451142 0.671446933003921 -1.2205795466469365
Ni 3.075344064459121 3.2100126313099584 6.5289029435592605 -1.0173459259321447 -0.137957168104485 -1.5319928470934647
Ni 3.3597739235461948 1.3337953150676247 9.703472192422158 -0.837114422539481 0.543007217471568 -1.1193140775365302
Ni 6.421950024655578 9.184936673183275 4.620613354531362 -1.5910104632782534 -0.42065253179103035 -1.488263010305682
Ni 2.248085042997487 5.627300913836584 10.831850055332954 1.078364631707362 -0.45707040829843226 1.3934106438104712
Ni 1.0384183719027291 7.446700735372387 9.673906737114768 -1.4587446891315907 -0.3576733598553324 0.2550567760336704
Ni 6.0357021046147645 7.0587408875594715 5.831688433231061 0.3475056752937112 0.7194653698647288 0.43330852999214403
Ni 4.86488231345128 0.9986276182808916 0.11061459360325496 -1.7240128584806245 -0.20587028700669058 1.4415303821358334
Ni 3.6900371786074455 0.6614148618312685 7.050645782613336 0.5781858222552301 0.041100883805367916 1.346414991787223
P 2.2714597973344084 -0.5824848125073558 8.625694287622888 2.1067544741584943 1.9108071026924704 -1.462489500886004
P 8.594599201716967 8.675096821660308 4.2464155552734235 1.2018338906083172 -0.31916389092622455 1.0955743107174292
P 3.361717192909122 3.5902179089984316 0.07962407409638667 -1.3776001591407758 0.3271132276802883 0.6857026715919868
P 5.743536182730515 6.197613457201111 8.412786920121523 -0.34181196734304353 -0.022110458745794176 -0.24912524104058384
P 5.994532555111612 0.2621553653561147 6.742947586321121 -1.96940691461355 -0.3929992888501361 -0.5897156772717005
P 5.524168832646962 7.644220185618462 3.16315207867252 0.10118422225050962 0.7262237716344848 1.2190805935039069
P 6.82468797329037 8.78981448971843 0.30850048892919574 -0.568772242250814 0.3203018611854097 0.02431800792007425
P 2.622571556560776 1.1786576442606238 5.28506619413334 -0.24828269053463048 1.795003073646257 -1.0266198950349028
Ni 2.917550592189453 8.118674027408892 11.332573197444704 0.6469576896133052 0.2834607810976602 0.6645525198769329
Ni 5.417094690749687 3.638383228208121 12.85030358454518 0.38494196576329837 -0.5500772369444721 -1.0745108051789107
Ni 4.766710195968937 5.898340721646728 4.174769064595033 -0.2729467689402138 -1.3720033817792885 0.05838281081426719
Ni 2.1753234858513224 2.512156842091993 1.8314971360032046 0.7887136626385901 -0.5894184577462559 -0.4260053114625114
Ni 0.9046326045624785 3.899095947403853 0.39620393674354204 -0.07293988269283568 -0.2041669311623387 -0.3528083184535472
Ni 7.386394609476221 1.0637456492662103 8.112090971100386 -0.2438907321145219 0.4694762381619527 2.3404885774549884
Ni 2.469950882261946 5.394571273467 8.47359829605205 1.1618676346280248 1.1413857126245892 -0.7708195559669886
Ni 6.648683290990987 2.310278916274782 5.619418643154008 -0.61827909073169 0.10616753439771393 -0.33749277114239945
Ni 8.571761159870759 1.9358756856841906 10.481515603851758 -1.6976965891835984 -0.7574768161114955 -1.0063686009850346
Ni 7.715399366283386 5.504486290099602 6.712568733980392 0.5908418204563437 -0.16099039577486468 0.005585721617893605
Ni 3.4333498030920624 7.449486088125917 2.669999358778916 -0.32519801293544637 -0.6392127555605637 -0.481411556146958
Ni 3.064619068308491 0.5370234138112249 3.0470278537421858 2.1095798594224315 1.3295966346783037 0.5337160219776291
Ni -0.29685105178163035 7.530890567105288 6.316647033977656 0.8411934777048609 -1.3908755360934433 -0.5510773960742122
Ni 4.232783058009309 7.880364427868617 0.3116735701889465 0.480289783837689 0.06840291405443058 -1.0428849507435134
Ni 3.154981093684594 4.776907733292487 2.2508907538110083 -2.546008423100796 0.8617558752372448 2.2097734356248973
Ni 6.23558123908725 1.4698334241361442 12.046202781691456 2.3660985647136092 -0.19226272352558502 -1.2868913825002932
Ni 0.8654368615122421 0.6236441829805118 2.763247601842147 -2.2285707708370586 2.11916724600055 0.660021721886115
Ni 8.680797078458227 3.966971570151802 4.427155337253805 -0.15040439272890224 0.23872769985634368 0.5621493376176577
Ni 6.883476498350727 1.583903335739956 1.2389165764722616 -0.8877055052234711 0.24758335047476068 1.7455368485953295
Ni 8.451630098587342 8.902098444241073 11.690084790439643 1.1809529333942501 1.074659414941633 1.092342434043693
Ni 6.4736317360458004 5.94263800945783 12.731322753651344 -0.1241259186483475 -0.930319740349572 -0.28333633970465394
Ni 6.168085016548255 8.059755951057673 11.937067848903116 -1.050855884764132 1.8650062423082718 -0.7898858285698203
Ni 4.3277534078746385 7.479791836523943 7.507745303626466 0.5763623958932461 2.8218919060718304 -0.5251611904290826
Ni 7.080144611542567 4.862707702497528 9.307171092210469 1.157395200678968 -0.6354545740697122 1.029397972000672
P 2.7129243282732456 5.12298549950251 4.880259126310212 0.8545061356533671 -0.2512340598534705 0.63832572496992
P 0.5386677898388064 6.9399145928483055 11.725095101428682 -0.5605241433094088 0.3254021585264525 -0.35837192858425376
P 1.1509891899979972 5.701857681727548 1.6500799858448882 -0.35209637998818716 0.8518576422869264 0.9046084516263969
P 4.573900860512052 0.5213273495569549 11.301896377134995 -1.1632125786916934 -1.088655215000093 -0.6687513884496289
P 0.11418465703286075 2.650351054786998 2.749839043237951 1.1780979804439582 2.204018535418991 -1.114652410394803
P 7.384506862095091 8.959350861138356 9.91025733606394 -0.41517273962338175 -0.4149883915267175 -0.9353051093793053
P 3.0513585683224225 3.5140880182898604 10.210262961778055 -0.5413979640029193 0.4115014614193816 2.055545041164215
P 6.486901489695502 4.614348624251831 5.194959569873507 -0.22998054979133292 -0.41145312467994943 -0.37938786871428853
Ni 8.857912200393569 0.46929122284958774 0.5651517751564107 0.4642538134207488 0.08485643162476353 -0.2942838398550932
Ni 6.698153376772927 3.765204688298187 3.075578182149035 -0.8986671464412974 -0.5487703452075904 0.7831058295335094
Ni 1.7983662440980268 3.1626708881636048 4.167875085188459 -2.5409590336023467 -0.2659960486539935 0.6813037711933427
Ni 5.943609644139293 2.483979436329552 9.453604767004284 -0.4110654023232275 -0.4107910656159183 0.006676897799543339
Ni 7.991241825519049 1.5938325168181493 3.757258567336542 -1.1123615574780972 -1.0367166171492728 0.058841238507924463
Ni 5.2383324166876735 0.22173258650814434 9.075398280660535 1.2669198244743731 -1.4096461318327271 -0.14222519935221956
Ni 7.992953753291151 2.533634595384152 13.075683965257449 1.3537457211206814 1.9788819439835208 -1.2923706604473097
Ni 4.841322485841698 3.405440753574978 1.6399629553949449 0.6940651846240692 -1.3617747620727452 0.3172990698033438
Ni 7.850345543043213 6.474825458654457 4.2140055237652545 -0.9065969428113355 0.44845207050180186 0.22329336757914445
Ni 5.044199807331272 4.750886431156532 10.610017529257574 -0.7748559308198913 0.1101638000413006 -0.10418932762542056
Ni 1.543076171791224 8.938955786491256 12.891300090538397 -0.8375121721985318 0.0870431548634372 0.990669702192539
Ni 8.168884406281471 5.3378370617331665 2.1408757976111707 2.5100003804373032 -0.7519242617243824 -0.4915841258045857
Ni 1.3729753268896854 0.7569839237336524 10.75952619647663 -0.5957323157794256 -0.24382722586643812 -0.006495120806040427
Ni 6.269958599483791 3.718066525751759 7.437547936673001 0.01641186569912012 -0.14481301468405383 -0.7961804033292804
Ni 8.79124880758154 4.9782026783008195 12.25004803639704 -0.4206299060832111 -0.113737633435488 0.14860204941284083
Ni 1.069612472009523 8.019650572872315 1.7580637628772853 0.7929166449763442 -2.791377282422741 -1.3087254476562493
Ni 0.19702345387534656 4.965303071196438 9.809370193671679 -0.9406213793858962 0.5808335442907222 -0.27232867574024067
Ni 1.5170826306461678 8.241831036700296 4.295673732158168 0.08263782670688995 0.06923389459615818 0.4990871190498501
Ni 1.767653334500148 6.530736094324954 13.237544422693814 1.903089679443555 -1.0253091466432793 1.7150119405335946
Ni 7.887387958566054 7.136268081476624 8.508798307145563 -0.4271096002702837 0.6594797333397159 0.33572976570470564
Ni 7.873470448462043 8.579395432367972 2.2718558541379 -0.7287092570604998 -0.5842739374308389 0.9548046128648138
Ni 8.144297422008629 0.41130499042621105 6.173842646060699 1.2687586774553246 0.426536244265317 -1.5183042938627789
Ni 7.884084400649077 6.75181537218061 10.917973902765151 -0.6268591190912173 -0.4566232934586845 -1.3150177084228643
Ni 3.8672355835154844 7.084817711677226 9.64951407977822 1.0263404161212712 -0.8009050624984594 -0.2358814886568002
P 4.53670113270745 6.565770464839438 11.804244462580696 -0.936748012473419 -0.3738705384404852 0.39752623018621214
P 6.584953309550617 4.5616305025347135 0.83445652103537 0.5880933111769291 -0.40516652034028927 1.2280244329607561
P 2.8682285650256407 0.12057246103871061 0.9656947547774596 -0.08985619883220008 0.07966511723181119 0.619266908566256
P 6.959226988850347 3.339249297608233 11.01745263755247 0.21916674700528063 1.6567036917110047 2.0594662305954916
P 8.516914695518054 2.9145616588359986 8.343714798665829 0.24228687796251178 0.8426476936528843 -0.3172162802815504
P 0.5198726736338496 6.046880530283411 7.95777410025763 -1.0698920754599768 1.2433906310041811 -0.5127324777474267
P 0.8062670855102064 1.7307774849227011 12.904437516798147 -0.007246911370400422 1.247733224243593 -1.1903459445733757
P 5.250528745355949 1.5008054363157464 2.720652988139515 0.12316921116203304 0.4441012497322739 0.924073502329544
