# total energy = -381172.6208317362 ev
CRYSTAL
PRIMVEC
9.13195973688523 0.00000000000000 0.00000000000000

0.00000000000000 9.13195973688523 0.00000000000000

0.00000000000000 0.00000000000000 13.36554614756865

PRIMCOORD
 96 1
Ni 3.0987113756106264 5.171529260455814 9.444789646889332 -0.9085486672210675 -0.4881385904581464 0.9026158466764003
Ni 2.972809046477157 4.298020782111511 12.671673556828363 2.0272248540632827 -0.81423468972783 0.5516396963355854
Ni 1.9995613036956483 6.380573336054854 2.641994672415427 -2.39078938259207 -2.544642395991205 -0.5125231899500979
Ni 3.1848988117723502 1.2277006693772143 7.287457300909421 0.6648510249539582 -0.3106118875911554 0.4718208271347294
Ni 0.9674306844179761 8.30185548073606 3.3906117295710683 -0.39749563405859284 0.8237084335462201 -1.5003716206437578
Ni 1.592275898650842 5.440775961853595 11.419201533421452 -1.3884005921903897 0.5109658727653071 -1.4037544489386404
Ni 5.419023633718691 6.9976837803757705 3.596588561006688 -0.38829931227130543 -0.45169474580881563 -0.21157530781126788
Ni 6.510429803761966 7.092884460815056 12.309935627450418 1.932902134819297 -0.2106006026028244 -0.41880956504502065
Ni 0.07398713792988836 4.926993642153351 7.263425635619826 0.8683348140063433 0.2118452736432029 -0.5266550013657898
Ni 3.1896200349653583 3.608128618548283 2.3101675640169375 0.03455536937736629 -0.6603785910049014 -2.4665829326836164
Ni 0.7623560906060881 6.850430929336589 5.401645514306129 -2.5566849289780356 -1.6101021898023822 1.1757451639410654
Ni 1.974256643216295 1.468126905790211 2.308978582856919 -2.272354086570596 0.04279112702359727 0.7782852682164144
Ni 1.959015402386255 3.5876638967387446 7.779951196030282 -0.035587667296622584 -0.7897783564576786 0.140070614903062
Ni 7.490864398870161 0.2966261431333275 7.769739838632948 1.5188326555624228 0.18851328378548177 0.01684998167780324
Ni 3.4866370259761728 5.071762600139345 3.9099170585307546 0.040119493728705095 0.7194743687257932 1.5648440892955306
Ni 1.1906431766939896 4.116477422194678 3.302332161429619 -0.9353974119827954 -0.4345256902286968 0.4298910196701629
Ni 2.1162220895576977 6.618588735092698 13.373966921738022 -0.05103562642057662 0.1188484722994921 0.19163331747170223
Ni 4.8296469511717905 3.125906351759134 3.8908705300710693 0.6323769635856529 -1.1763714846711548 0.8655366824359159
Ni 5.02234956590846 5.118299067047603 8.185715216580011 -1.0126490346771078 -1.3510416919259571 0.5941377175987961
Ni 0.024590541226561756 1.7006083372169079 4.08524611983474 0.9029472618738901 -1.5458012137314667 0.15234686116725377
Ni 3.6337711615385477 8.041311536984193 6.398634526057044 0.01188646702494082 -0.07515617361786411 1.115920221363633
Ni 8.828915669919157 7.640491559445478 11.225241447826605 -0.9579454724866405 0.596738645556753 1.5253822837554827
Ni 8.200216768669947 8.26229583108014 0.21848213712325087 -0.32277551953688277 -0.1542510201685021 0.038005789819811966
Ni 0.6213275833354834 3.3544519085316984 12.366044214573204 -2.4023200089394887 -0.08573420624402654 -2.265245500550273
P 6.221649840449591 6.506347817751763 7.368077894404882 1.3177996420433757 2.5326744249960513 0.0668427686561623
Ni 2.694147294572622 7.176651927641872 4.704886117007616 2.525950733118972 -0.719368182165232 -1.9516066532073357
P 9.290673214898767 8.962580164843839 5.303515301177643 -1.063036485990724 0.06725620204449707 0.37255696183538417
Ni 2.3288780363576618 0.3765207458283164 4.986337682617111 -1.409316259297134 -1.6265713911019986 -1.0375216295490712
P 4.678549545076019 4.055731625908623 10.989031437232198 -1.1608188816485363 -1.0680984738946635 -0.837424497580732
P 4.045567754702012 8.688603108293295 3.581217646348136 0.6355692452707054 0.9207634641197044 0.7166929493259141
P 6.3809386144450295 4.417275044543801 4.545488672691101 0.32395385611570016 0.360277887357715 0.09993415189349242
Ni 7.678270476949298 5.482782976723688 8.964472306904943 0.49360269889651126 -0.1401703737057199 -1.6459099435296107
Ni 1.9080590669568824 8.187158066221201 10.748184217474526 1.9122116963494808 -0.9128588645606471 0.906875907504335
Ni 7.736167101791991 7.783890723468317 3.540599602556683 -0.9014071710802798 1.3523704380397097 0.6936463519190957
Ni 0.7467057379790525 0.8957548455019182 11.75727033631205 0.003367630920652265 -0.08458029514524143 -0.5348056554973821
Ni 3.1752280663924743 7.958028064024357 1.7954738747332075 0.6315105018202996 3.5463555004820986 -0.5686819965298527
Ni 4.958754598179043 8.581384768817262 11.271138677552058 0.09118931582132682 0.24811711149104365 0.22105265117408382
Ni 3.9328611074136037 1.6670940449183778 11.435160546288182 1.4754231782285363 -0.3430820923047188 0.9266440912701976
Ni 6.998934858862119 7.686881914997667 9.613596662536748 1.0371984418816975 0.7112627794492783 -0.2099370008768965
Ni 8.922618708958725 5.992894248602676 13.023588237098535 -0.7411845067093752 -0.5923754834920507 0.458459575336475
Ni 2.176410836298736 2.0846437727270937 -0.04180885134342235 1.6438774864806143 -0.6279358970951637 0.5921422844353221
Ni 8.55671021356096 3.468564877622279 5.33063448206019 0.3711063454317867 1.3940881294934702 1.5517571742045855
Ni 6.323836470100966 8.128202134047003 5.628164689209199 0.8924185944284244 -0.4099490293305972 -1.3500847273293264
Ni 6.482787361585494 3.5940014768082755 9.31626644530636 -0.8064637875331594 -1.9315939575308347 0.07073259062887173
Ni 2.452634354948855 2.578226197450676 4.580332578329866 0.2989164535310981 0.8445541666469777 -0.7983419297569735
Ni 8.570910410979002 2.5694229882474655 7.590654802281992 -0.6612828479867257 0.7686983958589277 1.4215197433418616
Ni 4.793137376073827 7.298664041919981 9.282185058307082 -0.7016216568150884 -1.2803492105064014 -0.041532314915831696
Ni 5.630401106153044 4.545506023414634 2.2144436222837274 1.112667004533658 -0.6218904622320323 2.1634223591641835
Ni 3.8577324745144193 2.703973283268321 9.088477927997431 1.9038666668188953 0.4194888505002324 -0.32519878426639476
Ni 4.161589303381255 1.410038509792677 2.199674503772988 1.2462106169514795 -0.9852747564292129 0.4891410635807317
Ni 3.6340177244519154 0.1838637908904178 9.474982645425197 -0.5419864895165375 0.7566594624165227 -0.5792016651142541
Ni 8.549505097314762 5.723008310022088 3.5570800503253905 0.1876231678710446 -0.8394086178902962 -0.4520953236813439
Ni 3.7874894400838217 3.4049881738123697 6.332515484651518 1.104553631397904 0.7667225030794795 0.1352842492580122
Ni 4.633784678360108 7.400375809664131 -0.0456059202092885 -1.0804009454111005 0.9552987788924129 1.095657614459855
Ni 4.348292220559306 1.0971867005677889 5.221410764222098 2.79194189667696 0.21112793586120412 -0.13089023395537458
Ni 8.42394978265196 7.215809771068601 7.357131414247322 -0.8503900566024644 0.5941253763036219 0.5955507958962389
P 8.916052829895335 2.6965672639075295 1.433067485901242 0.9940013376689332 0.779371816412374 0.6731356335602535
Ni 6.655518380339362 3.813634240860577 6.974141588129011 -0.3728852917090804 0.23908688296797537 -1.1690926916215543
P 5.736541874378062 1.940568843682432 7.7979009761234686 -0.531106095158608 0.29461474083195066 -0.30870670014864254
Ni 6.083967283232987 8.856622035813908 1.7752255803698476 -0.06454188843712756 -1.122464964460686 2.1581855362452766
P 7.191801848874368 0.30446045140659966 11.728253534192547 -0.593349674479862 -0.5295354082373784 -0.9382405378585456
P 2.8308801279747717 8.59045280485335 12.820245062856076 1.2181624525650117 0.783962778217166 -1.5088691165918078
P 1.1877209495725918 1.3350651202093171 8.433325565731769 0.13786717949384 0.6896176903756768 1.7348785975505348
Ni 4.754637033749412 2.9939677972280268 0.4498640805955218 -0.48247059353909166 0.6062946646763042 -1.2784854178247853
Ni 6.17500379002428 5.607662526364668 10.635673907320838 -0.6012709862094677 -0.804555514766853 0.3343819934275596
Ni 1.2033548646720695 9.068127355684823 0.6288797140523458 -0.521080849712122 -0.03199120819461588 0.946667071359344
Ni 0.5485705203845085 3.9733430850047164 9.640996194583751 -1.4093481409763342 0.048032320817878574 0.3693963047192155
Ni 4.93516674613351 5.678910076368246 5.819465548123574 0.1360481240072302 0.18441674511860498 -0.6815945629608843
Ni 7.554203671726457 5.794082352790333 5.764079299017357 -0.6435687185364142 0.1940954058589496 -0.9789485571008688
Ni 1.2044689637621024 4.365222873943904 0.8096404650182294 0.06415313763914113 0.5744512949134623 2.72842022197423
Ni 8.310375599186886 1.5909517644864588 9.846945630140109 1.4421618450722453 0.7121433822820187 -0.5435134676840253
Ni 3.939554833913555 5.911263660358381 1.478082568314423 -0.07214926847074025 -2.1540344901913806 0.44789259845390605
Ni 1.1033142455629696 1.6641261579982083 6.416331350865033 -1.032460670086396 0.16621256340575247 -2.246804006015634
Ni 6.817838964973251 6.6483863197712 1.4325862316221867 0.14142147250400158 -0.9138037449724197 0.08082134232344146
Ni 0.17853985835362132 8.808076537759689 9.3563904500751 0.27735569664118687 -0.11443620216440936 -1.0218898365490854
Ni 6.166538463331981 0.8690639535318518 9.672325208913062 -1.495395507585405 0.2191747174250806 0.5620153831429546
Ni 6.4954442578050475 2.147069849607952 1.6115370281647547 0.342314618011075 0.24741931409307066 0.1977355737146982
Ni 6.824870573984114 1.5816554294565122 5.852224627350418 0.34755452625377564 0.32791258365313203 1.2889984015409672
Ni 7.340461021715723 2.8766769061429263 11.28153632692838 -0.5598867668357261 0.5293456608240754 1.7842916007660237
Ni 7.389956243584396 3.9359842376495973 0.024258137891502767 0.26475112050329885 0.2230966781873061 0.6865259388242306
Ni 3.96346230455049 6.202125710494752 11.437245372700106 -0.07565856717557938 0.06682194272055589 0.08217374258627784
Ni 8.15936951268866 1.4432149195802957 13.311014843975313 -0.3889438878338398 0.6321275665790081 -0.6909559495711262
Ni 7.8779407769785506 3.4220740705127923 3.2037480899013406 -1.1758737190991295 0.11812316409769336 -1.469197509033799
Ni 0.7125312049902816 6.480011245820166 9.32297660933387 0.684687342953595 -0.2329445175156633 -0.9916328374367567
Ni 5.3488993147649 -0.3840454806659155 7.473225105408623 -0.3862812534000121 1.6091015164520093 2.277236868584194
Ni 2.2980394082671616 2.906611470217744 10.724113284757987 -1.489088591530771 0.762412562850216 0.022063150447626516
Ni 1.3443340593600006 8.338666410505919 7.326591401240789 0.4639038862804978 0.6835000075137132 -0.7866508665722904
Ni 8.199924545957808 0.5826144663487919 2.2507048080763714 1.3815604293401047 0.24586148268764754 -0.6858299411984705
P 8.47140857749541 5.532981359493448 10.9605497679543 -0.013766457656473066 -1.174020982161107 -0.10449708867382648
Ni 5.445524580925867 0.6149078156281629 13.333816434285994 -0.3767584015112414 1.189027225761952 -1.9410286205811733
P 5.587453499428252 5.1304628374404215 13.618957311636255 0.06678774704851079 0.9393024034641565 -1.6994328551484152
Ni 6.4385795444145995 1.2003413179531282 3.7540208075840638 -0.39155304332191276 -0.8495588189504207 -1.0133483747369774
P 1.578696674496097 4.468112664496367 5.500189405211488 0.28206287230886906 0.09664416828831097 0.575068616782487
P -0.026291825328800488 6.8176471938184084 1.6907412547023133 0.33879169245948104 0.340551098352749 0.5829410775520283
P 2.6983936558584025 7.37675142977958 8.676819227426257 0.3426120946468358 0.07913984085596049 0.7747996236606592
Ni 2.8425233766615903 5.8304549484919805 7.180639854466604 -0.9455571261246167 -0.43067237792087765 -1.5727995966971815
