# total energy = -381178.2816200034 ev
CRYSTAL
PRIMVEC
9.08962750400541 0.00000000000000 0.00000000000000

0.00000000000000 9.08962750400541 0.00000000000000

0.00000000000000 0.00000000000000 13.30358864574963

PRIMCOORD
 96 1
Ni 5.4098373563702715 3.4828453747833845 4.626628677118802 1.1268299262976011 -1.130238694868834 -0.6918105842619376
Ni 7.418745062739167 6.287759047234707 13.249669420643372 1.6744281055739616 -0.057707382013797395 0.48463571951121054
Ni 0.27186258367483035 0.5230053610202567 12.310290030048733 0.49795146278351016 -1.609554801939344 -0.4086321102913866
Ni 0.8215996307815728 2.2234683680954057 10.563794421440791 -0.8179000543945592 -0.9439812969970647 -0.222470614567533
Ni 4.9093351866330615 5.437133508336579 0.5565379065476987 -0.6594637925001159 1.0889046120067376 0.6335457870827734
Ni 8.147969534150775 1.244515465407621 6.853211151662312 -1.4834568471662903 -0.02781496532973919 0.6766081654898863
Ni 5.923283155944319 3.136712352180312 0.9346473304169302 0.44841118996153745 0.4487492900272465 1.0734538246693062
Ni 3.8178890515992783 6.140334375659098 7.166909655763427 0.8523320108201838 0.4962730466398227 -1.3780279907068138
Ni 8.208188317626231 6.328835074785738 8.602792688872505 -0.11137478963026626 0.6801568020730931 0.21624571670374373
Ni 4.977525573596513 1.359226566911055 0.1813189842852894 -1.0987110565741982 -1.5472094069329032 0.4268566037192133
Ni 3.148028938659851 5.624461645490643 12.332705960905912 -0.142757931927238 0.8587137459768115 -0.4165269396584311
Ni 0.1215274133114709 6.470996851926286 2.008443226393711 -0.43905006046161166 -0.4269753886852646 -1.8755547072480796
Ni 3.746399129782756 7.832141330280861 4.945821861161186 2.010286940657364 0.03252265521805366 1.2968104413862183
Ni 6.158822678389524 7.8504114819466215 10.075593244862425 1.545697598274067 2.089116449361757 0.09544243467072595
Ni 6.937331111160215 0.988078888892971 4.821925690872553 -0.059047183871143466 0.6877076178371575 -1.4687437093258318
Ni 2.418904453152881 7.644067843655857 3.319671105301673 -2.9293323936446973 0.6461645042880484 -0.9533162012447454
Ni 2.6178309552450085 1.0630046899779795 11.8774837715284 0.22913877061632795 -0.1955614488815148 1.0240061115611396
Ni 0.004909307917749978 6.411814286007993 4.167388872300359 -0.030752707801824455 -1.0089019089298497 1.248760637066843
Ni 6.257681469193909 4.958046501447396 2.3693023548244945 0.1955344522983213 -1.6187153853926894 -0.5321574192412578
Ni 2.3762104718722448 2.778980964639175 8.689904044844639 -0.4331036130701896 0.5201938191214783 0.06798305290819259
Ni 6.689275171379809 3.221991239209252 10.464230275527319 1.1024067602582306 0.14975441784972918 -0.7962433953567319
Ni -0.15085146121640186 8.780053154392242 9.44683824628265 -0.9046578168070937 -0.20386225543772635 1.1244187457529475
Ni 3.7934652219844027 3.780457964753704 7.165458951183399 0.2597876058504364 0.5315113010168265 -1.936690912437768
Ni 2.509773461213882 2.348968857672103 1.5390521253661529 1.3353232527494356 -1.3680189432102439 0.9936498678667856
P 1.6165448373120623 8.405251446041005 10.72414272567231 0.12837003863668214 -0.1278607031004314 0.18960034620207347
Ni 7.820261186884269 1.6418776296963784 0.3429025689204792 -2.5096478821938906 -0.46310555874891857 0.4177749531329192
P 7.523839338141917 8.479840930901322 7.656348839633773 -1.6690835534325965 -1.2652768895543112 0.6653220510531058
Ni 0.47016553730712185 7.915793173952501 7.155348558298909 0.03227428665267345 -0.5874029699781239 -0.467415241867866
P 2.900245687710278 6.527116213311563 1.5183123218558212 -0.45849428522915225 -0.1616316289032894 -2.0699774145394607
P 0.8172684231851872 8.489694087322059 5.1463472287647605 1.4537006989497803 -0.08564987406033636 0.2216162369870377
P 8.214341995575346 2.2291584750321056 9.054023622729405 0.19129624584725763 -0.06580918518532537 -0.7002839118402714
Ni 3.198858136726983 0.8786270459735217 9.677083969558632 0.5034824199040683 -1.2434515661491037 -1.0953169432909846
Ni 2.4222857946552008 3.898095926374738 11.051463854799035 0.29974743407282567 -1.173832777409701 -0.1939138859757628
Ni 0.8933113395138385 3.243333685035723 3.1567022614058553 0.4964527667507966 -0.49133061503288283 -0.4356901428504432
Ni 1.308815491717866 7.005503318868278 13.266671569245762 -0.16263641601871992 -0.26183446107713615 -0.7298482557609496
Ni 5.5957475116040065 5.834677465179225 9.168461126439238 -0.050058864329604116 -1.5326039983149025 0.08979577790790987
Ni 3.6581933826362167 3.324849466199178 13.137547045107306 0.25784976539777527 0.5338103814636483 -0.37819179152365834
Ni 6.594561250804074 0.43820004359419584 2.2768290274754306 -0.28986642751368785 -0.30412370876365047 -0.731824919871346
Ni 0.9919965184292611 6.144715576207802 10.303842885896712 -0.12578813684211884 1.048158540437627 2.194216461726905
Ni 1.0529697410033527 0.9731173617079748 7.948534921870531 1.3497764520602882 -0.2435444045186967 0.7049720613445601
Ni 2.9212518173120556 8.623066194482114 7.019917650466071 -0.45167391987320926 0.4445221393197764 -0.4524851029205949
Ni 1.9872380339454259 5.405228915129207 3.1863162684342377 -0.9156217720177651 0.009945541248486097 1.4328914755139128
Ni 4.735859642085277 3.2469695361134865 9.146031561140514 0.1609040067086455 -0.964220506862075 -1.1819685191429579
Ni 0.43811369213109896 4.202580274882031 9.271523870052288 -0.6572428735893971 0.07583905861750165 -0.29213876848763237
Ni 1.7921746236234217 4.518190327687279 1.0637773083320041 -0.5544172590807226 1.2295357273989598 -0.8601270813845704
Ni 5.520085450675752 8.93432231562174 6.185929766099789 0.6848030425958529 -1.7812255602461904 2.816436539384214
Ni 1.898923211266554 6.389535608528998 5.635985475481614 -0.030547790879869967 1.2086889658569377 0.7553294307511895
Ni 9.059341054930634 8.816038990434404 3.295937178428803 -0.7460472341183151 0.49458460319380637 -0.863577758937332
Ni 0.3430570925912842 1.6779089138770136 5.0074177232323445 0.6998139141823883 -0.5663595190442633 -0.5395729949790384
Ni 3.1386211739961385 5.125722863526148 9.184398879638612 0.547461910808812 -1.3852263082274658 0.9122091467917901
Ni 8.046547468336566 7.618398735046848 11.532615116137618 0.8903108040568021 0.3161114772531459 -0.7392615786550494
Ni 8.697119391308458 5.397720882653625 6.360871467594681 0.224440079589078 0.1644289891427684 0.277815924107057
Ni 7.639913883799512 2.3453330065943394 3.0777852048002323 -0.1015439195827735 0.6980308541400365 -0.6697757159490852
Ni 7.123532134480171 4.08305167070056 7.729743947415042 0.657966639129299 0.5094293815161226 1.295354425665982
Ni 6.083551471452128 1.1631814767980544 8.927519638255246 0.7565589322829164 -0.804653473797298 0.2767669140172524
Ni 3.7638330357006313 4.2909223664439855 2.32561396827409 1.7490695443389361 -1.2857883792441016 0.05259062961252233
P 1.645867976254224 4.793469702412438 7.3996686610969125 1.0044934954495088 1.8404606917584239 0.5151362020929128
Ni 2.667142185487174 1.9496615130567414 6.2166608883718135 -1.504924530121763 -0.17243309039416754 -0.33754470742625736
P 4.775145012980511 4.428684763780439 10.82793718431476 -0.47016477958854513 1.5927752684881602 1.649053888475231
Ni 0.40164246997005465 1.4769826936921158 1.6749084277750894 0.5604158998663188 -1.0132540152509584 1.4098610760570105
P 8.177947126286934 4.389726619482205 3.2630645398719755 -0.06398704437492206 1.8504771954541617 0.6812045266113171
P 8.593443097826038 8.367020471958323 1.1483417506241633 -0.15157604443950023 0.6226733631446437 -1.2152586486546555
P 5.726747225935821 8.357385466602251 3.8929357447326223 0.00022574285756090157 -0.6920260427068533 0.4077949591020718
Ni 6.315255171010292 8.542277583534213 -0.2789733994201661 2.107273579886758 -0.007455170726464581 0.923159732266023
Ni 4.433075053956839 1.2082114923961538 4.898022236004601 -0.4275551724481347 0.7644527332086962 -1.1086488845132003
Ni 5.936644908655099 2.2908315989386665 6.79825344469638 -0.9727809948375763 0.17804735125715143 -0.49492758835552175
Ni 7.655338981996923 3.2184008362699608 5.397798144489028 0.8575760328279424 1.4992868722200114 -0.23775607997169373
Ni 6.445800403957387 4.458407846341155 12.532459619118232 -0.1463705889791608 -1.3821019036658713 -1.7352897169460242
Ni 7.237197928798748 1.084892513466115 11.326130588617591 -0.4825526117299367 -0.9676223334547722 -0.7880279494254752
Ni 1.5249577486632033 4.102230785135762 5.29027875641741 0.028068218991125854 -0.38892357611886563 -0.08568792638712339
Ni 5.012975121604707 2.135889805259781 2.8044900958007632 -0.6956212162572794 -0.44898146064271066 -0.8595429267463262
Ni 0.4938958283289139 4.804286359368783 12.276219378561782 -0.7449360033320074 1.0912255468304304 -0.5760716041257047
Ni 4.704773115370401 2.108030096376419 11.264162051810962 0.20435256481058356 0.16618633815350733 -0.2854950379188696
Ni 7.762260272566249 5.351536484338337 10.68714521406776 -0.1930649077119062 0.5856062830890172 0.18289953714313018
Ni 3.662601852068005 9.198885019295192 1.9266120351492608 2.315752251050573 0.07804969311557526 1.2121630404484673
Ni 4.640954839327959 7.94970657488034 8.437083322226824 0.22730017474569242 1.2109685059197337 -1.6616031858951514
Ni 1.949516079013631 9.107716053520274 0.6500719934487001 -0.9402143737554646 0.5086919891294659 -0.1742356908205451
Ni 5.556898442838105 6.590398201320035 11.827209949713394 -0.4432486719239914 -1.45252056259875 -0.15250112735693092
Ni 8.286186412871949 4.095177234044901 0.9716875632716444 0.2890958678962505 -0.24054649823263732 0.5655138832145163
Ni 7.662319816066229 7.852311214134753 5.3238167557214675 0.8272971793387429 1.2704504633354508 0.6466998079662282
Ni 1.103862566464345 2.7434496099817327 13.000652707215666 0.33399581373273446 -1.105894718806831 -0.16815246074094267
Ni 2.396734851206219 0.8423058026694352 3.7260429085611286 -1.19246556201954 1.3170715056280997 0.45101443191233936
Ni 4.012534339047339 7.932745329602573 -0.05188904865629981 -0.8424839143815103 -0.8651533309545681 0.2116033328357259
Ni 6.651380513521821 6.2054797373449215 4.127159089087677 -0.3262015144992963 -0.04747387721124727 1.3812169299577566
Ni 4.471996839744296 6.558130023004885 2.9491133441209567 1.2062016806587097 0.7301053660770781 -0.3522627303627224
Ni 2.1305178352923853 6.940621556385591 8.607462030619123 -1.3238898141015136 2.351494955867821 -1.8772500926726314
Ni 6.669914264390719 7.203348155264771 1.792711820620161 -0.3112497782854704 0.41571447105946474 1.4654570681547598
Ni 3.8585651355317556 5.105516621161478 4.716295127435833 -0.5871278619398662 1.331542959771397 1.2024594400074582
P 4.855206453712859 9.07292095870608 11.612091184846449 -0.2233080228671638 -0.06556878703974514 -1.509343485125065
Ni 0.50103845777118 3.0750392282737513 7.149175792131636 -1.3323849960567182 -0.42191674321543465 -0.3045970488556432
P 3.1006083509781224 3.1259138744793553 4.170076675209596 0.3728575237949385 -1.3625108689078211 -0.7798143032664312
Ni 6.4249306187710244 6.654316463267115 6.885232092104174 -0.4888369020767516 -0.5760638908162208 0.6711358295214055
P 5.632969537012609 4.742058768172864 6.276154319557255 -0.237782562334255 0.46384989311411085 0.45479755310385545
P 8.21189688572555 2.958510201231436 12.086204347461253 0.0022096060568090976 1.167204730570222 -0.7122140876189541
P 4.185819001413542 1.2962445366164992 7.628503674154722 -0.12160932287408088 -0.375509873816121 0.6554114768076131
Ni 3.68834367769857 7.258740346434496 10.316082069587235 -0.6429071736930154 0.5202413845299622 2.1460789827897297
