# total energy = -381171.8315601049 ev
CRYSTAL
PRIMVEC
9.18869911696671 0.00000000000000 0.00000000000000
0.00000000000000 9.18869911696671 0.00000000000000
0.00000000000000 0.00000000000000 13.44858996561962
PRIMCOORD
 96 1
Ni 3.023339318075041 3.0210880867727554 5.312099105604574 0.24482558522396544 -0.8383822335083109 -0.4402548794029902
Ni 3.929436945496962 1.0079635466755403 8.683916165094537 -0.01458355424112972 0.7277800603780111 -0.11809873861766111
Ni 3.6727690109388385 6.846646787892831 1.3789241972758985 -2.3135498440826154 -1.7453193332678847 0.4068768181631767
Ni 1.4649910671370705 8.067641136658928 0.7629854752307543 -0.04384167977529869 -0.5270278113241762 -2.7148843922713244
Ni 6.898388353048625 2.2005188714392965 6.915117298799403 -0.5091175067026587 1.2221157807858047 0.42598268575469217
Ni 8.729108025465559 4.084376791289361 7.655475602267391 -0.6733004412728921 -0.2345630269556928 -0.5393698778292969
Ni 8.82195064211165 0.2634942191886042 10.52134266905244 0.034509089520463145 -0.3918173527268929 0.9185358603407664
Ni 7.958892881709749 1.6893882901293709 1.971765286159594 -0.3181814724082972 -0.7675557976140522 -0.24096121717255276
Ni 0.6375284896690216 1.903687132708562 6.619786074646886 -0.3838929556734937 0.5169118059360969 -0.1738381982718103
Ni 6.083010752759211 6.507308126695269 3.875816291356199 0.16791591925010435 -0.584799985137638 1.1362463345154947
Ni 7.891705113210519 3.9934178579778346 1.6711220750036024 -0.1254253541860614 1.6665422750679817 -2.617433668921318
Ni 0.2472081687389276 1.395349915953309 3.8881355803642568 -0.0516730028942594 0.6780032460652 1.0616151801631653
Ni 9.164551291522727 8.896241275087071 2.1857590639255777 -0.2793896963520801 -0.6652909407048543 1.262929472368057
Ni 1.4921161071548124 1.2823840480745432 1.4034414844626666 -0.8616273200791806 -0.46611914876426175 0.42960588432957625
Ni 0.28168508698099015 8.318198586253704 4.471306482217237 -0.23659856932848286 -0.39480214638682976 0.02934862836544623
Ni 2.208310888354962 3.6602264365403916 12.897520984094438 -0.08535959651342719 -0.632053518807963 -0.8949578159105102
Ni 4.31296406111367 8.31527657991033 9.992504545527682 0.7826425167438457 -0.8130905488210578 -0.27137428224677135
Ni 5.697783727791799 0.4980357660899787 12.758475750166093 -0.0014310760195717289 -2.1980821153298984 -0.7570029617988705
Ni 5.966654254878228 6.212222240811205 1.506296107749453 0.5215115094916374 -0.63050365782234 -0.18679450132216216
Ni 3.517268654495667 0.03238465143581602 0.9960926661881012 0.2623389115173805 0.5940585276214285 -0.10357072020481517
Ni 2.230106482840763 3.3258680503054365 8.124279359614672 -0.5685621831225369 0.031428650822926514 -0.5331704338868043
Ni 6.340037046585862 4.688487819733273 7.06291752531884 0.14325415483736617 1.2084282559963835 -1.1370827143738609
Ni 5.721536515205708 3.9788629584561193 11.666221509183387 0.0020360565934223 -1.2676073374597008 -0.7123704106911602
Ni 2.1373373757882153 0.11033514329980934 10.25001784041156 0.15486319983120425 -1.3859927540798453 -0.12661628917036905
P 0.9458111853340753 6.667412021434134 2.47583159552994 -0.45471116403763623 -0.5015016420286138 0.36206069028975063
Ni 0.9380559232151816 5.737322700419286 8.481326481896987 0.7169559731793137 -0.12488773651503651 -0.14074192993847373
P 8.68831020104863 7.559331486001254 6.478723921245678 -0.7172112837232293 0.31226330715164935 0.9810357786472006
Ni 2.9140121750767043 7.519627116788292 8.053378437771551 -0.2991059438340849 -0.9578925077615179 0.3041069965931021
P 0.8480746674977909 8.077206572518842 11.825439613320048 0.03233162225317012 1.0204687878318426 1.3877467606564744
P 6.273033052070492 1.096946909660571 8.9244845797966 -1.0355151406420038 0.39926918101924785 0.674138106682839
P 4.357575195695694 2.116626047807189 13.06504934778125 0.09585149718368653 0.5372680009949456 -1.3825186794883157
Ni 6.920937420868251 2.597351223487471 3.9245678537945903 -0.3007123690892563 -0.24664746892405262 0.15617060578871814
Ni 5.211811804872312 0.8332376749108507 5.249872315799646 -0.11846949169351854 0.7098512438137322 -0.1855187199335321
Ni 7.655794450129388 7.693973495276311 12.434324170994726 0.6028696981551552 1.0308295622408763 -0.7547452761129454
Ni 6.368770108962378 7.768163052560609 5.72020966704224 0.8831934762857305 -0.024707530049009063 0.28585319258923675
Ni 5.070305837300082 8.27799802728432 7.6652119479322955 0.8066015986626044 -0.3234445205794494 0.16729062696127964
Ni 5.495384250667545 0.9679191955924379 1.6553597804079268 0.5800056490727882 1.9708608734512574 1.1064081681081397
Ni 2.1933333086703692 2.4291245186619914 10.47548370912001 -0.885205878730069 0.39914628228813837 0.3074512304749867
Ni 4.2632072549835645 3.4248854728092257 9.516357179785354 -1.5148564445234942 0.3818543279769101 0.4532412643603291
Ni 4.30641251858906 1.4914269547153374 10.798464648014187 0.6088115175608869 -0.33316123364658107 2.9903894088570175
Ni 3.424517924841506 0.43623716966744414 6.630934723377755 0.08924581894171082 1.3172730801159442 -0.5503680287120134
Ni 9.019663882647473 4.469658948451931 3.3691808216914896 0.38336073731910747 0.4833586525709998 2.1038959216637765
Ni 2.828676725671295 5.134360259374499 6.600406189178926 1.5747718899322038 0.25579236864811433 0.5621459951835481
Ni 3.4272285911034412 8.152030150047457 12.095150906382639 0.5547813272883606 -0.7506762482498942 1.094007994671574
Ni 4.436331536478914 2.827298420792345 7.12233257317071 0.7820791880412079 0.08374931460351383 -0.15744098786070948
Ni 2.3230501751779773 8.213272830168815 2.9179136967540527 0.10372884304923427 0.9523399533744049 1.8523615569610676
Ni 4.8077663239576305 4.2141028464961625 0.4878693893028413 0.02279745751048977 0.6357273681151244 -0.8726550386482519
Ni 7.189486343482925 5.282913959227761 13.035839391916616 -1.9947991294344096 -0.5752833038964544 -0.7244237423112685
Ni 8.451103931381285 6.020187616376657 4.97825069217483 -0.4151154040228851 -0.5326369299808376 1.8192573182079312
Ni 0.9891175246306935 3.981270397644686 5.530544808129567 -2.0646459750242183 0.3326423850286336 0.4694579833295076
Ni 2.2867823794631987 5.131245290348071 4.058381042402439 -1.9625677802045294 0.42522678142527415 0.44914421147282
Ni 3.9941437652140817 6.3106056430706765 3.5741779440776056 -0.28302497911182223 0.42850905172097165 -0.36496269442789403
Ni 5.320229266650542 5.51437729189948 9.535547778049937 -1.6556575098346777 1.002492662969396 -1.558562112941561
Ni 8.44493831422278 6.638081693610072 0.8097596296028113 2.8254287155804954 -0.653625588551784 -1.4957096963917145
Ni 3.895126342710293 4.085020000232871 2.839790457345231 1.4231595929381298 0.16633803324002322 0.5049158099164852
Ni 7.5184509632915875 0.6932175199981293 5.555760436455003 2.102806288144024 -1.4999892976036746 -2.7592904291905254
P 3.1193152811459464 5.298764465335689 8.925183839805188 -0.473305639210372 0.10141150776996727 0.26651438305130876
Ni 6.908992111917349 2.3519118793431963 13.34464584343567 -0.18095064094687544 1.5895986705323912 0.2918052964076136
P 5.028368614183221 7.777811186713261 0.2796516278495788 2.328434217393616 0.756436290662123 -1.689788904300748
Ni 7.940267388445535 6.593121388458714 2.8297040222410725 1.121356818998172 0.14846886626908626 1.5337018593647715
P 2.08350997591561 0.8998401232714867 5.017319203403637 -0.5355836713139873 0.44217652190573525 -0.945769756356055
P 6.658168190045975 9.435967088285619 3.5154079429090843 0.6199335956159775 0.3010530402581267 -0.12192942521766097
P 7.776873939395575 3.745920245214327 5.518279732446747 0.9608387348740357 1.0246933674361514 0.5907181503942859
Ni 2.1199707343134415 0.8412070337209413 12.5333599708969 -0.604590537501004 1.0916214967172684 0.13558301144535356
Ni 8.274919813054666 3.9711812059307694 10.197339946808 0.8507536105894704 0.4221121470556924 0.37835557079503224
Ni 6.718409301955296 1.7066906107097934 10.981742442117804 1.1694446756443344 0.27546079361131914 -0.6245117019049632
Ni 2.0871946442920035 6.78686511094316 10.618065673367738 2.1269726009775822 1.7922100842821522 -1.658639475281137
Ni 3.7741203630376505 7.741993637258939 5.395668487025088 -0.4227947749450138 -0.3015040117526162 0.38745573332408756
Ni 2.163414904097955 6.103244268382202 12.96226180199857 -0.6326021922225815 0.5059830748387351 0.6373042256839412
Ni 0.5717585374552717 8.121532857425883 8.66866568104391 -1.3474177220201247 -0.6340358393453145 1.69801463464465
Ni 1.5279887888042918 6.832183775363045 5.875702672526057 -0.3532927142891335 -1.2168316495687301 -0.34477773483958685
Ni 3.338493322996621 1.7157506681140935 3.2518824821432237 0.8211134191255343 -2.4902987882433174 2.054743885419158
Ni 3.81997197201073 5.381628154658181 11.683113094909885 -0.15228386913980224 -0.6802233936449705 -0.8983267323827433
Ni 1.519048184489501 3.0815129726659363 2.9389475480767535 0.3648176842095975 -0.6996272520928789 0.7321031132333972
Ni 1.5201875831894334 4.683002166315051 10.687648016876665 0.4941991948299295 -1.9518822754662255 -0.599381996716871
Ni 7.386005053123658 9.001608088733224 7.712618284808832 1.182852721520124 -1.1281368180344828 0.1884873156435528
Ni 8.664456337943596 0.6716148881953817 13.287839467284693 -0.09200486974408671 -1.4105365048574805 0.3363584004276401
Ni 8.519008418417569 1.9959968048014596 8.828097881871768 0.09610886461013127 -0.3008452951226948 0.28599280349089456
Ni 6.813990150960902 8.266622417683385 10.090934810153039 -0.19514287328685748 0.5201668225382848 -0.5597574403467134
Ni 7.139646839060084 8.38485341019974 1.4073678156278362 -2.2618858400494206 1.142729371136677 -0.35556711214560704
Ni 1.3078367448391586 8.883799776379746 6.7978456064787975 -0.4585531634915458 0.8510472305704891 -1.1908257124232717
Ni 3.270212099293424 2.6582539217386882 1.3129033935741798 -0.07640110176855874 -0.6460724587948744 -2.12462107002627
Ni 5.051377116962498 4.368151388466839 4.933803116438442 0.26897801410045286 0.4072077191400342 0.3888533850025626
Ni 7.756180988812933 6.4668319067500954 8.637289948779486 -0.3729914782696415 -0.2591224614626118 -0.6923368890790528
Ni 1.7788310880740519 4.86408386131154 1.6018346887387713 -0.0523242633250131 0.8656647233733479 -1.0101769189875311
Ni 9.062859957553774 6.435967066160802 10.766604671302291 -2.1616043321188387 0.3896342290326451 -0.7542871055296042
Ni 5.604693016267496 6.930695819411219 11.589309340328203 -1.187353437603955 0.7297330703393239 1.4196942600973486
Ni 4.676165774115457 8.563444967714926 3.3709560783755776 0.46124125184667014 0.26785984133560964 -0.8221035509529454
P 6.931201197866835 5.548210082328113 10.728653505895355 2.629395212158568 0.2909840860578988 0.7016946761448689
Ni -0.005289934125411214 2.3266980887575994 11.863592930109231 0.4817028621351317 1.6913914729011774 -0.6120721905900297
P 0.3457027542586346 2.9073044246658126 0.6008481213604773 -0.15473438756282384 0.28658081478388064 -0.71942011844909
Ni 0.14536797784304853 4.980036056428031 12.518028626293376 0.29374287974995866 -1.250868427438465 1.2115223215406747
P 5.975714312282529 3.3960789008391647 2.0880014120811494 -1.3712719029299028 -0.6832909768267006 0.4500834354576378
P 4.9213845894791 6.237509540990346 6.413444645568834 0.06759610188241906 -0.5956983772176966 0.0736821601754989
P 1.4305885773584714 1.3340521036367932 8.674986587218775 -0.49513301949810856 -0.2079901615631708 -0.7167934794595203
Ni 6.372583419127475 3.3885166014033237 8.8501140051382 0.9081946263157584 -0.8603283987620989 1.490916131657813
