# total energy = -340870.08051517286 ev
CRYSTAL
PRIMVEC
9.20134227283677 0.00000000000000 0.00000000000000

0.00000000000000 9.20134227283677 0.00000000000000

0.00000000000000 0.00000000000000 13.46709450222686

PRIMCOORD
 96 1
Ni 1.2339920151642 3.9833346901849493 4.711732269065196 1.0685916114809983 0.9873010428306223 -2.139490530938935
Ni 2.9724108162751355 5.08617077227816 3.324271065764961 0.0093673001475129 -0.3199938430266876 -0.866984727736352
Ni 2.25941720453072 5.6325556790894735 11.903686353710961 1.4224049741602922 0.8859496988746292 -0.4032294512185765
Ni 4.768135577198483 2.34560617780671 0.9407746805222307 2.999082308645325 -0.11248833440941916 -2.0896849202707175
Ni 2.0113490162611884 3.451984776683443 11.043636889410031 0.8312646486269232 -0.20744431636202987 -0.9447647121303084
Ni 6.512930908519758 0.304409847409442 6.523528094440753 0.9692698963605243 -2.1474049006900047 0.5960375057246702
Ni 7.886525688981634 1.0907455183177586 2.752068112608488 0.07164533225112822 0.14492280078904074 0.46342951774724056
Ni 4.687761852252846 3.4530797364165315 11.528788703517485 -1.5810641506988188 -1.0249396791190026 0.5130345823688777
Ni 7.105138499959495 3.261112132118785 11.5950475693828 -0.1340254371502466 0.43106061449823185 0.8059289980756121
Ni 5.143844785782366 5.732795102049721 4.3901922827054065 0.91272850963037 0.6795855029506555 -0.2396514972221937
Ni 5.344314430360566 7.740997259246066 2.5879180063365745 0.6005917007542559 0.9044482718994487 0.6205563168016409
Ni 2.9185277557964118 2.665546050741423 1.695237821855368 -4.2430198132919115 1.103673542785796 1.117683998132275
Ni 2.7750880307617782 0.9702447396242208 12.313489295900004 -0.06678928971040757 -0.12883309431602974 -0.7637356525370137
Ni 1.4069772503076416 1.1046303438407084 10.177231137851807 -0.95643263538654 -0.03545628392508087 -0.04248696551961715
Ni 8.230416655909877 5.333778893432948 8.047006299946355 1.0954395849117782 2.6449169619432515 3.8658371797590583
Ni 3.9127419920987534 7.808912366724456 11.80105366161982 0.16360777879305372 -0.13293143275511943 -1.224095530219995
Ni 4.053200482229851 1.0248363034596484 3.1087710285481007 -0.7670868283974337 -0.6487901148363536 0.35060359749274456
Ni 8.445783273663462 5.066884758828125 4.009894364719074 -0.14223059866885826 -0.242887230550672 -0.7636636616484977
Ni 5.692824471120832 4.3793236571867125 0.16720311164534918 -0.9564750585887011 -0.640249167244878 1.1070974808656804
Ni 2.2156464192340524 5.356800651854697 0.803388518583388 0.7040204960645681 -0.11386567437292003 0.2241271763343495
Ni 1.4572901899759576 0.5231285141610458 5.565868950807447 1.8657243514212192 1.522641744895868 -1.53601045289329
Ni 9.12007603971568 8.114120890645093 4.848935324292371 0.20410368202457108 2.589209898188934 1.5582057580434068
Ni 8.621216065857338 9.045167912093193 12.541702827765679 -0.6620567500382727 0.3281331843043704 -0.003704702545096846
Ni 0.656826778108107 3.0091609774008217 6.534557743449606 -1.8721865621067948 -2.945249064874953 2.403415298886196
P 3.568050508390856 5.305374349768702 6.741897110185152 1.2456999958636483 0.24513360338268747 -0.7316984215958109
P 8.279156166045773 1.3207698743470617 10.225457213087651 -0.515034386407726 -1.3155931213103602 3.048233059338363
P 8.625301461836258 0.8970195375074642 6.105253476400829 -0.612284563711152 1.2328033424066382 -0.675693881205733
P 5.744259974549121 7.9634489105666955 4.731744268422295 1.4538536795878767 -0.8771940641691861 0.2016516209396527
P 2.868500057739237 2.4667050437494145 4.755055869126334 -0.22230117886920422 -0.21739037183114818 -0.43307635937667993
P 4.074004717158538 5.911144719751069 10.119565405555667 -0.9830204131773974 0.7309669427464249 0.9087299299939383
P 2.652388131259768 8.450816407898754 3.9929666552992127 -0.23288101126757957 0.039642296981970436 -0.3205813400990414
P 1.3912245522988347 8.33206388424124 9.202509945201136 -0.11178796590828491 -1.8132499356715868 1.1949279075171033
Ni 5.789567384009032 5.331745396785782 6.9747968856816 -1.6050463725460293 -0.27814965329739194 1.189609066407351
Ni 4.689381288496742 7.609114420133782 7.300498639161357 1.0749985434486067 -1.1474193204131788 -0.2807680647568455
Ni 0.22975567683429307 2.260475358894629 11.965001338361246 -1.4957914574722433 -2.9034447272446577 -0.7093110550395462
Ni 9.285994643976668 6.1158561831272005 1.8043077730159967 -0.888149020518793 0.5750544757150999 -0.6924893554965171
Ni 1.4205032234810917 8.222429890797935 11.5386875075583 1.0177876414552536 -0.12476818021803673 0.13653020584997133
Ni 0.7952416501155154 6.132657834157622 10.102071813584672 -0.4199652759160186 0.3479093384900331 -1.2656139611787558
Ni 5.869361424390092 4.573609999742764 9.697735388853008 1.1923064107338561 0.08701770094214045 -1.2268892909150484
Ni 3.1662002863472645 7.332255231823622 2.132083509049016 -0.25497912871819955 -1.9457576506257264 0.49017130461745906
Ni 1.2042164714980204 6.696065224214435 3.6921655743378166 1.396751535258246 -0.9058945174276721 0.2571352558292539
Ni 6.0320779615324644 2.2169346071553333 9.810091139347131 0.3288122126492659 2.5032952005029854 -0.6123858651757066
Ni 2.1743876003838825 0.09808170819210195 1.7472474890428569 -0.8444119846421586 0.5128018975327814 0.393157154584239
Ni 8.868741374931473 3.381079232959221 9.711269643234523 0.046147702200656004 0.1820965816258606 -1.631590955803777
Ni 4.781652349029638 3.439360535054889 3.2599260790969775 0.12631212766638894 -0.10928448276014081 -1.6809268259244277
Ni -0.014506836262082455 4.505750100318143 11.672725301036042 0.1299057585549182 0.7232173807079931 0.788915751347067
Ni 8.257422595545304 1.4875902101529446 8.232771279403133 -0.3777253934102011 0.5917499340929099 -2.7335778549157697
Ni 3.5167806291238746 1.8972799758317604 9.42393564685589 1.0892889919293498 0.8486669032637706 0.4303962414413556
Ni 6.197306465121335 0.9338350281634442 12.905597512842956 0.739940864110261 0.4450669560796528 -0.1728724919244313
Ni 7.560365708655593 7.254227849163175 3.619322227926297 -1.4391384848648892 0.07525850352368328 -0.4845261905165397
Ni 0.09339086389018031 6.576576593173332 12.553136415701278 0.1492509958507494 1.0345257801455408 0.6423479587554357
Ni 6.796415063282221 5.752587189325974 2.0943350022843368 -0.7696874992450745 0.35123557464978866 -0.28250535916292635
Ni 5.245261980556355 2.1088556405598617 7.280298012287213 1.867649850578706 2.4171125938676306 0.68965599981278
Ni 6.60538599589855 7.827443870106313 11.841912222080163 -0.9408962303138376 0.305116668804539 0.49631958360704204
Ni 0.3069236541243988 0.9983916457042096 0.7854449809741737 -0.8534167592439302 0.9494850004241131 0.6281359289211118
Ni 5.826943236410769 1.4251130959708185 4.655964773684485 0.9354814870561694 1.2743438848525859 -0.9676174483587657
P 6.616952083163195 3.7519301328114163 4.39851489681111 0.2920243543969552 -0.41272042142814724 0.18590387118709273
P 2.474369761881036 7.441751205132502 13.52244445867988 -0.16415208133229794 0.7360731536247388 -1.3928833105520915
P 0.9990541423494398 4.186923589801109 2.3049601683533782 0.3439107588536013 -0.03093037103026931 1.7635476833504529
P 7.746370843146266 2.606004164751359 0.11973062634345776 0.5092015817760327 -0.6569801068463137 0.16803033334078157
P 2.929468151785005 2.976376594804221 12.948799655185802 0.9178699446219934 0.8499851078545618 0.5724448060063948
P 4.186638348189968 0.45393165970098065 7.532698192509166 -0.6061331993977754 -0.3014271357680938 0.8356442657518576
P 4.687973483125629 5.356092148497992 1.8403862361541579 -1.1084293123032265 0.056019195678097065 1.153554229666323
P 7.403317198366855 6.821884378754404 0.10869085585808004 -0.9152672168918238 1.3260798797742968 -0.09421756112468935
Ni 2.3073101911754863 7.26611598340814 5.898143223088426 0.3280128566764222 -0.2534488081166022 0.031212163936746244
Ni 0.26271948560564307 8.388339293716626 7.201192232309809 -0.9817394895824447 -1.2969863048424501 1.720882797492075
Ni 0.9809366993708526 2.0544941102818055 3.1492265702159283 2.058071150020178 -0.2812663445495027 -1.4284483521408948
Ni 7.778437521043867 4.42417099953188 6.223319579923146 1.1841449579689864 -2.218163973681438 -4.83018804155141
Ni 8.54638154897321 2.444410191368959 4.470644219060548 -2.5482023454283214 0.7316768243292561 2.291614991682737
Ni 4.160202891776823 -0.14037291764775547 5.467075058721723 -1.2755101372465452 0.9558523374030377 -0.7572647001006894
Ni 0.9090162475915078 3.3379801456500786 0.2927103406815225 -0.11381399519937818 0.9929618406608255 0.8609403213144851
Ni 2.939065151798548 2.75131176227185 7.052555589147037 0.004260317938250727 -0.2576865003470336 -1.0990319302487266
Ni 3.8026479315407067 8.743005032472157 9.40847555153206 -0.46799965361642626 -1.3180433826230655 1.2146320708142502
Ni 7.944448138727802 4.86839340284332 0.24628772853547506 1.2430412180845622 -2.1725778004112066 -0.4862735122249496
Ni 2.078242774744849 0.5880209806955736 7.857349152698849 -0.3273412845306943 0.6486808429519989 -0.49748506467005293
Ni 7.21299663433989 3.4295611055108592 2.1839183507329025 0.3830794586332628 -0.7240984977613659 0.23038164188449356
Ni 7.349332923122889 6.698144727573074 5.956078554713807 -1.8430009416817743 1.9007774863706104 -0.09066738187958578
Ni 8.482634649554393 8.065096138898058 10.46460562013654 0.16428295048320737 0.027241609324772438 -1.9646449744485326
Ni 7.479798755521764 8.437124810563995 1.5640414028782805 -0.3160993930682879 -0.9228496572247719 -2.1843462538010447
Ni 2.7000142789779837 6.619344432159859 8.333626272162908 -0.06501394297753964 0.5764675540125427 1.4138349731030941
Ni 1.4268889550337271 5.132159081067889 6.903219643969853 1.5570163657209959 -1.4058573542142563 1.6691375465989833
Ni 5.871413323721846 7.050519332097182 9.5558598920085 0.2443915830103404 -0.3841618930641642 0.15432995303555355
Ni 5.652522591869329 5.591269256212419 11.794817911946591 0.24349349667610326 1.3061126926237507 -0.9987820468870283
Ni 4.842454818914098 7.028951385758021 0.30494076485985566 1.0950428636939915 -2.278445801290631 0.254898138968619
Ni 3.5532823540075995 4.269809281193242 8.755334831147275 0.5855733729685527 0.8534951778903495 0.525309800191805
Ni 6.286357055851029 9.39061390586927 9.256889878163783 1.0128521518268492 -2.8414148065961062 -0.993154930508238
Ni 4.2140583482286615 -0.03376708595369161 0.3971106106275075 -0.10718646258053152 0.8468928420824833 1.0171461512165128
Ni 4.607940207844901 3.6181518171863902 5.516862601745002 -0.14466260514911858 0.6602811461950887 0.883510236195201
P 7.334077097598005 7.577737842908296 7.990794379732802 -0.741538290504368 0.5278364232684006 0.3526080295172831
P 7.715417527666344 5.683006638892212 10.51842059068228 0.10256747575128142 0.34423626051382006 -0.24286589039443335
P 4.981689530519979 0.771642967531878 10.989418900071774 -1.191344303930903 -0.8254662967775913 0.8847759902815021
P 0.13363937535637405 8.366329682947313 2.673420559477368 0.32433463649388655 1.0356460097929132 -1.0043448856867865
P 1.6839652574099304 3.2112592595652125 8.793218597643689 -0.7852092490297574 -0.748186391948505 -0.3353872947636224
P 5.8670334847894905 0.8104983957746293 1.8344467697028233 0.6829451634515077 -0.8858188297237195 0.49514947455834085
P 7.048163788469698 3.5155016425448884 7.862668448679511 -1.2930561165501084 -1.7807226524678428 2.2156895439990163
P 0.16191049955734346 6.375803304299401 6.105105334789882 -0.044561588660458736 0.2652715117831432 -1.6974399930881026
