# total energy = -340863.8996202153 ev
CRYSTAL
PRIMVEC
9.33925363366361 0.00000000000000 0.00000000000000
0.00000000000000 9.33925363366361 0.00000000000000
0.00000000000000 0.00000000000000 13.66894171909102
PRIMCOORD
 96 1
Ni 4.24758602669916 9.233935047769561 9.423286550977757 0.36587492182951825 -0.4002369442491559 -0.018830502442941762
Ni 0.9004843151736206 5.452303072309544 7.930159338740629 -0.3435875711862276 0.14879925302531147 0.649860465082397
Ni 3.820128379677282 6.11034689597486 1.1795561619127284 1.3362439647914923 -0.7458577438153283 0.587515070075956
Ni 7.466770780523923 6.0174306597891345 0.9366851308036447 -0.5951563886712975 -0.7006978594492383 -1.3840441149939067
Ni 4.541744504047819 3.3742443848823167 4.72782726842146 -0.535013143522498 -0.3080199584942631 0.008938183029894284
Ni 2.9287152817322464 1.4777314523263665 4.254498942371558 -0.06243846894087956 -0.2679410881955063 -0.16860908866238702
Ni 2.445408896908515 3.9155195181234577 0.909636783910379 0.2839737161783368 0.46177835529706274 1.19828859645922
Ni 2.1528380927080693 3.688388865390836 4.121719035210341 1.3717331588370376 0.9282890830727885 0.3671905553171482
Ni 1.9175169143814301 6.307087616799918 5.98221233366024 0.18872617112723628 -0.05525892047330483 -0.48496456360553897
Ni 3.8721480234157974 0.34072306293499 6.0022375616861146 0.09564426626888689 1.303343871629362 1.4091519658051281
Ni 8.528233011896408 4.594399217045621 10.29088174992345 -2.447013495192121 -1.2393941082502784 -1.041378284291
Ni 6.163225751064174 4.911140010114159 2.592410619776196 -0.4731922535609593 -0.3467577413840931 0.1928139680433647
Ni 2.399291661579827 8.253929788154228 0.7920098160607865 -0.010893249873736077 0.5449936517739776 0.20933433429589107
Ni 5.76683980147821 3.2233033647563043 7.218609062129764 0.48883613074580323 -0.7820959002117563 -0.7931734981821565
Ni 2.1957613032327044 8.10105554248892 9.97337980766915 -0.0982279678356631 0.6249004527029496 0.10550084734799249
Ni 5.894217884233975 6.327391154589422 4.783924430374739 -2.5031766726472506 -0.5778274104745468 -0.29530173959664624
Ni 0.8885917093681223 1.8004400285814244 5.8146315650155715 0.470300533835461 0.16254437052554585 -0.243071064426704
Ni 3.263069907492139 2.7487665392629967 9.891024399695189 -1.961384815640022 1.1675880820515698 0.5485577149761521
Ni 7.5660750663177545 -0.016535148875950097 2.934803541292954 -1.2609571791330347 0.434244154432536 0.033100896319026865
Ni 1.0034281081783847 7.961900660674937 7.993788608894109 -0.7246883088265649 -0.056818037430308596 -0.9723840165094738
Ni 5.823286251524096 0.8807392647621358 7.056728040087181 1.4632338352511962 0.9271498272620226 -0.04102657892400676
Ni 7.6799766058213335 6.541474869745255 3.6193166781151294 2.942446305318836 -0.08311682322583751 -1.1376162182798277
Ni 5.120628812393987 2.049489910013201 9.077598740715768 2.0638422481760004 -0.25911217704996664 0.6235089716720617
Ni 3.767184149811277 6.416515653727061 10.554856692873813 -0.1313561178481996 -0.23704157040317242 1.5180718661369983
P 3.8692995510028267 6.870291317994027 3.640886618721678 1.1145261692295838 -0.6876713652825835 0.026742301090850715
P 1.357918165159146 1.588765840909349 0.01660519327954774 0.055339138891936944 0.684149468172254 0.08571955095600721
P 9.347845926526954 1.0628164231753725 3.912707468800358 -0.10582789167010806 0.2168733229854136 -1.1263725270452085
P 4.148253723143891 3.999348660349116 2.5900730045467975 -0.9056155527346725 0.06044560688056687 0.6069065872286902
P 2.7386801451449365 5.154464928958555 9.20534852577329 0.17713435252457882 -1.5407862770153786 -0.3421595804904494
P 6.632018935462474 1.324838528153433 1.0110311947075634 0.5417124099195445 0.28701507410782184 1.8515169495725852
P 0.14387307284031994 7.093536841140433 10.050936707033987 0.7169153497493653 -0.010022674343324673 -3.0200416845058116
P 4.304265958090372 2.635621479318272 11.750438080404301 -0.04716354505968007 0.48011726281556666 0.02197367605761377
Ni 3.9290801146599614 7.470179608165676 5.855733621046668 -0.39750566136092186 1.2349882658730988 -1.1073180815169188
Ni 3.9404179687889664 6.723730407906321 8.069855897275767 -1.821327827583715 -0.4984312306334061 1.8061511198432765
Ni 7.025603108904533 8.561163220841113 13.984147573655447 0.39755811186541207 0.552174742903449 1.207284115089611
Ni 0.7051715662565734 1.1887002253210552 8.196785695848508 0.12226212596673139 -1.0956918101319 0.3212958496675628
Ni 8.838669808641159 7.60562680621589 1.6724362158201862 1.8979670135050086 0.7145625332464726 0.8426937163994712
Ni 5.929025283195097 1.501070247605101 12.714727243703086 -0.060612728586050456 -0.9203209772656473 -0.4666084296958545
Ni 8.240845493562187 1.4433443197868305 12.52377125668981 0.9436205712235362 -0.033942932604348 -0.5946771350420339
Ni 9.368392284915595 3.5155192773118547 13.49034386754588 -0.3402934738159881 -0.49518238467880527 0.16478045894491622
Ni 8.795522456025012 6.376039327701437 11.844767345691938 0.782871087814884 2.7522407214325955 2.088700444870261
Ni 4.868739797803053 2.994323539768705 0.8547257071913528 -0.9497914759209385 -0.8899140828390157 -0.07373101113556334
Ni 4.724298898330901 8.895536525108632 3.7687045803320367 -1.5492148673987063 1.0157999216012636 -1.2149933108084108
Ni 5.898513940987964 7.428731999743497 2.334627602103865 -0.8026634399504627 -0.47380854698871944 -0.32949484053858735
Ni 0.597667415614912 5.580073403725455 0.7707153834417219 0.09710002487880696 0.5059429656294189 -0.8533152006690594
Ni 1.777203965094633 8.84344216733961 5.726685679709134 -0.515950470464092 -0.6540588194344606 -0.16449403805274898
Ni 2.3422848563051595 8.317203232737432 3.1679141182420514 -0.889628690388113 0.12749714911342558 1.1472902510344822
Ni 1.7999917443983993 7.524169834458737 12.308732135868908 0.4902075571720332 -0.9972972348113857 -0.9157541838305712
Ni 6.969576925280232 3.635771509408287 0.3877686200926918 1.331918340832945 -0.1753078408388013 -0.35046887168709323
Ni 8.662727606057693 8.574322229463657 4.982684297874172 0.20066920242172537 -0.6147757055641219 0.9489072735437722
Ni 4.033903899457286 5.395044107181924 6.265296323837421 -1.0667735844356532 -3.9717602022461342 -1.1888421063343397
Ni 0.1521719337785686 8.97057742949624 11.08016730564698 -0.9988668932913508 0.2575278632819823 0.5710620667262551
Ni 5.748600238781384 7.9841934595266135 7.636851667414337 0.5176114031062827 -0.07291879964691313 1.5581970162926584
Ni 7.877174950083229 1.7679394253121181 5.317218237307274 -2.108619552391691 0.10992211634413973 -0.5246824510204512
Ni 4.038956435770129 8.362339846415752 11.927354367160463 0.9001745842247594 -0.21508846317084895 0.07569070596509545
Ni 7.950049147586216 8.719444894464159 9.033967614752106 0.1871642259567551 1.3836103698905977 0.2723456450211052
P 2.7566115124659327 5.7067043461761795 13.058090513691017 -0.8460199525592268 -1.1286952616411143 -0.9630671099839221
P 2.6469126371782123 9.633440308129074 7.949966028227281 0.20689590005772757 -0.4105028449515382 -0.39958054161207957
P 7.5728553645860055 4.898167786567876 12.30520563362911 -1.9404655489888518 -3.2621616978731556 1.3164572690828682
P 5.1656159980113 7.389684579551265 0.12588193429492017 0.13455919816652956 1.1613649839599935 -0.29936382548116186
P 5.534086917950151 7.4041791014690705 9.82954129006794 0.6130857194562086 -0.1113490785986534 0.1405930630654353
P 0.6608904282275253 6.821708519658703 3.90327575637459 -1.487029395008897 1.3787453284888125 1.0957445177467064
P 1.24906916196841 3.8159070369537975 6.487197928360133 0.7307468563158189 0.9177272483965421 -0.46062521552922603
P 8.641695606470776 4.544331477354025 2.2701792793909834 -0.573483017462922 -0.08111444808382805 -0.5235730200063564
Ni 9.03369210676462 6.018448638454754 5.663999674190769 -1.2708626111722048 -0.8108061236622554 0.39840477613642356
Ni 9.071441370676844 0.6821727198166329 1.26182378090085 0.1520684106948865 -0.11012934725893937 -1.1331597251703711
Ni 0.8317744909458585 2.5078698264099857 2.4362424192910366 0.5810772848704121 -0.2421452101783249 -0.7495650174635864
Ni 5.158807681981608 4.635221095462326 9.61134363360747 0.13618182137161708 -0.010678562759768707 -0.7844338043163136
Ni 6.6422921146567955 4.25949357531076 5.000686643524148 1.787051422899348 -1.4843793589805598 -0.18350117528287105
Ni 1.9705358582779386 6.04160998791104 2.5540552382915083 0.7644843577775802 -1.0896797996098653 0.43321854138149907
Ni 1.0062579020837294 3.2604455771706804 9.05195595152136 0.3139088131748723 0.7177175339356864 -0.2739325298922508
Ni 7.781811829398492 1.9200385129109452 9.031903639659427 2.3424999514580627 2.824554797615974 -2.822622870700584
Ni 6.865098692873988 8.446243702671914 11.76145466420214 0.4057612165014947 1.6812222456776595 -2.552954772511642
Ni 7.634531796767184 6.500279421176028 8.633030646783057 0.4476663413757129 -1.037051117670556 0.8472062595578442
Ni 9.25648000647419 3.7160610744388114 4.24853956451347 -1.8183893137806812 0.46433017518463904 0.8365541791606367
Ni 6.005747253269048 6.357958532319432 12.0176378676963 0.8176275174594628 1.6937502029413412 -0.7930387723765052
Ni 1.2086582107194768 4.983313763581169 10.868585576587655 2.90355682734249 1.3132495607788481 0.42200750315702806
Ni 6.274213443378092 2.5278184725545945 3.103450852723069 0.2767314327936266 -0.6099034650734851 -0.7430272163450687
Ni 4.578727949147375 0.1886940197397606 1.465680079206047 0.4253882467038028 0.19343977455282169 -0.5719614386120729
Ni 2.072025529464016 1.0238250385060184 11.233190979373294 -0.00841007844056616 -0.09576896477220927 -0.2919369368894714
Ni 6.059709461800671 5.364495407959539 6.979648376592192 1.3537554913126943 2.2871366441964094 1.4644623083416584
Ni 6.519929211198621 3.127650727203364 11.128978915700724 0.3097875919176471 0.6446167001849543 -0.22611206797486216
Ni 6.031943860214566 8.434550956898015 5.422496843765293 2.830839859293737 1.6682682566201528 0.29236476845550935
Ni 3.686726478212119 0.9893538526821652 13.012436505351456 -1.813770069841115 0.7108753142028724 1.0267911305054445
Ni 2.122653624384392 3.29345050014589 12.390854996422927 1.095725491583313 -0.29555473614771677 -1.1738003815098688
Ni 8.418496779593436 3.4261706360827024 7.145740468179065 2.2374048241889213 -1.2704023837063347 -2.9031567636905935
Ni 3.443448255636788 2.7332073424105072 7.462558777054252 -1.3272276202254947 -0.33231045561051153 -0.6743309394199354
Ni 4.736318517988256 4.7414084113163515 12.40452392830366 -2.135971976262715 -2.619909127045004 0.830540368866389
P 5.467479359755699 1.3454876183340179 4.745679252085045 0.3047505437143719 0.42399085213564397 0.9046534459317195
P 2.536354550539693 0.8944670339418924 2.2601872117364348 0.5988855166964268 0.05216896869407145 -1.393426327539755
P 7.3108332596079455 4.287156445104921 8.489437751557126 -2.652726173575025 0.8288257001681274 2.813049368079536
P 0.308794955924422 2.4781803385383983 10.951269726295838 0.28026592830944635 -0.11468174251631216 0.6530452905682818
P 9.356905002725581 8.156129122224293 13.208025696181368 -1.3755383915157406 0.7316338869064626 1.488868762210481
P 7.390431719856306 7.071047917958683 6.598176281420238 0.39100462701761046 0.626588896148966 -1.6215937353817491
P 6.753410556524095 0.9226435626957707 10.265238960729045 -2.9031937875761162 -2.6874666623800043 3.9652864215963324
P 8.229713103017069 0.6409632623666867 7.120575848779885 -0.1272868328748324 -0.194857995056587 0.4137784303790164
