# total energy = -340857.65172538836 ev
CRYSTAL
PRIMVEC
9.29957958770749 0.00000000000000 0.00000000000000
0.00000000000000 9.29957958770749 0.00000000000000
0.00000000000000 0.00000000000000 13.61087474252185
PRIMCOORD
 96 1
Ni 8.041327605122031 3.476508220512589 10.371091685083531 0.7547959268452226 1.9220878178126122 -1.4500235072085093
Ni 5.000300083180106 0.6728747787084585 1.8263480948272781 0.7982043757378448 3.0967232936292666 -1.1573882587004325
Ni 6.043164203330712 8.138052529223712 8.086696532602318 -0.1273765643751613 0.22279843022059695 0.038977923925094166
Ni 1.505202003684797 2.2204419457657787 4.767412579161881 -0.36647913107242047 -1.6675912851577859 -2.53297138741118
Ni 0.4350194394383246 3.3889991794783803 7.757775993180921 -3.283729910962235 1.6119901508537142 2.1293932946039327
Ni 5.871484670224174 5.028375513029443 11.804752025359596 0.1663388045709716 0.2968294890950824 0.7960230518158098
Ni 1.5808447815564501 8.739363325533164 7.494256604969012 -0.5118001957411443 -0.10527304760790257 0.8596336866879196
Ni 6.241747419297183 0.2869859465695843 12.234746902112398 0.16449558071464573 1.695985262919447 0.6695548581875308
Ni 4.134927733186661 6.331971937481445 1.7064365297042816 0.5860166311535585 -0.4550055553496035 -0.3762300398115972
Ni 2.8256120674768455 4.613697973310378 0.7376277492420606 -0.6730667279955311 -0.3868463818748628 -0.28154942300756025
Ni 8.50616707548281 1.4088769614922003 2.7892628019412014 1.2724926905764602 -0.7808692268935068 1.9230296129005913
Ni 6.157056150785118 2.2898168072020377 3.171755427726654 -0.9059978757747558 -0.7202636973963079 2.2393303233464077
Ni 6.347781222259144 2.0074722806516005 9.565559337889539 -0.8405805267112104 1.8579128257966002 -2.616145546237514
Ni 0.4279554790164771 8.923746083937548 4.401729872884764 -1.2764899846613111 0.2963934299989283 -1.210091245521103
Ni 7.574181839099565 4.961995116121667 0.2723381792440814 1.165003094933213 1.6095584014837698 -0.983257468888868
Ni 0.15261632553841709 7.933647776627334 9.25053515978774 -0.7004718594813614 -1.368171152517392 0.48077803632801713
Ni 8.634584965774138 7.892506437888191 6.373387613809378 0.5432825826201417 -0.4511720405361262 0.5754727941994411
Ni 7.213581352899514 2.381901241242499 1.3354335341205037 -1.1306143330406981 1.3488148594779674 -3.407922935403092
Ni 6.229518472542669 3.9089944545547697 4.771019885964981 -0.03596022014469291 0.34130803112343155 0.7482216160618146
Ni 7.468696711315183 6.816600912552191 2.152764257548302 0.05092429765369295 -1.5593545269358693 -1.253888959432344
Ni 1.7248859650398574 0.24583158841944744 12.661189339579856 -1.655734128708884 -0.6241967417677057 0.14639707134172208
Ni 8.057378678961037 6.01328465510086 4.452892438257113 -0.034647671980856456 0.8263759530760543 -0.8927811199741658
Ni 2.863851937480317 2.0382352889131483 10.878545547541565 0.38111205049424685 -0.04832259836478774 -3.181160121218108
Ni 0.19852741849078537 1.4779914347085914 6.639111932268812 0.05592894995713594 -1.4778739537618741 -1.1833561435191038
P 5.901950091948729 6.688750296597005 0.10121383102061836 -0.30441810007561765 -0.3344632402874562 0.6737858655497428
P 4.53252194576653 1.19849257941814 8.600698228832101 -1.4974012251615243 1.9694120568198727 -4.051967050914028
P 7.023609547347248 3.1564446003984163 7.770734026951066 1.8895031990083715 0.5952893147047361 -0.07080869528244578
P 0.7411671691164092 1.9106450611778298 11.588080197733655 -1.6163682253167517 -0.11400914192931977 -0.9729640573826597
P 6.620082203186102 7.000239704614096 5.83807128186754 -0.5080661826200089 0.590792455275647 -0.07295016710548081
P 3.1921084869410508 0.04388471462703842 2.3604796603687155 -2.4958708830144567 -0.7155763192229676 -0.15822183189079203
P 2.420819980533483 3.562185244428441 8.221294923283798 1.328697777013118 0.17176820311665902 0.6948581128390097
P 9.19124848195551 5.493940350574141 9.364853027973217 -0.4970034970479441 1.1714763613623826 0.24803175086608897
Ni 3.9830377047900902 6.890606964470388 10.160191176359378 2.9104198730109103 1.5945950953057182 2.7212468441542423
Ni 5.638679002503623 7.520132684318393 11.66688762243463 0.1143842658805514 -1.3472035491267895 0.7851537132014736
Ni 8.485010532618537 4.537060140455658 5.996148320359761 -4.124827229408864 -3.9744351779751357 0.013761315450150495
Ni 4.683640109082778 5.8165985533077125 5.82756368723794 -0.09094171858689498 -0.39553799611158974 1.2085190159379768
Ni 9.200352770071609 4.038342302774197 4.05531961470959 1.3044587019600953 -1.7832490184341223 -1.261017342947009
Ni 5.731609698258655 8.063572198762184 2.5095184377577318 -2.648199489349265 -0.2553884483414763 0.6165808770936607
Ni 7.412183168024547 8.245202281699392 4.093728737055976 0.16886928430230919 0.7138107426821126 -0.0014215629378749712
Ni 1.1941310767353512 4.108851712882737 10.202779529634643 1.581859907127237 -1.1466937551010639 -0.027823707080487564
Ni 0.6255389902102411 4.635970465688373 12.43960454421976 -0.31138193298796046 1.0008116757225474 0.5771365550551093
Ni 3.9211397050957553 4.249600845300671 9.796794306669529 -0.8719083902902145 -0.588766940205186 1.0482253891198205
Ni 6.795537365480727 5.675254247815795 7.484973764930717 0.5905453722618474 -1.2638836087512104 0.8052222018165746
Ni 8.308634711975092 0.8995231949870595 13.147845622933861 2.336582814642679 2.1566960961839436 0.27450691433848207
Ni 4.585771336729535 8.535581644748614 5.900423101030789 0.6723812718927323 -1.1671985599226349 0.38254004119002505
Ni 5.236462899021096 2.8248774007136466 11.325799513481973 -0.525575652258682 -0.5202203014840395 1.1099115532757078
Ni 2.9862715991353994 2.0834870416944935 1.4702606944522965 -0.2912555945517306 0.901261389531035 0.3434068226339892
Ni 2.8746673481841203 7.497060428122233 3.438814235812912 1.770841645908705 1.217439201245742 0.5228353705093833
Ni 8.03497599247311 1.1516319994211819 10.50877939600216 2.447729290312223 0.6221642847187091 0.3189047237275669
Ni 0.18638402786565572 5.681429168458378 7.230599582983743 0.8794288670369758 3.8954251778288205 3.7184607752232024
Ni 2.346209455962021 9.25588055795846 5.476349266406201 1.00253225795808 -0.29720846970105586 -1.1628886196933714
Ni 2.88489688539322 6.667472859202077 12.862493612443949 -0.21690880420903932 -2.8816152900743917 0.2386837339922857
Ni 5.260344218614704 1.4688592478546496 6.245104567417624 -1.1093045158193282 1.273487964610194 1.0059220003659193
Ni 2.6781393392387494 1.7997289790933444 6.831121275641544 1.2530646637588354 0.5435502344592317 1.1963553839922494
Ni 8.829978426047226 8.685639656026828 11.619181710681028 0.04807140158593012 -1.0871590900705406 0.6022629178090917
Ni 6.986215939058348 9.243409822142638 0.9657966467331051 0.7839380956268177 -1.0625862858271828 0.2279095261949172
P 3.5148968837845564 7.725839378014111 7.629303235371835 0.19733139629774402 -0.7776463490808349 1.0852109652052342
P 2.9557968778315633 4.573467993340772 11.812632488842317 0.04171434901965074 0.34700585283915725 0.13759207145558236
P 1.5688390247046793 7.2060765924197465 5.01745780695355 -1.7169785773416621 0.6912007185920805 1.8070468921846687
P 3.3548046264621436 8.340104488261996 11.63825049799672 1.1359529716447918 1.7753400479996908 0.12205746615509304
P 8.770265827483925 0.3883011430043656 8.27062082174815 -0.5991269432832714 -0.23173172815448478 -0.10329046996023501
P 3.6696232838618323 3.423668011037948 5.196236638883204 0.633784899676773 1.0300744292424067 0.08177599292722691
P 6.188860711926137 5.618991793165746 9.843547941504756 -0.4443501325182864 0.41975521678774164 -0.794074155619555
P 0.3586875627419496 6.906109363131815 12.988422005361754 -0.3183766191382388 -0.711680069492355 1.1796774091159359
Ni 1.3953553732176267 7.44429461528184 11.281767865502296 0.15885817992321027 -0.29998448978429626 -1.3600788624275608
Ni 4.215527186815088 3.8486773833382038 2.680281032347164 0.1710002146023829 0.6167477416888282 1.3093530539379192
Ni 7.452729333689707 3.1041065682049487 12.467234524221539 -0.17898657524196915 -0.7821159548164144 1.0679097549226255
Ni 2.486716799318648 9.183381037883784 9.743290107234223 0.6178183490451876 -0.5845048224947224 -0.330533823326063
Ni 1.7948466999708195 7.4995248166316975 1.4711720532218342 -1.451918153128061 0.8406409476355006 -2.7186716272278986
Ni 2.266130778773331 2.7665225407253726 12.842105214828285 -1.4227441026672658 1.5209440454784708 2.1752764302892924
Ni 3.9658055843823976 8.318975844135563 0.2874565052812029 1.1275320945709484 0.6808689976487693 0.8103507812923915
Ni 5.63549854638952 6.1404006042928465 3.7995160874271265 0.5021295054205996 -0.8991703113299612 -1.0352462032513332
Ni 1.513171743128614 3.9779322357648215 6.009595512000087 2.029077076780673 1.0599323931441036 -0.13192998807379858
Ni 9.225545330343838 5.256196606255379 2.191364021269948 -2.086332715969033 0.06601435921759599 -1.4012766768221092
Ni 3.7596246121433494 1.0992474693313095 12.736947432234594 3.2155943916365777 -0.6582638586547437 0.619508592263417
Ni 1.0047079463606647 1.7694774476922517 9.173919645923295 0.2500721783348855 -1.3266457795800959 1.1149239188886348
Ni 3.8849736412719467 1.4821855449643224 4.255943158370313 -1.9874789416239125 0.9820955873702828 -1.4765146115205023
Ni 5.405845436045229 4.193589479291209 0.512637447949262 -1.3987852778588235 -0.35018425056713887 -0.008119029562708598
Ni 2.2788526032297387 6.082557221165027 6.689662585324471 1.6102762534864008 0.9399302668561426 1.2865615099647003
Ni 5.043673320946689 3.4704634939799393 7.603320210860722 -1.9316453795940605 0.17301878769430848 -0.06368828218758064
Ni 4.591471978828788 5.871019691260123 8.332849886464887 0.12239659466206664 0.17061994844482872 -2.380834585372203
Ni 5.027194466460757 0.27317421142144327 10.214907110974995 -0.8993348619322834 -2.7072235332919568 2.631207325666643
Ni 0.0007820946175320897 3.3047542907718026 0.8647502081395447 0.8024369257619535 -0.6859428126272509 -0.9203235483688086
Ni 2.2184332366410824 6.429161840547175 9.353719571658003 -4.197760684343796 -1.3247704169342538 -3.5185791016997787
Ni 8.085593602499591 6.48353648060318 11.392709986408766 -0.3449741671211091 -1.434111463963943 -0.8235050592861624
Ni 2.6886757625641224 5.4509297963995165 4.490309295494216 0.6820010543706835 -1.7726126217661988 -1.265610618744646
Ni 7.202552051872249 0.3889642030071009 5.993207793391109 0.9445518247885539 0.5136061386016316 0.11187666896734925
Ni 1.131117127527296 0.5402302296339168 1.463141866512691 -0.48650002641345885 0.33908814065397724 0.13870741600694822
P 8.227663275175427 2.344098451465234 5.101750123514461 -0.7606721831203416 -0.26817145903875755 -0.9039772458003013
P 1.8222618596912068 5.6787508896254515 2.4533601383956296 3.3356060310062365 -0.7786264536059172 0.7212653991879449
P 5.590488582669481 2.0238116414483174 13.414945349168955 0.3958987218851182 0.3609615436883009 0.482869114529091
P 7.037679810799401 8.580424216041594 10.29269251191299 0.027317199757714246 -1.313797462862518 -0.5678181058676609
P 5.481451015599758 0.2552409027359631 4.261932087427277 2.9860167337106187 -0.5922980932868961 -1.0532531813517152
P 6.7344391296045565 4.6357379762063475 2.1979518432326084 -0.5797310552551629 -0.5998946746872313 1.955348122527639
P 1.1071242129823164 2.7711072333109055 2.5758848852965874 0.4294341346384024 -1.1068956492675195 0.004253633070031383
P 8.82815570850815 8.385663127159614 2.123867674848451 1.0193719552232379 1.713804807599371 0.3803479186347127
