# total energy = -340861.2715802724 ev
CRYSTAL
PRIMVEC
9.38211591205400 0.00000000000000 0.00000000000000
0.00000000000000 9.38211591205400 0.00000000000000
0.00000000000000 0.00000000000000 13.73167499609996
PRIMCOORD
 96 1
Ni 0.3556319257290867 6.341972733193942 10.604272772362263 0.43148767473332145 1.2670830895251146 1.9439961878499294
Ni 0.7336899235924194 9.355480280909049 7.229218812923244 0.2692263826658331 0.10036712566585296 0.2710107282597655
Ni 1.1316051701994794 6.414693515151244 13.067529530639147 -0.19679403573703524 -0.11463417710782839 -0.3082703839421723
Ni 0.8535126812610424 4.146079075873766 3.077913898377021 -0.4728112160724567 0.2555596838120179 0.47502287901179485
Ni 0.5224046688280716 4.5381389438174855 7.9086069249026485 1.6056073872558219 -0.4717948589928004 1.1128246131574449
Ni 3.8159130278980924 7.367588137715231 3.021586487896172 -0.3544826208321766 -0.5963864044236568 -1.1056113832384573
Ni 5.144852246208519 8.14199738343033 13.44975037341984 -2.525281989186722 -2.3449329863795874 -0.8962497952490563
Ni 7.900370365170961 0.6282574556110768 0.5643267782358662 0.3460982534232233 0.17144270145644022 -0.4222630708112599
Ni 2.967431975506061 2.336766130689922 13.187626246098139 0.12580793433646073 0.2881864687081037 -0.4764871222621471
Ni 9.209841692556164 6.874126358870399 8.38570066398452 0.7363534038693189 -0.04051235829174958 -1.9186427966868056
Ni 7.0960040227212895 4.078471547195618 5.888897211349936 -6.743831585251412 -2.8930230176907017 3.8955542472075173
Ni 7.9936567456381855 1.2061460826818393 10.237677843960345 0.33543974526811265 0.614508053725032 -0.4653611875523147
Ni 8.12058739447064 3.0689558539165853 8.347952658033416 1.9074381862202374 0.023799159302126754 0.6849457388213043
Ni 6.343417579074657 0.15869192649469838 8.755178716666594 0.08953943892272967 0.37429502757241345 -0.3130832319497834
Ni 0.45697191466388354 1.6946728684535795 13.06102021848304 0.4531062814443616 -0.7104210002742732 -0.5982777079090987
Ni 8.340541724519278 7.341909285926154 5.4541111866479195 1.298683490039215 -4.494543893581976 1.160090488122944
Ni 6.342423074767152 1.877746100079544 1.8344692131056757 0.04999330119899132 -0.19539509850697964 0.7085163270523926
Ni 7.486590898435968 2.21001374206353 12.551986941532864 -0.20225891550634842 -0.2518071587481212 -1.1053907825872187
Ni 1.576505116066503 8.246410953602286 2.0356386702817946 1.9630578324670707 -0.19059587734612338 -0.6808288884394533
Ni 7.924548078382671 5.20286187010763 9.962440332953737 0.05066924422009338 -0.45375394233068944 -2.521056381141148
Ni 3.5623331937164413 0.6107419830480412 1.760043700651451 1.0867657112868638 0.5827163631357319 2.1287011536329143
Ni 2.885141435118046 3.6578149893530654 4.898967623659093 -0.421669403091319 -1.7378109407059814 0.1427108807393865
Ni 1.9690716182800838 4.956890932090005 10.239298135412291 0.695118822699564 -1.8982207813870278 0.2686535408814986
Ni 0.9166271145348099 8.662526567248305 10.109012441859422 -0.1155713442101171 0.6455566955007205 -1.4298107797060602
P 5.406772781610664 9.417580507431483 2.7881341074021737 -0.008213903269360046 -1.4941816897829623 0.1103877431266486
P 8.45880329806744 8.935527381774637 8.429792856848222 -0.5008827774976923 0.8650155198251231 0.6311479762745582
P 2.2140761983385286 5.584066629713766 4.0991797538703905 0.7582064951886685 0.8093310817786256 -0.7797988766474635
P 2.6109772381942555 6.990211281481378 9.671630385630174 -0.8691835351598838 3.0716090150601425 2.8665002888098243
P 1.8491681744129271 8.854803654776747 5.3987867243790735 0.6637022560614956 1.0098601590780607 -0.9500118194618608
P 0.7620389256259874 4.828252738125797 0.822310577718867 0.7563293327706136 -0.5667593255858433 -0.6013532615106288
P 3.743614441165674 3.4126227669724494 7.052972947189465 0.31160639029394077 0.11786065446492605 -1.301412973155236
P 6.914206758886087 3.8997047068634743 0.2255085427848962 -2.441615721215318 -0.17510883745411776 0.2577919155766464
Ni 4.171335732437959 8.39963029177087 8.815570459845661 0.3396411849439699 -0.4834141883992836 0.9573515476563835
Ni 8.832164608606838 3.132022438398199 0.6131353608673301 -0.06859317568836573 1.1141780418615457 1.7767999203746692
Ni 8.564042494456947 4.689613208389884 4.80796766488752 5.043683963424159 1.3392763238599128 -4.0444792271774155
Ni 1.0023383744559988 5.9602613393179436 5.8485541120832085 0.11725875921486903 0.5794898857786343 0.5318324318016712
Ni 4.332717511620976 5.5806327752180405 10.571467265177136 -0.8356959449253994 0.59247781339787 -0.21833448091197238
Ni 3.4228305092985423 5.7764844489838385 5.960727630488537 1.483614455790077 -0.3343665668085919 -0.6847642189381175
Ni 6.995296388412208 8.851332271816588 5.423599606851333 -3.5105498036373994 3.277892992565484 -0.283140421643764
Ni 7.793939640035669 4.860161315010946 12.1698205150256 0.9441509898057094 0.05007789049299762 0.7495932995983606
Ni 2.631908739232411 7.810836831147152 7.013741628681601 -0.11805837229802894 -0.7133250612949457 0.008800114790133231
Ni 4.546226327903049 8.022065793214848 5.055646148036899 -0.2708124962060304 -0.45554651545473807 0.823274431332595
Ni 3.4378512771883165 3.315930678357824 9.12484910272889 0.49326459883080215 -0.13726168469935715 0.6953682197062089
Ni 6.058707883644866 4.04933069456249 10.477913494400818 -0.44311677433181745 -1.1429438011403283 -0.39550919975618337
Ni 2.7716835050174575 8.295535713546608 11.526437211824332 0.17519059853464666 -0.8452108263943703 0.6864205235946179
Ni 6.447793620782178 7.300909438531829 3.343251400465896 -0.26755850804510695 -0.6245440978047954 0.7325008628924482
Ni 5.445624124416133 5.045664514709022 7.817030904202011 -0.5624421862677281 0.6840803054972154 -0.24036600679071507
Ni 1.305596513432376 2.2223606068623707 9.854110667518077 0.1880196319785149 -0.4342775787736327 -0.42143620403459037
Ni 7.605997090149372 0.07462253689250412 3.0391357360771982 -0.4450962666556915 -0.32330156724368186 0.1888344145703264
Ni 5.59626338065487 1.8045093017362712 6.437161806807979 -0.5578460822566135 -0.4941230901763555 -1.5524164050551392
Ni 2.168910691392011 0.25755409856522954 0.15008289675350095 -0.9758835450223 -1.5661872335869866 -1.7515082356874156
Ni 5.065047966589267 4.6975598607338185 4.126175854761107 -0.027047491036095356 0.3901849593297925 -0.20588134275028414
Ni 4.279211303453965 0.7426263891858048 11.711690847233921 0.16527848162725728 0.5209587223119608 -1.5423479650755436
Ni 4.519346565252078 3.299052251478558 1.2056797915112447 -0.06696463894600725 -0.024983409418215037 0.03323845033815566
Ni 1.7135496860639643 2.137349252802879 7.368032850018777 -0.8929189311036105 2.2123000587014934 -0.6807815801412855
Ni 4.776257050652261 5.675636082933129 1.2641378805603432 0.5348205678957176 1.5004289562442545 3.10783920103677
P 2.978455961933597 7.444221262089796 -0.025248212659695218 0.09405146786047029 0.7521464050375175 0.47826504009817633
P 0.232880071411377 2.726630583464243 5.1953655593369055 0.7357391673240877 -0.8161416769425557 0.006762515534814159
P 8.328354355694284 5.406969806048943 6.90206160958358 0.7076321246752264 1.810159469671721 0.7764405016981918
P 6.529145949559339 9.378729164626014 12.04116918609884 0.19368608623567288 1.0995901167450417 -0.003974668377031864
P 4.919475053049142 1.613067222541488 9.60676243485572 -0.7135263786724744 -0.28634144507956494 1.24901054829412
P 8.304261081527551 7.126918095298932 12.356296640164132 0.3878622247338868 -1.9039723391588244 -0.11107757010482161
P 5.2869913052529185 9.00335069912328 6.891048881695374 -0.7279183857280883 0.5953996150303552 -0.17431770901139013
P 0.1561718901079442 0.4465033495099732 2.0231839111477057 1.1331252723880099 -0.6013617461510611 -0.6426588051276351
Ni 4.2525567115896 0.8742762424208549 4.625212486997635 -0.42110427461646827 1.0054669151063715 -1.0571306620292504
Ni 9.399097738697657 7.547189986381036 3.4296916508087185 -1.0467845429082359 -1.101094212094394 -0.5528830818243833
Ni 7.001929544500947 3.848187507311475 2.823383655833574 0.31701419157307337 1.130960403526207 -0.11260454827230928
Ni 5.275254278001133 7.73334993420671 11.138956754753192 0.3700393376198531 0.5852015914514309 -0.5187434598281969
Ni 8.837240333421558 -0.25377122935026575 11.868918225404078 -0.5345719422200212 0.5242016547292907 1.245577868463487
Ni 1.6012363741286175 1.2330539916811352 3.8053628383340383 0.7979179548456774 0.0805619180144677 0.49404338597835556
Ni 8.881580214150524 2.1817454262284954 2.978866898619151 -0.9049090135859512 0.577627892869231 0.9895031926882635
Ni 9.085763207020706 7.966626869129478 0.4694998543036186 0.8642141069697504 0.7064255059616349 0.38255161115425085
Ni 1.7023943500109089 2.395385592136087 1.6187171328620515 0.37065974481267133 -0.15892682837761662 -0.3692191557114028
Ni 6.014940311998521 2.842715506075223 8.285033372774706 -1.4172591682932947 0.27715797880808396 1.2309027829498156
Ni 8.062268160739947 1.4368992283714102 6.498130550127724 0.6453772325000627 0.7355501912417333 -0.13289080932517114
Ni 7.795356339568059 7.562717388540671 10.09077642277925 -1.3693821421063577 1.5798266787472919 1.1327547764224686
Ni 6.676792310759452 7.366593633407726 7.4274910726450445 0.30571367895858964 -0.8049357809244072 0.2701306396476574
Ni 9.196425266520949 -0.034279437625776975 4.875458855325922 0.7868375286617998 1.583403854575589 -0.07941957687990839
Ni 5.588523134865324 5.5553573544216315 13.061775478829778 2.163278891607784 0.31257492485479715 -2.5210607520165227
Ni 5.257362582582145 0.884520574999771 0.029438265713769715 0.6688390630674288 2.0744866152637242 0.5094430083628775
Ni 3.3671664144265674 5.264230291573598 13.208457358493932 -1.2889953162171737 0.7881066251822105 1.7520761923757437
Ni 8.141265578373865 5.8075111069547845 0.8313183473946772 -0.6475917236528783 -0.45448259296659793 -0.9597498726852309
Ni 3.360383144480092 0.679636738056281 7.266926475775082 0.8710743244246932 0.1134255015117079 -0.41628577018190244
Ni 5.268217690919728 3.1291233645206598 12.53269449617887 -0.638947417714319 -0.07706676037701567 0.4472156269915395
Ni 2.7739539771157244 5.765178999073046 8.212063964740528 0.46666627951698336 -2.9487326525481796 -3.064016290314549
Ni 6.789021183649821 7.962733290944433 1.0377511717076875 0.46067740892340014 -0.4117539437498199 1.5049798088397308
Ni 1.0936451284243218 3.9821735074575515 12.244988152864009 -0.5454199406781188 0.051363442073640575 0.6258391624671351
Ni 2.5879347610316783 5.176272953056023 1.8704055324362212 0.4925171791418163 0.5174321972159411 0.3018408262667447
P 1.790464273921785 0.9516468011215506 11.619194440943035 0.752925192185071 -1.0407771603718916 -0.6303997852546239
P 3.6898549158637337 2.52451165613794 3.0362657467595953 -0.9939177768161914 0.1361244857711204 0.5536464423529691
P 3.339789399621844 3.956898086661141 11.708807722953768 -0.24967288601393775 -1.9120579443804362 -2.283761042855957
P 6.002659122012441 6.478444994108782 9.492555811889668 0.15282534346556906 -0.6930292871603871 -0.5622557812885348
P 9.052503605415927 3.369371211712074 10.502657887425483 -1.4462462995542642 0.24633970787564674 0.40418204493983295
P 5.79158965591859 6.29600036426209 5.494935588471014 -0.2213141323655866 -0.6995699164923823 0.29562081349896185
P 6.636017634151731 2.403313480247805 4.528116029178731 0.04458292881669741 -0.62861621099164 -0.6310991253144939
P 8.340316553732675 5.6408471964026585 2.8989490953949866 -0.13967543634717233 1.0061572563051768 1.1179287671532294
