# total energy = -340871.8614761648 ev
CRYSTAL
PRIMVEC
9.19577688356644 0.00000000000000 0.00000000000000

0.00000000000000 9.19577688356644 0.00000000000000

0.00000000000000 0.00000000000000 13.45894899247383

PRIMCOORD
 96 1
Ni 5.561449563993435 4.880520673276292 6.343781206585403 -0.430373101512904 -0.10999333590170735 1.882737341039448
Ni 8.997276897176464 0.5446106933858048 8.619097811861401 1.366059248380712 -1.3005002315329797 -2.1877365104295166
Ni 1.0139079736480492 2.984811257473853 7.917818666780102 -0.19058070783747177 -1.8788475190667382 0.5718321121230603
Ni 4.625273492803684 3.3315012438195613 12.409891330634485 -0.22483371548307085 0.6665003876319231 2.5908065532520927
Ni 6.687417275409947 9.138993015570504 5.030336431997467 -0.2150118442966426 -0.14738591761755265 0.47266312053036663
Ni 4.627866701900246 0.45484427764853264 6.665638916887294 1.0039067697081032 -1.8030915070813465 -1.0137834053918668
Ni 9.10701010337957 1.0702413031712399 10.693902340156129 -1.543211855737736 1.1437038192348046 1.001846544744965
Ni 4.5577856858545 6.015316330553442 -0.0006804874934241112 0.14798061377875804 -0.10984395480803663 0.17932827485210406
Ni 6.627267698457419 5.025482900929504 12.58125095556639 -0.26093843162542807 -0.5591563164276048 -3.056605599672775
Ni 1.8688669429199396 7.941601704675275 8.63897632286863 0.3065639427740269 0.8511156219145793 1.1156356002436787
Ni 4.913478337822671 8.62707330919987 3.3619245522417818 1.5190475997867063 -1.1449181512578797 -0.6205928264665312
Ni 7.00253815952694 6.154246128535219 9.78810175934852 -0.725076545403919 2.047309283517984 0.20238772777472885
Ni 7.011678761803474 4.35232444172511 1.075493930958319 -0.9225028154083145 -1.3515217168861693 2.7654158253619725
Ni 8.425216809630241 6.595220415827918 11.805907183869731 -1.0670309518620977 -0.0425062487933268 0.6463905042559256
Ni 7.082992011958934 0.9655381869533084 7.3946828712779915 -1.2990161907882853 0.6098510145689948 -0.9687374208958218
Ni 6.595404331366682 8.821288118133888 9.8284647830632 1.3384463717594497 -0.6089027917231127 0.4935317364492597
Ni 6.7022500636112055 0.07128198451386947 12.656741847184858 -0.7960927287114805 -1.2254379031805023 -2.4930308424625
Ni 0.9050961842941464 6.566446829788404 13.513861824037216 0.7647311836810635 -0.047904279880446536 -0.005468479313738969
Ni 2.973288948970334 7.757897668781579 12.91986429102731 0.20512363864865318 -1.425140113703268 -1.3229757869276764
Ni 2.948561504783612 1.949679430652522 6.067631105554654 -0.3138296231975046 0.26494061080628567 -1.4262462022832532
Ni 4.212796918242352 1.6633137410211674 1.95555829084909 0.03365599749154849 0.8234083858072979 -3.28022832556688
Ni 4.986906616673908 6.419433943877982 11.002771935110557 -0.9884750085340653 0.7005353657294452 -0.3552369824996979
Ni 3.499774766011018 7.153744319721165 7.002045265883054 1.9407496558881738 0.2883098816598454 -0.5557400916572042
Ni 4.759228375461914 8.690533365850138 0.7161100941271696 0.04311945689729348 0.47488969586804014 -0.2495687563359057
P 6.513028561554611 1.0616064686263043 2.999461049714042 0.8901454821235316 -0.022322317646284135 -0.29886991656387885
P 3.359346056388321 5.143271607730443 11.837333751555907 -0.6057873860225824 -0.33011396217982497 -0.2406244026584243
P 5.2654742874617 2.5803901835103535 6.115813298399857 0.16617605374086222 -0.5233773590557825 0.13714469950551864
P 3.1600275912536233 1.8954795213789855 13.439662019500867 0.12091769612369498 0.1283201592353532 -0.3182434359944842
P 7.434840829166951 4.3063823401420445 10.59694390727552 1.2156512561073838 -1.0053188195642815 0.5675771935014483
P 8.311814488428807 3.185628634249471 7.029393506497152 -0.521942683491785 -1.5488644260378228 -1.8821207905013715
P 6.463619652065859 7.1264052748840045 12.61489830338313 -1.3973053508791868 0.41444177499462814 1.003668171334736
P 4.930931922451306 7.675301200322994 5.32742899542719 0.45159550122679 0.3709407663881999 1.0827347357505999
Ni 7.61993342737831 2.5121023439675496 9.033781372887892 -0.09490173167590753 0.6305381106047011 1.0573834014700048
Ni 0.5116484309509572 1.070526372256323 5.966042598985679 -0.5226988449315192 0.4507755764286559 1.5519705757669724
Ni 4.273755723565439 8.709513449450508 9.067630108219578 -0.08942708171458147 0.16141385646552844 -0.36190051056280254
Ni 1.3047244193174752 5.004562508395183 2.289636269124107 -0.9585967329173942 -0.20311689263126959 0.20154286327593032
Ni 9.389899789328298 5.122719046273647 6.7181155375626185 0.8005769897350793 1.1609039851631748 1.2164380136747373
Ni 0.9662830448852997 7.690281120955262 6.638007446343501 -0.60792602963214 -1.4864105304779756 -0.6195458732592556
Ni 6.246351030347864 1.9435918263194576 0.38333239871120905 0.14550592698602038 0.8935640208867772 1.2580536323329947
Ni 2.3762071523753674 3.0015935503860014 3.6554509933748847 0.8050095715851362 -0.3579533529895964 -2.2313853574677185
Ni 7.621046116387828 4.464457745709077 5.255248583506462 -0.11909504109265942 -0.28903210453785055 -0.2553403687123602
Ni 8.648582231458235 1.283252280166863 2.016406746848919 0.39011836775791525 -0.33364434393058673 0.4089766381149989
Ni 2.7778235143727272 0.3642189763452359 3.176931268421356 -2.2520904512255537 -0.3898998239892059 0.3011664259075394
Ni 2.4603852944673177 8.836930134705703 5.506944354925552 1.7543487904600046 1.3890945329336206 0.18998498323500185
Ni 5.306294341290208 5.819280757785668 4.189030432745668 1.5980979662526542 1.1050020317892324 0.930883583272842
Ni 8.612010626575158 3.543859320652575 2.642651110847884 0.39033973974010194 0.9349225292289058 0.18325177827622635
Ni 5.860634166676591 3.506791143814837 3.697712025449604 1.5801678641367947 0.9204382195698019 -1.5906489661737768
Ni 5.683900529702022 6.767089486802197 1.9300271357579726 0.14492948565726008 -0.7847883594422549 0.39808056002778536
Ni 7.6048707447535975 7.700194168494603 3.3140504179240082 -0.14233807078100003 -1.094719933136934 0.14937235191996212
Ni 5.472756295424847 4.169098586232199 9.594548126776358 0.07975999093846264 0.5837183220376849 -0.6866686350496819
Ni 0.3705907301856895 8.47955465555785 4.461520614555028 -0.04419829178376904 0.9223629473963405 -0.9121620956039388
Ni 4.463069183391415 0.5070854864342403 11.6216136986743 0.07974456431949492 1.102573624853398 1.3294763070503557
Ni 0.9549722392513583 3.297798721341192 5.3552618534859295 -1.8404162116737335 0.5692404401364841 0.29114657977769215
Ni 3.099133156369104 7.134607907912846 4.137388788616329 -0.9571785124136291 -1.2389408227629437 1.095169619079843
Ni 7.830406369939 2.226784972907146 4.4276176241394065 0.36206711804765385 -1.4044951837594069 0.4695173758125334
Ni 7.141063343323437 8.909043417454782 1.3379349677296533 -1.8723117748307496 -0.42039619280585017 0.9009446296215645
P 8.617803966046202 8.025467190351328 10.249864939565327 0.7559711781002465 0.9293031261595995 -0.576964291143303
P 0.9078153755347613 1.4434059313219214 3.79944766444959 -0.7885910210177968 0.06666253432455617 -0.2975000327995457
P 7.361219439000013 5.423843957890754 3.2427592376332006 -0.17602337884858718 0.22870528262333517 -0.448722293444053
P -0.06037395390981972 4.614054644939125 0.3905382095199541 0.3927550340498139 -0.39540918384320933 0.8056063246288707
P 8.216435890026172 1.5000427214840713 12.675664916968211 1.3929547872199752 1.2051840380274725 0.4344069052626454
P 3.467230911426857 7.562248318645209 2.116890840607621 -0.3638931155127991 -0.0769060664294353 -1.9291958896123031
P 5.39998091673622 1.305671584342106 9.858074265226394 -0.01257526556184931 2.339547553697958 -0.6789650957578371
P 8.274415263621295 8.642476235571294 6.468653420361809 -0.5084721598091759 -0.5036318009977391 0.2033950859933207
Ni 7.266852376060577 6.593767483071688 6.222153262912781 0.6795343379977459 0.13216781511621753 -2.0435822123753837
Ni 2.9491684260615307 4.89991456683888 9.644386479048121 -0.5133300021221096 0.605926482703608 -0.36466778889529455
Ni 3.7888716013930073 2.849844839352425 10.444843917562904 -1.6574449407524037 -1.7370514368321375 -0.5179731573210756
Ni 2.099175176336249 0.1090637536420087 0.7635226004426476 -0.3138553342291176 0.5731729424216709 1.237709521459004
Ni 0.14367389930417526 5.017409008777797 9.482274127405235 0.21593384189027973 -0.5377953342533255 -0.8644082252584273
Ni 3.6393666599323424 5.1903080067691505 2.8035257109148946 -0.8622904075844763 0.13380637916090501 -1.0610040289417275
Ni 4.359368406859743 2.165007743436562 8.126594068918006 -0.2447381677164817 0.8086345699322333 0.8144498910624296
Ni 1.1722316651924132 7.367371413771645 2.4421666211974276 0.28488671491090933 0.365976223294073 -0.01380399576262784
Ni 4.038987538334121 3.8895653588658994 4.9819510124819315 -1.43221758937534 0.39259125477844004 -0.7409065704576402
Ni 1.2578443484867168 2.2266470362530733 12.290537502598673 -0.03127952683957194 -0.11495890743709879 -0.22573154470699192
Ni 8.470322095511932 7.103627335408173 8.252018029310703 0.9065848586264773 0.7072708846810658 -0.11363633197093333
Ni 9.2551816571842 6.218377476901971 4.61787273152385 -0.5860798802913261 -0.5210998758755155 -1.117793527126946
Ni 7.356566375869303 4.7680011466609225 8.000928259591838 -0.7735662654741903 0.45142940796257097 -0.5557447196428945
Ni 7.888882315488782 6.552276137526694 1.0435386060982004 0.21846175051845604 -0.12541069889804207 -0.18689117480102652
Ni 2.2334427154103764 0.6791789343658104 10.08734797373716 -0.35820197866529274 1.7071538779417565 -0.42365995115878646
Ni 2.5240568539871626 4.590366323546415 0.37235080189165404 0.586477372840061 -0.9444168418725865 -1.0539072699959462
Ni 0.8273274987280962 8.803678205297304 12.206755698492756 -0.37226694139879113 -0.7669562163568404 0.6656287836602471
Ni 0.6447140819792668 4.66560617045447 11.758518586574294 0.9516874073920706 -0.6952098397514737 0.8192313716114731
Ni 1.2469381570380547 6.842807514111037 10.684238498171812 1.483672819831838 0.10709081754293169 0.2246326552158583
Ni 6.600094177605145 2.456743766799805 11.456499845438797 0.21119169921960404 -0.4265334160518396 -0.8301089377559251
Ni 2.676118221436637 4.065793228108868 6.85407785832645 1.0526901097593937 2.3213518566255376 0.9195013095778294
Ni 4.695943038573471 1.5530655713095232 4.011305491017167 -0.3724024385353909 0.750669820491991 4.417560436947386
Ni 1.4082964549720125 2.4028657097191037 1.3261533383164779 0.32617966012242533 1.1739243086822428 0.5926287371534373
Ni 6.1398179545192395 7.791857673014218 7.6807395828042235 -1.455709758960009 0.5185310867070747 0.5653961266897295
P 1.3082923807694828 3.1841389183854885 10.007590241619384 0.8074410638447643 -0.4898923399244595 2.1941156744829824
P 2.182682026711713 0.8982986659814557 7.721130193849719 -0.18993458961304063 -1.1181961618820033 0.638983413158577
P 4.69124399655807 3.7960259158508984 1.6242933007394575 1.1822423416296348 -0.19984362119663648 -1.0730329350818038
P 3.228030361711344 8.191846382493523 10.856378844565768 -1.2452361688533522 -2.2675538369684753 -0.008719382150868853
P -0.07420348284712405 8.371439906095858 0.9332692860995984 1.7120199477848064 0.45581313885256336 -0.3739636123749237
P 1.8743108428673325 5.139694450501498 4.468102032109671 1.3534263901080497 -0.6327567155225747 -0.3119869135618111
P 4.953452380172869 6.05663295633661 8.451344770644644 0.574362848964714 -0.4937669923885174 0.460051345303627
P 2.0053506642361647 5.912424782392328 7.751762246408436 -1.4717138476977494 -0.3477941530684075 1.1059751943357792
