# total energy = -381165.54234424734 ev
CRYSTAL
PRIMVEC
9.26253367239910 0.00000000000000 0.00000000000000
0.00000000000000 9.26253367239910 0.00000000000000
0.00000000000000 0.00000000000000 13.55665430080754
PRIMCOORD
 96 1
Ni 3.0924358142018455 5.853949086855492 13.247724932557974 2.1037144017805898 -0.8930690835282297 -0.6343117187145205
Ni 4.88581053932279 0.7086597809297698 12.187933614050396 0.3966975636373297 1.2978954469202808 -1.4566656951153754
Ni 8.923682430955322 2.019010046085877 11.212925971524772 0.0692680902682033 -0.0788467350955739 0.4565590158796524
Ni 8.732235121882082 6.212557341637031 4.826236701315806 -0.28538628025514723 -0.06041655341484433 0.23704259884443693
Ni 0.39655685535597796 1.6236017449088669 5.537784540253657 1.5583708228663615 0.3643343168152758 -1.6098437939346726
Ni 6.8920197638333995 3.8232404607048074 11.54316586433918 0.5356201809788775 -0.5513334779490763 -0.9681368111973454
Ni 5.298567566122433 6.937276503498205 6.546480944104467 0.7524449101145427 0.9049041284899447 1.070608641911027
Ni 2.7284182397387164 0.8048261845773154 0.7760076634722993 0.7355581616615332 -0.25579725374412077 -0.6272890075397842
Ni 0.3976674331467701 0.8472847128109423 0.03686395787801034 -1.4884501866158235 -0.4802381046641471 -1.132079861842631
Ni 1.98175613553904 5.838036053956569 5.4068549213715675 1.5649803577630788 4.317640940341912 2.048138721397814
Ni 4.700300514352116 6.344881898094544 4.0352191019804655 0.5037027634449907 1.253411505575293 -0.26684656957974684
Ni 8.895579903705421 3.8328827582879144 9.019879400964083 -1.8826828336524284 1.510474770516031 0.08802300227820326
Ni 1.9088229451745953 7.3416879874329295 0.7784261110217223 -0.24025107847940558 1.3653537376732552 1.0872891878905016
Ni 2.6777336553249187 4.361032429938999 7.546176017704305 -0.25572680551750154 -0.8564869135288218 -0.5722730563152209
Ni 8.053217301303377 3.738182613725293 4.758114470955842 -0.44548296057114894 0.39912468502158355 0.10874352265500627
Ni 3.9405689750998314 8.62759627865791 5.0302782774627754 0.2588576378369994 -0.16059547432929117 1.3148600997990774
Ni 1.2410405779756315 9.385354898231805 9.54338298571057 0.059243359042349585 0.46881495042887006 -0.17177848752930414
Ni 1.3527374718802339 8.277166841134663 4.599040643422196 1.0816427882380018 0.5692769498013744 -0.474967086073195
Ni 1.2623166178876366 5.056787648916044 3.6882640408485967 -2.687378473541572 -0.8734690499091151 -2.658345319534015
Ni 8.599280713132877 9.069678487156033 4.349774746478375 -2.511747702145713 -0.543384912525961 -0.17108428967575698
Ni 6.148766272035821 8.12818824908212 10.80497897847624 -0.5243129834961744 1.133113445313468 0.8654762615116255
Ni 4.483483125470871 1.8055920070730285 4.50643568398282 -2.2931034033028057 1.1715789483785175 -0.09179506772612578
Ni 1.7606224059529652 4.1582477796153015 12.297240774260048 -0.46392522643673645 -0.8836387913532653 -0.7449833116301751
Ni 8.53360008665659 3.146862462230989 13.236175479285759 0.6969188520227805 -0.34860867854990285 0.7878009210163336
P 6.079074968466849 8.899942557078758 5.741188854081974 -1.1538190532919355 0.1410502052075119 -0.8599573885759254
Ni 6.041459819105659 0.6642375955514565 3.6167387556067574 1.9306997278513394 -3.8484282402539916 -2.5490312690875196
P 6.539710031968779 1.4017455376940866 10.793849117980697 0.3388842521732873 -0.29942296085387143 1.0431122362629712
Ni 2.379100306259633 5.160389088365665 9.897360899894801 -1.9689461729270477 -0.17543356778338817 -0.5139113285468763
P 3.9498407713348844 3.0596834950338647 8.540827641703755 0.6610054259556228 -0.22642805655338422 0.7052870214818175
P 0.4472145784220416 0.7018999838345232 7.442358761219443 0.6935861881051216 -0.936610201343974 1.4922762452301332
P 5.624488339471902 7.90982401707275 8.700375710962911 -0.21790304980150857 -0.70216081714801 0.08852231051212496
Ni 0.30091934238277956 5.2833306981837085 0.3817794090888412 -0.2695143462198971 0.651885980152858 0.1257380003304738
Ni 8.944791745260705 6.393537987627746 10.189805023940846 1.3157720700903857 -1.149915347362155 -1.023509117320063
Ni 4.380826464458788 1.838372113842113 6.739514925200751 1.1652810311849482 -0.3159595250563139 1.3255188650645042
Ni 1.9972708794888043 1.5762979852960628 11.577382590085344 0.011235977925135488 -1.30540743902661 1.0571915971741728
Ni 0.7441352850059475 5.780645395142993 7.736172813999914 -0.8585155139230763 0.36735304903694155 1.5027360071108764
Ni 5.573183165300113 4.21243360176821 5.317163955034637 -0.2194536821180801 0.1444322343058674 -1.083185193024457
Ni 1.032735457565929 7.860686275787078 6.768064832828428 -0.26727542958704936 1.2732197985504718 0.7833986781835799
Ni 8.907463734444256 7.671452712268459 0.30595167694272407 -0.153860983818935 0.6450455601922569 0.8904954092637826
Ni 4.495450319013017 5.904717034072601 9.128942956537392 2.074734726718788 -0.662799284631252 -0.8529027957219892
Ni 7.253480878994955 1.0361996451702347 12.876978127360813 -0.14257332672025766 1.40580130416534 0.37305112786298333
Ni 4.168399516551983 2.4360648885229472 2.334225182983323 -1.8188153455745062 0.034588279497830755 -1.154090304675451
Ni 6.258832960008984 8.28419710421399 13.315156177903814 1.0302564633462254 -1.2129708810617432 0.3626836685857302
Ni 5.345704600128612 2.8557225029300963 12.90642279574404 -1.1639504852989826 0.5164122405918591 1.091508882398804
Ni 4.1955480028306456 4.528712077534571 11.101584758914301 0.8907540622418079 1.1573203815769746 1.847495230007702
Ni 2.3460701110806124 4.755106926263014 1.7324318846329008 -0.15244919107307292 0.5948421998649884 -0.3885425386303631
Ni 2.1513716526781956 1.9631940180015308 7.74758703428009 -0.6724540341121966 0.9379008951309394 -0.15535967985164859
Ni 6.51628508423806 1.8669840804455888 5.348073029996048 2.1976421995790023 0.9674264153938823 2.7674691083465754
Ni 1.1612345876047838 6.597045115580148 11.943887154847285 0.38866955112653057 0.42524015116171276 0.3458270020397077
Ni 8.267552331152661 2.388186851820659 7.123954533968621 -0.9349397556200866 2.8611174272313566 -1.1790832271753628
Ni 3.9230349988031725 9.032155963131855 2.7288869239440046 -0.37869058553694784 0.9493083656369328 -0.996364181474155
Ni 8.536008345418942 1.939796857871916 3.286214503007717 -0.3021241618351184 0.020609191609919347 -0.26762587094793266
Ni 7.781121111292466 6.5056609580826095 12.191512657072598 -1.151527171933965 -1.1529762456756658 0.1638872577066855
Ni 6.746107070436004 6.143264327017217 9.848529748474647 -0.2948615667354342 -0.7965362440068025 -0.6599654147268829
Ni 5.247179029147333 0.940258321091632 0.972591973736311 1.034801659514747 -0.6196050086319652 0.3705049644023619
Ni 6.921215270060061 4.703727651821615 0.016760554732596224 -1.393480063595826 0.6543149013093248 1.2741320259520958
P 1.588413379377431 7.245663300551015 9.42066830796821 0.04860259149905178 -0.3076682315817992 -0.477230685296391
Ni 2.7235554095455066 2.895764436121041 5.517680210854873 -1.9079218107248754 0.011248833440941916 0.11066696492996425
P 7.985174728733247 5.079397493681045 7.47988406400373 -0.710186515665964 0.06146916304907478 -0.9009582564683193
Ni 3.960372272153321 2.3676240270036577 10.59592174032999 0.29579924805835506 -0.14324412753503718 -0.1603126529815497
P -0.3264135401423805 4.373685050975046 11.254897290485708 1.2973526870429335 0.36552216647578983 0.22938559651981139
P 1.4541066407078287 8.771443427039904 12.309902657829795 1.04480916434942 -0.28716574075307316 0.5504719012797294
P 3.336448002030259 3.3660788473408836 0.3676420039004678 0.5008917763587567 0.009358558396764529 -0.4428262396745922
Ni 2.9813039348530253 6.551881001252356 7.691218959187144 -0.34932807321443066 2.6314752346160484 -0.9739791289107356
Ni 8.121834150962993 1.612736792877181 9.149101008631643 0.6308690115815587 -2.149240411236847 0.5918247531949032
Ni 7.809056912935743 7.253332678455734 6.748475500303439 -0.10858462847963882 -2.660153833497664 0.16509387642027695
Ni 3.4296198285321573 6.972927995714708 10.757543690884878 0.18730589374094192 1.6513198016912722 1.7874743693693795
Ni 7.756436458978362 0.12573148496889067 6.845568157321121 0.02760567753241052 1.6177864458205171 0.6811497621139818
Ni -0.04598755357384195 7.222757054707571 2.7474731240691375 -0.0463050537141267 -0.44324455815893343 -0.546828133879555
Ni 3.955046315275044 8.235448389343775 13.021790431754487 -1.8344797915846407 -1.647172098071486 0.4321132241324623
Ni 6.976030944504661 6.468666398479411 1.4239774710840714 3.0040414524228134 0.5936957449653711 -2.0470020366902104
Ni 6.654537662264438 5.427937374329215 3.2924092855471816 0.9584260116674848 -0.906822171448264 1.7600628101256461
Ni 6.05057415226779 3.9626693805112567 7.471180987337939 0.9045698850789776 -0.08246196325065798 -1.4562718021110663
Ni 1.6125608047368554 2.749416403639681 3.0864707424981743 0.14904736448037556 -0.9830139854194943 1.1697948598949015
Ni 3.4634280765420917 4.330206717780899 3.931388877948421 0.7166340710635206 -0.08005489647106212 -0.928022459674963
Ni 5.837304313794163 1.8970317397727743 8.872870949829817 -0.7027519137647897 -3.043182384288333 -1.7604986121114843
Ni 8.130707658248888 8.289624948962981 9.238439998687923 -0.6800626996973901 0.9490677103810364 -0.6393590513304409
Ni 2.705808394973716 7.123221867552844 3.198882704004521 -0.5825315008184354 -1.0062462164745574 -1.01390141902697
Ni 8.602383661922829 4.122716700336916 2.3048888862444015 0.2994183328681811 0.4115829653895944 -0.15664111766723346
Ni 3.8812239216752698 9.384891771546737 10.04424708558421 0.1305179382176204 -1.0027911680464214 -0.5498111277672789
Ni 6.126962267702838 3.1037453678511957 3.262002239912383 0.2475383561694382 0.08629213563002558 1.1039481366034214
Ni 7.8300087641682 0.1207436105707127 1.879142082181983 -1.4809608202173141 -0.5632723954785074 -0.7392896036795075
Ni 4.772566802290062 4.740110884200525 1.7095349013231589 0.36633823461918197 -0.09194290615789973 -0.1724544305504062
Ni 0.6666958719957952 4.33384689352553 5.967843053754054 -1.913687766674375 -3.0850078049645515 0.7378474719163421
Ni 5.938840208228381 3.8691548402624085 9.578481504665103 -0.5919792764948966 2.3057254629421906 1.7578742871147595
Ni 0.800903501554793 0.22005927567671796 2.1888571265675667 1.6258838781166707 -0.2123929186165568 1.4332324037930995
Ni 1.276516082051809 2.723259008467063 0.798738847428787 0.41153514287079446 1.0989378278730235 0.4518837218911702
Ni 1.4563389113298546 3.053607272925778 9.808862947898607 1.8035175388751712 -1.0077562253611805 0.6634826838515219
P 6.949790186528731 2.9714393364610854 1.4283558707647006 0.35019607764168076 -0.8060313279814313 -2.3325623806293763
Ni 4.951509690866479 7.1249724864224 1.415342010914301 -2.6140061312970078 0.777330360502313 0.43052865325416173
P 3.9232665621457063 5.522637518891837 5.879345101757858 0.8149170605068352 -1.2983127369633576 0.48323446828830974
Ni 8.552088103924488 8.693221329931987 11.817579540282171 0.43146196370170853 0.21926496314604174 -1.7443878225925509
P 2.5613221317663286 0.9203123810191408 4.214059176432798 -1.4794384700355168 -0.12876238897909437 -0.5420065441211955
P 6.8374819653998395 7.620805177989467 3.1777743159525103 0.6286473213398915 1.1388884001240323 0.41276078774777947
P 5.176172445792769 6.262537973489526 12.288402464602218 0.4362161905572423 0.5811726727976959 0.27887933237456486
Ni 3.169574194866704 9.217314011821879 7.708259242437521 0.23334046740250136 -1.6874510001961909 -0.05881629880725999
