# total energy = -340864.7394637953 ev
CRYSTAL
PRIMVEC
9.34080144185916 0.00000000000000 0.00000000000000
0.00000000000000 9.34080144185916 0.00000000000000
0.00000000000000 0.00000000000000 13.67120709283986
PRIMCOORD
 96 1
Ni 7.027542785355833 2.76536301196674 12.161592051268787 0.32257908725536055 0.5424382323419755 -0.2921685932843033
Ni 5.6491020033244475 1.3493815480784703 13.56999905909392 0.2773706090395224 -0.33085598255217213 0.5951036810564913
Ni 2.402837158882008 1.3808507088587247 9.704780004095706 -0.8389764154488841 0.31690132014429295 -1.5247963293450257
Ni 1.7253301331433823 3.0576086733890695 7.34217648018811 0.5219923057827979 -0.810047905339992 1.522695738062255
Ni 0.14436489183943887 1.9855928896943575 6.10587561104162 -0.7837959136219985 -1.149227320156195 -1.6614946853417452
Ni 7.400268793849302 0.9326977269902008 4.301590483737579 2.5201698647711375 0.7355324506299203 0.7895718968738273
Ni 3.805349186781816 3.809907497990117 7.065826995024563 2.906619011207581 1.7410528446820468 0.9421519570978096
Ni 2.1790689144024054 8.799931877243925 1.1401307775331724 -1.1974103076193248 -0.11250067570459334 -0.41935026803983905
Ni 6.810266398027395 7.302704120548692 11.84137068888568 0.803943335104151 -0.8480868623905845 -0.306442072484182
Ni 1.2280725569674085 0.762658707718109 11.61762766457055 -0.1885510790019527 -3.021482787827712 -0.03419232961099272
Ni 5.904189955757803 3.945423848420492 8.904180828209821 -0.5301442454659708 -2.3008251974270952 0.8217130003827462
Ni 0.16446536292374578 6.8549808155563605 4.64952320239459 1.1755137646565494 -1.085528753555969 -0.48128788608490014
Ni 4.93576366243205 0.9154303210482659 9.477250218789091 -0.03151555410977798 -0.7296618507817564 0.6792546019737978
Ni 5.557636873505435 1.712262351626144 5.62622170966721 0.15294747086573016 2.4981347393479685 0.9182401834772186
Ni 7.625671678618767 2.9746997178872765 0.8241137099755893 -1.2584092159002007 -0.849545192103666 1.7234166196575222
Ni 7.765989201100508 5.554218140099209 5.486105014421081 -0.6094789759415569 -1.5328207423113989 -1.2421413319781125
Ni 3.2186627755479154 9.365181148676493 3.4242818424092225 -2.849756236582266 0.1372143764011895 1.4770625136041724
Ni 7.739461324396465 8.390291020604545 9.065118170347963 -0.79680338162526 -0.6283912394650274 1.2859423883234629
Ni 6.329420610361636 5.218388298148335 12.909721142010438 -0.37649126389278387 -0.689925965644715 -0.6102186823210588
Ni 2.2449776108896353 6.573075421567614 8.137130075552895 0.9788351714514563 -0.1604581774204785 -0.3045284004012368
Ni -0.13862403514144409 7.243212554799376 11.760095439593583 1.5840998522013492 0.769128798528127 0.008210303724934247
Ni 2.059955011680587 6.116702534241499 0.5903844346096517 -1.1733702359509857 0.6543426692234666 0.8818176789841266
Ni 4.372933658628475 8.558079840757621 14.185655032584835 0.22877547373963825 0.069381475917616 -1.7628604274754414
Ni 1.5348525057670235 4.314871235532582 9.632855831341786 -2.0785325031983235 1.3543072500511062 0.7708984888340402
P 8.17488279360738 5.399506442265028 3.1760266863874898 0.7275376053499018 0.433400318375002 0.5848660624888832
P 0.02871082205113348 4.091317829491076 6.824434525979753 -0.510665567916069 1.1467186948017283 -0.8825481293922478
P 2.707963785788449 0.3423936232747937 5.748933689187055 0.4870330160987934 0.5966306592239788 -0.2660392431871031
P 6.125828497459756 5.247662370539346 10.537315380844666 2.2964990592479158 1.436462480694623 1.1005167423243691
P 0.7226100206164937 6.406855856092805 9.45992863619755 -2.879095608976332 -0.197597248364621 1.6171673241792797
P 5.921320985995555 1.7543613446913289 7.753830279584433 0.8981292716599564 -0.11868083637337624 0.2703196157300119
P 4.000805461441011 2.1138794596427153 3.39449215776678 -0.5985790411996014 -0.30378483736699297 -0.9328970141584448
P 8.497280562776417 -0.1337565433983183 11.03684744222396 1.0408272968835366 0.38924830644813607 0.5288790056003021
Ni 0.9804105418508541 4.722204914162842 12.20562645843717 3.585974657535618 0.3112772890892962 1.3789430463219157
Ni 4.500295489212854 3.0306044158005516 1.3709214366980211 -0.18871254428048143 -0.19723343726729903 -0.3663654883126916
Ni 7.625344750560794 5.8545716173592535 8.822836456985467 0.5246035181533998 0.21249499141205985 0.23201660638475527
Ni 7.171166951623923 7.379037151684412 6.827660838871857 1.3001361633253414 -0.04354394602922178 0.20493749077977608
Ni 0.3391803875050082 1.4637036195505797 -0.1397580084625254 -0.1640168413060143 0.9990460991816924 1.7044110250892968
Ni 8.675764600826017 5.460884849948926 0.3195889901109726 0.47195606716101307 -1.4061257773842946 -0.930507687990662
Ni 3.9637598420719136 5.4396718893873475 4.755433881975153 0.5548875138489219 -0.2602450051028292 -0.7389363341051467
Ni 7.406966148636909 3.3325364885405193 6.910945294600236 -1.2182339292328954 -1.1840966212295545 -1.001092697298076
Ni 2.763373421213937 2.5142822634439606 11.700557169835987 -0.1145848119271317 1.934993984351319 1.067585538813987
Ni 2.79300244406789 7.3785234075933115 5.326343679211474 -0.32662291830743106 1.10217433253245 -0.8272642692182786
Ni 8.600020040194648 5.195848943751554 11.024447528025151 -2.366026573825093 -0.9366886199903933 -1.712255203724064
Ni 3.0667813406156084 4.393688919908892 2.661332635759601 -0.4208145112901914 0.5197950410211629 0.3686213742264039
Ni 6.476519554845889 0.2379896150014004 11.512496007848126 -0.2855004372355083 0.12284088128833683 0.452767152937388
Ni 8.008868725769009 0.7408927716984742 1.976610774821608 0.9722852861480804 0.8056407774112319 -0.14257126983772864
Ni 5.404849380812462 0.3990082221139518 3.724186961189762 0.6789249865485211 0.7911778079083664 -0.5290253013701792
Ni 2.148898125052384 1.8773329984972214 2.2489138247076226 0.08882338669231153 -0.05159946934384661 0.5632284296144494
Ni 4.841430906504537 9.02289681278108 5.946401038442863 -1.2543656419584461 -1.0448328184985036 -0.41607571105362534
Ni 0.9418236902084581 8.548832447117832 6.37865690997244 -1.1433058124654374 0.9467447186748148 0.300701827566295
Ni 5.803458750695688 5.672743572316677 3.1223535059899175 1.0908856469925083 -0.6285611893839884 0.33441413221707567
Ni 8.919774362494937 2.956260975417635 8.669404448978206 0.74158199925811 -0.43276242768068696 0.3450356164866638
Ni 6.032822135367446 5.186984522979675 7.105035944057272 -1.28336511451459 1.949396018709262 -1.7054152979840953
Ni 0.835019095909382 4.5438609881380865 3.8663950619267484 0.41400854411195154 -0.3300471134976316 -0.23981553360388377
Ni 8.175461923310072 8.858788268480607 13.414872629666196 -0.2679539437113127 -0.3065965957841752 0.25568798185976604
Ni 4.422421225803835 4.215382357090762 11.27862288413668 -0.1794717424085038 -0.28131828083336063 -0.7665960048039442
P 6.1931943590053775 4.503798289833986 1.3335862524775766 -0.5282154038743742 -0.02431955058197102 -0.16149098956036706
P 0.4805104528862978 2.026206695296182 3.5626891709522392 -1.589481685338553 0.367588047865883 0.45099643419021035
P 5.127651750858518 1.9383377741148655 11.362085749176696 0.33938124641436385 2.4281428835398633 0.42484934348119735
P 5.794902576378467 4.3829376572024294 5.109627739982419 0.987860257768202 -0.9053147336648022 -0.04849074851153584
P 8.475441768503861 8.621849493665547 4.994201585754528 -0.39029834497920524 0.16881683379781895 1.7933043457875952
P 9.434770121016326 7.072808310182521 1.3238783573161284 0.004626700138733968 2.6730147486207323 0.6953106269953961
P 6.263082236998213 9.092383036302692 1.4038001244482194 0.30831846357128834 -0.6407944982253868 -0.2763532235186015
P 0.5835124068310725 0.9057579209331119 8.054104360030397 -0.2572123889240925 0.36336989601947745 -0.017326921314221772
Ni 8.100969030100654 3.3238682246034235 4.18710775047698 0.4751005263272656 -0.01339364769808661 0.2788626202040165
Ni 7.046280433478477 6.794200219178468 0.9631393995882566 -1.5513967055413733 1.7976613372047106 0.7414786409110261
Ni 7.248237906090495 1.9713761895733874 9.931926816534412 -0.25550491931468255 -0.6425621316487709 -0.744323309448673
Ni 2.4274968752547808 6.186581071432679 11.123892504699187 0.191806866935089 1.0076214995555293 -0.33400069882874095
Ni 3.7385344325339203 0.44482765647886213 11.935647400003255 -0.03580749661691253 -0.989685741012715 0.9077038027222689
Ni 5.991423702426487 7.2632765967572235 4.843380331810217 -1.2092044720407757 0.06041243964978628 0.6784112801368962
Ni 3.580852359773018 1.5531978402201017 7.610733868609926 1.1077361428909438 0.5547404467480962 -1.432491668972333
Ni 2.9975846819453422 8.726671969853143 7.768075936190538 -0.452423139334408 -0.37983318378182324 -1.0390676338799525
Ni 0.9650542639278091 3.691877128260435 1.2482346773426471 -0.12338312694505203 0.11169772018732377 -0.16555333255519875
Ni 4.737888120143859 7.998322960698986 2.6634249753306243 0.8786109991213706 -3.650159933964275 -0.22973038145373983
Ni 4.492897574301022 7.1347098027591755 12.123735650315918 -0.5197387338619307 -0.7346757590565799 0.20844164727829267
Ni 4.846661755432095 6.229361943018778 8.900448243867942 -0.7256992665895825 -0.22519546969786375 1.2945339866472159
Ni 0.6010282780970664 8.753825680268163 3.251792730862669 0.34309083405546714 0.6465226589584157 -0.9284081251491559
Ni 0.3433734733685452 2.7367427956916734 10.975641839370706 -1.5373574538394879 0.053674863815636596 0.19816829037674258
Ni 0.12045711000000232 6.164471393912089 6.9456155481081225 -0.21617758246996965 0.983537462023132 1.3453634105942571
Ni 5.932819512834526 2.825872725096598 3.527964740794745 0.7075943294587556 1.3053848133187906 -1.2765272656571498
Ni 2.148020089696687 5.156449442365056 6.15071706347311 -1.938148213709585 -0.6592655604463807 -0.5271725644321567
Ni 7.739881660471 0.2739479650576985 7.183877914517889 0.09914328056108086 1.857124011346718 -1.1099969139006625
Ni 7.463580747476066 7.868924835353522 3.211694537512275 0.24840944592048184 -0.07078915489842003 -0.9982907090729065
Ni 3.125927296703638 8.471331815775066 9.984424924083614 1.1046261365070524 -1.4135855760964493 1.0567869055365866
Ni 0.7780906461345705 8.656793432661964 9.569640087972083 0.0776048922686728 -0.28628590925128117 -0.2612585339690081
Ni 3.066902771037141 2.750613886151358 5.1644759932283595 -1.2100043422342517 -0.5154920427704348 -0.3092815988155061
Ni 5.385177652524181 8.248441606651163 7.980717417737091 0.4990480382817986 0.7706958859049308 1.304789602936953
Ni 4.445427620283434 5.922283088566159 1.1735474954587766 -0.3066472465164526 -0.314258226094491 -0.9551128881338518
P 3.384966408237631 5.076062503310479 12.964898191474683 0.13474020382908405 -0.24653459749527218 -0.299744091638716
P 8.942836801784475 3.5391830435840257 13.062018242616452 0.3428455508138805 -1.7257686648294666 -1.1161387651323422
P 3.9885876928745017 6.302556464797962 6.801575716166324 0.9736952791217295 0.2059186237461228 0.6042398390298046
P 2.7564051831782974 6.851085701265661 3.0007203890613803 0.40883908409587005 -0.619902485267726 -0.13091054567034874
P 2.6107073589424967 1.6432151457823794 13.894594718892698 0.30754841817448325 -0.32111227290184696 -1.4719781571027293
P 5.368924657642126 8.07854176532375 10.329855241976889 -0.4220764087217505 -0.14391878500455857 -1.3192302038423152
P 3.2128154337110377 3.4018265552273492 9.187639597514018 2.8077940332178675 -1.1712624455793634 -0.6103382386180586
P 2.4850081910529487 8.024897541411312 12.572343529225106 -0.512033394797873 -0.20521799813467234 0.15068515719411468
