# total energy = -340859.63899139187 ev
CRYSTAL
PRIMVEC
9.39156739540886 0.00000000000000 0.00000000000000

0.00000000000000 9.39156739540886 0.00000000000000

0.00000000000000 0.00000000000000 13.74550819736371

PRIMCOORD
 96 1
Ni 1.9625839753030556 4.842470495048578 11.950096842943857 2.1538339441448002 -0.5461889576336594 1.8772436649147282
Ni 4.821696348372353 8.881511198118163 4.518354362317201 -0.2944296214043381 0.43315066425804116 2.2827140896486817
Ni 6.571993338381853 2.535967328387796 13.207013484333388 -1.105835326323805 0.02583161635112325 -0.9966536876901158
Ni 4.995938094884092 3.854872070013196 2.522466011361694 -0.4367697490678671 -0.8378677557657376 0.06409657336959283
Ni 8.201063978799723 7.609263762409344 3.2444342884876605 -1.3736491449128276 -0.8438095751714694 -1.704237218515594
Ni 1.0594720889201619 7.379865341652822 3.388432371101822 0.8684633691644076 -0.5196657145321502 -0.13756353221049214
Ni 8.2656216118252 5.494930844070839 5.8506242432441065 1.890463763149428 -0.3588627521777432 0.41838610435435686
Ni -0.09371281428301269 0.9773428336382586 5.3869193687053 -0.5422711106364919 0.19552236811346327 -0.2961028953417029
Ni 6.228947562774982 3.991951385061185 6.281367534333756 -0.9826920833037012 1.4429285480349408 2.619905784610894
Ni 8.807111202652955 2.0945730609213373 13.30354846456405 1.78491149373821 1.2240441081567692 0.9627084410929226
Ni 8.212540473934599 2.5337603100926276 3.0530698366323006 0.0016167096678165705 -1.1472843374972113 -0.004477061934747128
Ni 6.305319787355021 7.70003325952765 11.41444880692289 0.13398018573460796 0.3476414295406271 -2.304864914714108
Ni 0.7089553215949654 4.57025591936579 7.686762975054999 -0.09744763802621281 0.10874197999310951 -0.30181922900018987
Ni 6.583836104638055 0.4400709956460792 3.311458147063399 1.7370318964481115 2.030228416776297 -0.038871480254216925
Ni 3.8609484140003185 2.751325356160161 12.109215348771727 -0.6092696881442281 0.2607702814786799 0.2655579326753104
Ni 7.234155176335643 8.317115574856725 5.1363392072554905 -0.215720440327893 -0.07606840101948835 0.7927155847091315
Ni 5.03794657503 0.24673431467588805 11.83067649172738 -0.6148626088509733 -1.2031317834841344 0.8808763981167798
Ni 4.740111803988832 2.9435519538857187 8.263469064619871 0.2840336228819947 1.6072282106886966 -1.1520187668584032
Ni 7.939715446382935 7.019576648641998 7.684109857317191 -0.8942183666413245 -0.1799096012768708 0.2410553195482558
Ni 5.973318494791205 8.707382150412986 8.687875865310582 0.11827974428021563 -0.41119755702571764 1.1465266333955804
Ni 4.625525292417134 5.739327597667291 11.894963647617109 -0.13401078186222726 0.3118956393995854 1.123209813046511
Ni 0.19465525700696415 3.6475156575067182 4.954046070171633 -1.0083743185611538 0.11864278404658922 0.8359103749290506
Ni 8.621214521229284 0.2410740171163222 12.137819245033828 -1.4130155625255925 -0.14248925164688364 -1.2357261724803879
Ni 4.97726765926369 1.9886361827532557 10.331165338489663 2.6210003032266536 0.812571443092794 -1.5552014239994443
P -0.32748488789085234 8.990049540404378 7.718377807765746 0.7197561616322701 0.44139439232407207 -1.8017087678012067
P 3.1517911737102637 8.057335434164587 2.5414341596627645 0.664380770185759 1.5608753344557698 1.1905770867475753
P 7.047619868341456 2.51960721830191 5.248186198671016 4.006279576179242 -3.1729104796148064 -1.282633635665204
P 4.0551002830046405 3.8421464964389274 6.056655505616763 -0.8833608551015303 -0.15540724526013236 1.0992795274831584
P 4.217076642735571 8.396352227436875 10.129820468156536 -0.7566651188434775 -0.6733300089592469 -0.07008235863938253
P 1.1278520898015274 6.03708723617075 5.290274507138237 -0.9269544234217648 -0.9399762896027296 -0.5715068675731577
P 5.9830763331260135 4.0424874082369335 11.589745226432703 -0.38175225518140704 -1.2256204515049536 -0.9051036460952605
P 4.074352995792279 1.0364063998438493 13.483436421284535 -1.7278517726107403 0.6766842701434604 2.076860257702223
Ni 3.949360627748042 4.317444321546057 10.20224541703675 1.4035587879880667 -1.1632526879010094 0.7555693146761374
Ni 7.923890655628218 3.3958028730509633 9.720163123774599 -0.38714668672410096 0.3467672544657899 -1.3752080047595154
Ni 4.351122481573605 7.796381347570766 13.840077429589645 0.30036912681722466 0.18157824722854532 0.15040902071459258
Ni 2.7388345717662297 7.128246472869202 12.074232700058225 -0.9086566535538415 0.8495670464805368 0.7074346639524397
Ni 6.791164342442892 4.193034230669056 4.009674211549747 -0.6403916063600132 0.5668153756347593 -0.6770149140100018
Ni 1.34854452775115 2.210605873843912 2.836288986427093 -0.7995601184347907 2.0359776605552486 2.1545841920472637
Ni 3.1314302559914338 7.1539981501685705 4.6927304082400925 0.3078014147255538 -0.337889749470502 -0.67707147827955
Ni 7.102983157064934 0.7192785322760252 6.537515016827717 -0.5324014169312637 0.5205347474006647 0.12906629337275835
Ni 1.857980699679289 7.369628533390127 1.0434078132015003 -0.0987910394279847 -0.7164906035071209 -1.7827016305710848
Ni 2.9308357718786633 1.0033199085507507 10.32359103953199 -0.29271366715449587 -0.21452590579915956 0.8363464340252048
Ni 0.5655921089244355 1.532994907823944 9.442380287890938 -0.3874729597152682 0.34377500460668536 -0.13049351273758816
Ni 3.7475546314647326 3.3320904810746983 0.6257178613818711 1.5530152149814027 1.437912068656956 0.7368156882177181
Ni 8.048591885088836 5.8060546827190835 10.207675621199582 -0.39827544964741085 0.7317498436590365 -1.3546718324793767
Ni 5.475631173447133 8.054762144748093 2.5540667567216193 -1.2478725780349347 -1.0006730932621541 -1.526697145912164
Ni 5.76019566001565 6.019543788615965 9.82966034507331 -0.393284938411355 -0.265721197726052 -1.710445661319151
Ni 1.9564888481815057 2.2516939804028975 13.814784999927017 -1.7625336402636422 -0.5077733339699384 0.1596588214476347
Ni 2.7724000329872154 6.351413599238793 9.917672478057739 -0.11557108709980096 0.44847443909930507 -1.4012633070856706
Ni 8.299290380285536 4.006771278124059 11.85738329141236 0.4452338206748203 -1.341436050515393 0.9295381249885412
Ni 4.340960805848617 5.086435236553209 4.276529958980522 -0.16100813638667752 0.05629430371635467 1.5035027100735718
Ni 0.615974110397883 4.598486970409518 10.324663556507769 0.4384311959306901 -0.5104873904669918 -2.0369613646247564
Ni 5.917898856664446 0.4136553345447173 0.9017904928759568 -0.7172768468538421 0.4048729003592704 -0.41907361733968473
Ni 5.568701604532744 5.431124536422439 0.7151443643886505 -0.4997489210035651 0.7489739208468068 -0.12315969808033628
Ni 5.099977876475051 1.9823250495857958 5.033275209498013 -1.8608053168530467 -0.17545053706425265 -0.27592384929066677
Ni 4.8934667050177865 6.01205870954682 6.886595813525973 1.8086427759168786 -0.20490560910057615 0.9314600246016024
P 6.829115665552575 0.7298985164810312 10.797976004305971 1.6128113612034287 0.06519571997104255 -0.5115567122717706
P 5.575322659418248 8.131434899478965 6.657237776508469 0.4203193168213277 -0.0893851727330525 -1.10526916940769
P 2.5349248644271 4.231408174303345 8.806622841157854 -1.2976491352374295 -0.16184760156883737 -1.4295991779158863
P 1.4237803726983573 1.936775948600406 11.769563685555806 -0.774507289231221 -0.45883084263296464 -0.7021168512839521
P 9.106608281090908 7.277685090370134 1.0901674872007079 0.7578979628093141 -1.6218840129286585 0.5467833966845487
P 0.6256821734264598 6.881126164780841 10.43527367852128 1.2342501021554937 0.21936626461059638 -1.2568657826724807
P 8.964955272809952 0.24870654379071933 3.14111014431837 0.17457019134182838 0.6475631844077879 0.25614512400184275
P 7.082471974270689 4.847861254629116 8.200116369667882 0.03611654321689909 0.7172513929325454 0.2186890360379137
Ni 8.239785410420911 8.64145334857434 9.5668326408204 0.43624138736822293 -1.1994867305323793 2.533994172248739
Ni 6.288508882042888 6.154772964922898 5.134400787782628 -0.28461494930676146 1.8802109750731684 -1.6570495050861977
Ni 7.006484803946403 5.679700537428892 12.455367854812817 -0.4430224148457983 1.215199770392262 1.6209324476486666
Ni 0.24273820282655126 5.033325923960966 13.569304459474129 -0.25091755705431623 0.5325086319330893 1.0781849115963882
Ni 3.7118291097846456 7.827007248253933 7.980188405289438 1.374289606710304 -0.46298625956223494 -0.33158900406345476
Ni 1.9197114709735086 8.722643447134894 8.871913955582706 -1.1374794355916475 1.6548926066441951 -0.30719874814454834
Ni 1.3995970871236403 0.46206228943316957 1.7787647085470075 -1.910413723908794 -4.498203087601117 -1.8444235330609136
Ni 8.7649994152677 4.93546579359648 3.2187718310768196 1.2837068141247248 1.725905704627963 -0.6824322283708312
Ni 2.5975572261738136 0.4234554349319862 4.220159894251757 -0.29723649472551394 -0.44315508376892065 0.44922828654619407
Ni 3.4001229939691644 5.856769145671889 2.282318002772621 0.9357501673365238 0.7339370811183424 -1.37983599044983
Ni 7.628666740272398 4.264945460822691 1.2710481325756573 -0.3326459845730594 -0.6386306578048486 -0.4980309098711939
Ni 1.1227055109685389 9.084575664408078 10.99442692896415 -0.8007381979032919 -1.3906148262328888 -0.15051109351009562
Ni 1.2400531433010014 8.268410907287604 5.665980396886716 -1.9012945352163446 -0.27086211849704317 0.5123964345642466
Ni 1.0408861774046805 6.861216042288257 7.917316558578779 -1.2832298744883062 0.7164031859996371 0.4437672634316228
Ni 8.745671569942353 7.206412486787016 12.004955804507972 0.35333256638813343 0.7161584169786828 1.5950861760095238
Ni 1.8549941813054014 4.612076568167427 3.433531616017686 -0.12704797739114893 -0.19136386586039947 0.5722560870343564
Ni 3.5439172795747935 1.1019595389939563 2.0542935682994323 1.961792592601402 0.239304141185104 -0.4813462501266613
Ni 8.329193130293262 9.172809438378746 0.6503575771231634 -0.037179694374090806 0.5175486681891474 0.8227010753276283
Ni 2.646759646805248 1.8737397494635122 8.176474038364661 -0.7409348525924143 0.4672064682911696 -0.759991355003233
Ni 2.032184879922174 9.214010243744292 13.060940804521769 0.8292072518772623 0.9116435040963073 1.1018606579467733
Ni 7.490253822680095 1.3139366025694674 8.777702449080657 -0.24174437519548045 0.5361863378949927 -0.01557034363443125
Ni 1.8942039744216905 2.451884627125488 5.774955447048359 1.9402747731342844 -0.7481956479198857 0.6029193204461681
Ni 4.614865863629831 0.8210417979744351 7.278439233217377 0.2539193199951175 -0.7385897493990055 -0.7888129072206157
Ni 2.753898645576655 5.964499813177745 6.760893443000396 -1.469691675061398 -1.7454237200562328 0.07586605520069516
P 6.205759783324894 6.130674203453102 2.7686753374303485 0.5116058203421512 -1.9140058121354264 0.27253462110345966
P 3.4279220329210727 5.499513928871019 -0.0010537338413527243 -0.8804606507355998 0.47381368919504213 0.2881473879400522
P 3.172612278222554 2.595030894593387 3.775176169796305 1.2375537126074299 0.9169759720528143 0.18464145953490138
P 2.7323074325528593 9.308733590659475 6.588317760512329 0.7169994248227394 1.6696671938502083 0.4231881537286905
P 6.578013332965695 8.158858275742332 13.365581644322546 0.3314049130771066 -0.5452831579899383 1.2003819886531393
P 0.4046732396617428 3.48592435203154 1.4943570611509562 -1.010468482086021 1.3020809457565383 -0.9645020426582356
P 6.23697735274251 2.465840496004723 1.5550021672752976 1.093250547680259 -0.3739962653850721 1.1519763436562418
P 0.1698380406453369 2.6084420525742398 7.300679403535624 0.08756071792980404 -1.7653929640893082 -0.1077302508991435
