# total energy = -381178.45716880413 ev
CRYSTAL
PRIMVEC
9.09746494921479 0.00000000000000 0.00000000000000

0.00000000000000 9.09746494921479 0.00000000000000

0.00000000000000 0.00000000000000 13.31505953902792

PRIMCOORD
 96 1
Ni 0.9810524100582889 2.909660364748629 2.3195896997808934 0.7801410904782305 0.16306604735697078 1.0392748647947523
Ni 6.570216377356094 3.307328746473697 4.908397036664579 -1.4181269156102287 -0.7671827305453497 0.7356985438941394
Ni 8.478546082987476 5.54699721790872 7.131279775780765 -0.10688795750350624 0.8240712162022775 1.7318994603175526
Ni 0.5310454035413443 7.459529952281797 6.092239215284296 -1.2414041967017717 0.5424855406401431 -1.4711070673516857
Ni 2.218444086035942 3.065518131854089 4.853499295021969 -1.2285751632579036 0.3388960792478293 0.7278512799355787
Ni 8.615180906951807 3.512349213406259 6.091373136634492 0.14470502835127982 -0.4275723988393152 0.9951123113449251
Ni 3.378034242968189 0.7922490838940083 6.429589585833633 2.2223340458987275 0.6425058244895386 1.560086005785255
Ni 0.06271337365990481 4.5922546760776655 1.1587186198035582 0.11805117320917734 0.8649877519109812 -0.008786230833062288
Ni 0.07741942552343366 5.329203910384512 9.771375890017385 -1.8221852904880036 1.2886950113679354 -0.8848297263375728
Ni 2.0762598085382047 0.9775134962476407 3.1732312054445595 0.19008654180987264 0.8196784864512205 -1.4626563654811713
Ni 8.637897276579539 7.291308730501091 11.168591827757163 0.6812724037347752 -0.4360567821612426 -1.742255606740896
Ni 5.089886001122533 0.5151202913934277 2.4095326953602094 -0.867258807333345 0.17789899860474523 -0.0860566225804518
Ni 8.80152427863177 8.685795428798208 3.8184798139710177 1.2448710722044496 -0.270875745343798 0.5647294396400081
Ni 9.268497147270764 2.005572506973331 4.473433597955572 -0.3985790969307587 -0.5651886386646138 -1.34835180379862
Ni 5.292077156499539 6.64840908738828 5.71692694358053 -0.23526648078062062 1.1624885560414753 -1.1837176406235808
Ni 1.1733637186528676 4.232031459505881 7.900703320469335 -0.5421950059829179 -0.2911324387103051 1.1011831722637746
Ni 7.658518800046081 2.6422767765513036 0.8305093818941672 1.1448551592304284 -3.034472258108845 1.4014965061423994
Ni 7.8532318393502 5.53521600098124 4.921246295960619 -0.3701064434123626 0.08455278434141568 -1.4089874152028055
Ni 8.281449507903433 8.57589805390713 8.381537086491115 -0.4621923029060298 -2.293499867410276 -2.2551935156309098
Ni 4.175818224451911 7.437832498712655 11.512173961700572 -0.4793382185576971 1.37022212150915 0.8677948823424733
Ni 1.1154401602148296 1.6256168892311205 11.254541036285387 -0.11420068911483558 -0.2614166568134272 0.0017182682426873633
Ni 1.5409831741142577 0.198339288776932 7.996904462090668 1.453342030058781 -0.5971384520983329 -0.7202482707773402
Ni 5.31616724331341 2.5162586940189176 6.664772697339984 0.48808382596081107 0.5782359587668752 2.299302847245298
Ni 3.8095088039229967 8.775805745617111 4.239021951465013 1.4651624197324769 0.25705452318998956 0.050719123621422335
P 3.1530448407801703 5.985667873527339 4.222498226132673 0.81197134761495 -0.2301512710412423 0.09169016671714532
Ni 0.518874815120046 8.340792270851654 1.3891464864543155 1.7963073942799772 1.7013578400852698 0.355743232712155
P 7.359330474876967 7.298168218966974 6.14773557011133 0.030522851179205498 0.8593994591899263 0.7124881672159472
Ni 7.861692481622444 3.5833458287746347 3.222696850849796 -0.34341942103947953 -0.22333784766383472 -1.867831370461893
P 2.9808571243427995 4.402099466642787 9.30972958702398 -0.8083545767979692 -0.18038756935455383 0.3460622579789653
P 6.638711189902032 6.691776702132136 10.345880792697155 0.4324071012237972 -0.24994079496334373 0.2557363185991983
P 5.254149825711384 0.9992655346056348 11.201692953464214 -0.9763810534840087 1.420398999473857 0.6688827718211706
Ni 5.166704993968581 3.856215188251705 12.44316302291568 0.8590554455869464 -1.468525936888071 0.0337182181880516
Ni 3.7747928782123714 7.95839853254067 8.155980002499023 -0.45355493894600596 0.07472654227961323 0.35156236186158807
Ni 5.9080846936373455 6.675128341531915 8.16796318314526 1.59093564417626 1.252347840197469 -0.10699208718153834
Ni 3.8906308976236383 5.499108163154858 7.560024187546433 -1.4592481111305708 0.9621471692728139 -1.1731298378054054
Ni 1.281987448470705 4.050473354315381 11.108674105033021 2.165503667173245 0.335194462026526 1.1885299744105595
Ni 1.7253251035362716 0.22547065807640745 5.196574700175525 -2.1781779202068035 -1.3157674421046952 0.06381683734564493
Ni 5.5927847582917325 2.920531835195222 2.4474545676694786 -1.0206819322839131 -1.0025718529467635 -0.40117025469670264
Ni 5.4401474937286105 8.417192780316496 9.877683405294885 0.4684118014531804 0.8539690322029745 -0.8988975172845487
Ni 5.6841414999023465 5.018270758147154 3.463593170256114 -0.13480679540096138 1.2054164657532531 -0.1894198547601512
Ni 8.635268109249777 6.602057504187118 2.3988140623224057 -0.5937240271001452 -1.0212524600754025 1.239019498519679
Ni 6.743140988442982 7.807871879813203 3.9179560429235423 -1.462751753408455 -1.0292246796476017 -0.3210371966895374
Ni 8.04698054738458 0.37287597062795186 10.3407143424322 0.6236925484377774 0.8352172055167679 1.4657753707261272
Ni 8.164292356094883 7.316990873656514 -0.00836966762415499 -1.190408679490511 -1.1190641663092533 2.264881432342635
Ni 3.0273087796568596 8.82658779418019 1.3753792929590616 -0.5265691265202028 0.4591648289336157 0.455580454016467
Ni 8.022790388457809 0.9800516889293138 6.130120149001925 -1.3530381535306955 -1.3162580085878688 -0.2953081673545495
Ni 4.223452550191123 2.1066271460701933 4.480969937803235 1.0041345694481931 -0.3320687719133507 -1.0647843219197664
Ni 1.2495094991030602 6.675419460405798 8.012044463025578 1.5345513518492604 0.3618141214965833 1.4140545453130677
Ni 5.891618282333302 -0.07854387217380926 7.571701693375092 0.2551488215268444 0.5619349076140063 -1.2596371747700308
Ni 3.4100937089546264 5.353175730155869 12.039303816388182 0.21310382864065233 -1.057495758678153 1.27391193952149
Ni 3.0898447527529918 7.471029147800201 5.941778974049935 -1.20066018201519 -1.0293876875880272 0.754142866642256
Ni 5.982092569857455 6.098940407862505 12.441471804207714 -1.6022911783983953 0.043625449999434546 -0.7457415299524383
Ni 5.175484047509135 7.80133080261563 0.4961447992950989 -1.6099828906156983 1.372423500035843 0.5608082502087309
Ni 6.6754012654761805 4.5124608122391185 10.53948212180163 -0.11200393857383291 -0.19144125606555418 -0.5008480676050148
Ni 4.251718373352264 7.116091558282367 2.627047620461265 0.7817115202891439 -0.6609205795513005 0.4666557379940221
Ni 6.41726070152466 8.563507306837458 12.165064440666477 1.709180164343166 0.416746768978721 -1.3636043590823161
P 5.690027559633681 0.8422551187088917 5.555948213534161 0.2711991901214878 -1.3382599667802564 -1.2431972840464527
Ni 6.398920212469991 1.7048558077163272 9.469058036954022 0.4964483958754224 1.1791701304622144 -0.3828480593487471
P 8.659103467049002 1.170916500619283 2.3800268877456205 1.801801327515013 0.6544151743326149 -1.286438868343907
Ni 2.4638845891142873 3.646345772576019 13.573105451782322 0.24686678402371032 -0.009957882543660269 0.19619831113456535
P 0.07710465324104696 3.326033134120722 12.730807574988827 0.7589006930422156 -0.3126713412233454 -0.5539261783769169
P 0.9454904201204389 8.14741655887444 9.69733071419156 0.3163480187439842 -0.24250516462090496 0.8042019880821762
P 1.1584984611551836 1.7749335791390073 6.486151253789785 -0.05551114569342698 1.7352259535876242 0.7853167211418991
Ni 1.1181148148686357 1.5737340474261685 0.37134486730062005 0.22399296474933034 -0.05776600316587471 1.1394586708052055
Ni 3.227571272494386 3.894715659322818 2.932867997476041 1.0544903961929257 0.049020652873076866 -0.4802537883934309
Ni 7.421675401212113 2.2720463486897695 11.925899368813287 -0.9264175770816884 -0.5361056052557284 -1.0148226452896587
Ni 8.619201986397323 3.072568667080959 10.054015016952695 -0.5414529856105706 -0.46139011871970864 -0.3859935469562643
Ni 5.042606476510866 3.8972356570748734 8.819309822333098 1.0286107002126865 -1.7490620881397685 -0.269342082308091
Ni 3.685837867311298 2.6062781083026283 10.88285046532203 0.26394148011780993 0.6909142976999134 -0.06508053454941695
Ni 3.133867384963085 3.215908322609422 7.153315655040797 -0.339809335090718 -0.7801187218807275 0.012546983427075165
Ni 2.177960367636497 5.895357340369745 2.0572561142989687 -0.48285703034423294 -1.0317695575566423 -1.5405188822866052
Ni 1.9899521598965106 2.4138849225247703 9.176352565207704 -0.32843914558056336 -0.6170087086596987 0.11753103903964919
Ni 2.0196462850326435 8.331749390831645 12.320384547601734 -2.003381214676466 -1.449745313846458 -0.7430166748221075
Ni 6.214678355160875 4.956653628996717 6.778417317985834 0.8642894402923761 -2.8252675074122826 0.3876825046229129
Ni 2.890310057100175 0.2223602348582568 10.183170815097657 -0.5011995374071626 -0.7560349414586464 0.2417873126182739
Ni 7.961555352829346 5.311582121049742 12.436491851971343 2.2017729339179244 -3.0496301967962056 -1.0380237659964702
Ni 3.1524717004972125 1.0356371989114737 12.562771941490222 2.1545301988808765 1.9215031489537358 0.4135370037921717
Ni 4.229220342879943 1.4457418150302592 8.725571364435524 -0.37986429413007483 -0.2218625486698889 -0.8548666043165792
Ni 8.935875638929076 0.1346479376500743 12.549336805460491 -1.3862364946595351 0.775614920473103 -0.46615745820136495
Ni 6.742258534356523 4.489180399793235 1.1363534123174466 -0.38357233910928135 3.2535119926179585 0.22752643182388557
Ni 4.305830094035388 4.397641708886444 5.46974609548425 -0.6881878999076857 0.27758195371938 -1.6122030381954688
Ni 4.620902592760778 5.12714921697964 0.9983112105471851 -1.92073978842515 0.8701225020343853 0.645105981116547
Ni 2.197547209369981 6.314477544114115 10.440578123385583 -1.0789706407224773 0.9620291556377111 -1.1018933109569216
Ni 1.130341807571749 5.996603026227594 12.900720925223983 1.0121492122225535 0.24944714315637687 -0.14423425936244835
Ni 7.015701034116552 1.0940338255195725 3.6771133985595976 -1.5449982582141972 1.1559114170445899 1.1407156831407579
Ni 1.8466579916920922 5.225092523111871 5.937704219562044 -0.04644312195388775 0.5199822173313045 -1.116104055239665
Ni 8.81456094570287 1.679146372166477 8.188242341950698 -0.40742214914368546 2.0362571394688804 0.07845335631189715
Ni 7.1463679211662665 -0.03625885574220883 1.3579494601317588 0.40542054533262434 -0.12101616937477223 0.2042767172673256
P 6.585054342459351 6.795797114756688 1.5340145160706677 0.6084281660795392 -1.5484373658027333 1.7668435804929055
Ni 4.495594112483484 5.958948619383705 9.729566670995288 -0.17314477174921147 0.3574949252959391 1.904567806650978
P 0.3583336731309826 4.7848025187572745 3.617861610259465 2.028309088266397 0.6665440963856649 -0.16092971774025833
Ni 1.7463948320336007 7.5870036291836005 3.4717554156826265 0.3335736385936513 0.34778335443513003 0.9638754648178303
P 7.383857240001665 3.6100923753126954 8.289929254851776 0.015766518805637363 0.2223803688465719 -0.32189028871845204
P 3.1642347224950735 7.064645394788241 0.2622225964112567 -0.5822378808374167 -2.4307417546152914 -0.19608312571293973
P 3.328089161167525 1.9675269091426608 1.5691662103456379 0.4328434174302675 0.3994733266102539 -0.16940124554637923
Ni 5.605712255785128 1.3445689088908814 0.11868461614996041 -0.6459685862271585 0.756576158674097 -0.16173550147100532
