# total energy = -381161.1992037051 ev
CRYSTAL
PRIMVEC
9.37336929274830 0.00000000000000 0.00000000000000
0.00000000000000 9.37336929274830 0.00000000000000
0.00000000000000 0.00000000000000 13.71887343463383
PRIMCOORD
 96 1
Ni 7.5268155787868505 9.232300129920434 7.57224173861185 -0.055300572344517664 -0.41890906673736245 -0.6720089761549781
Ni 6.744139239025079 7.7479521082199 3.8139836783329772 0.443969609250416 -0.4597109312450728 0.4333288417071182
Ni 8.466505228337237 2.9923638009806885 5.28032545753432 -0.3367024140306202 -0.08833616264324787 0.34724393699189227
Ni 4.972459953623261 9.319238130534691 10.00617581321032 1.3716102601059281 1.3067737232465173 -0.9013084407188865
Ni 3.664631223304688 8.952120747024397 6.965374188836184 -0.5895022757093137 1.0020069815822292 0.5158121451140149
Ni 4.687509525733946 8.421709896268716 2.4667080604904106 -1.1378517313294016 -1.8240405985291874 -0.8861720992980803
Ni 7.08398949112978 6.112092944532431 13.026907179156938 -1.4453919219737688 -0.3983469263152946 -0.6491636961256884
Ni 5.292016861110186 1.8456070493742864 0.2932542957862609 -1.9639024398555531 1.4665726698164419 -0.4102249086998032
Ni 0.820335725752919 9.229731826721695 7.298372507954467 -0.4803674311531598 -0.8137958024181984 0.48525946913813844
Ni 8.669523034839036 4.858732863439673 1.961373784725924 1.1050503685286646 -0.4827315605099622 -0.4570611523270515
Ni 2.128907764260032 7.923665289838753 5.579383743614959 -1.7410070790457757 -1.8907021044124794 2.260148802753656
Ni 0.8874631102703313 5.752802324419755 4.058098085362339 0.367280029707161 -0.139766710509398 -1.068125213367541
Ni 0.27938639585000297 2.7561642670207265 12.549215906908515 0.3847455334817761 -0.9572736432305965 -0.3635251906504191
Ni 8.86475157142057 0.010968716799870949 2.1047910222890973 -1.6983573626960493 -0.5640630097006027 0.6612368252401386
Ni 5.499655738695849 0.5143889505454435 3.8556754878135324 0.4883388793944106 0.784902773532932 1.7542971112864625
Ni 6.828293348945812 4.390167503579181 6.998656211346269 -0.7471975456726745 -2.0940920481994776 -0.43465347405581267
Ni 6.862806094850038 6.6159959067989345 1.5267597059462825 0.5464226709110203 0.01570866898450843 1.6063236965965562
Ni 5.833000872479656 4.514317780467141 9.231073155874029 1.4693327490600825 0.005259962847358682 0.20593533591667115
Ni 5.257860303240823 2.381482574454292 2.489632509881493 -1.4672812658476924 1.7424564098977924 0.6899053968194248
Ni 3.189588865231316 0.7320788920727405 11.337798841594585 -2.119256206169931 0.36370902452645104 0.3086694191528039
Ni 5.392265046185062 7.50875309607163 7.337882197053028 0.6306633233286557 -0.15759988203607697 -0.0326398975222083
Ni 5.97347955875522 1.8464412792454097 7.074699544778428 0.2854197045962439 -0.028617149516060397 0.7907137237877543
Ni 1.332658785696165 3.6314026289998322 5.078768021975454 -0.19734502314449884 -1.2401250728790318 -1.3328909891588592
Ni 8.720701631427051 7.772463469039985 5.472088659471424 0.9843141922881563 -1.2430134501704204 1.5824504895233844
P 6.544992634060067 3.262663652593984 4.38987505445582 -1.9586216510725878 2.6284073943240025 1.5101963200436634
Ni 1.863322717423984 3.9678690947733473 0.11253854695147034 0.4263680941185689 1.246447158442318 1.4753558153257107
P 1.3564296503385105 3.8277184764246286 2.6668116864648814 -1.137556825796802 -0.7304020713818904 -0.21862398712793313
Ni 3.230503622393713 4.643754637661995 3.2230986606163263 1.1353395064305092 0.5687984675030591 0.6614178309026932
P 5.702926626169786 8.011587494233549 11.698138341736234 0.7516429830385378 -1.7350557465583472 0.2774886226746253
P 0.9797608034723216 4.842479441006776 11.10896771327159 -0.7623431430648612 -0.30895095494896474 0.6401524937660137
P 6.3510388757085625 0.7646494758500363 1.76679857198728 1.7618862364876302 -1.1581418490370055 0.7231906412351158
Ni 9.121947452698693 0.8011409400216117 9.414687150508271 -1.2568387860892871 -0.9843589294831628 0.7760751479389731
Ni 0.8446108776656738 8.125464558326552 3.777807159371174 -1.393223981720962 1.189296934483571 -1.895860508684967
Ni 2.861071016656819 0.0700012595565854 4.150138010907521 0.51233112854395 2.0839395331465074 0.19568511894357268
Ni 8.541895237926505 4.825982310971079 8.400559825693405 0.9732116546170917 -0.7847778179192936 0.6434651030790144
Ni 4.218475497406529 7.403986946975614 4.955943139511953 1.7226352614068074 -0.10517868812188338 -0.22579839338918534
Ni 4.04427142825117 1.689165515115317 5.600003281485712 0.49823119880745803 -1.9526937156239275 0.7797309995240056
Ni 1.9357413689329594 1.3378797524176895 9.221497321757854 1.1114860968516793 -0.511087743055152 -0.2326920351852251
Ni 1.2335447783112432 8.350959704501987 12.394371594784822 0.09194933391580294 -0.3078296968603279 -0.5078062440904029
Ni 7.908133616844918 9.092430712651868 13.115695482878607 -1.0968560056433305 -2.1954590758847545 0.6978179667982821
Ni 0.26121986873512526 5.263334350934486 13.108713260058385 -1.256105250357372 0.7028318750731056 -0.8948948238830589
Ni 2.3031305801540687 2.6834831611702734 6.955880840370186 1.8498066517496978 1.379743944956656 2.0953120366495077
Ni 1.732770429277853 5.2364609010411085 7.857031881885478 0.7422011208993475 0.5745564530327588 0.8576318257665423
Ni 2.433270440049307 6.175335067459049 10.212260586159664 -0.6492261739325077 -1.194159404782195 -0.8080406451019762
Ni 2.6289114048817344 1.9826550824719735 13.700009768688995 1.103687426742867 -2.125281329318088 0.1948392260035096
Ni 0.7874108286146292 0.5112994880114857 0.37519441586924834 0.7444881171613114 -0.7298392568998849 -1.826930261372157
Ni 5.711784460194634 4.611960168865924 2.6762506693887147 0.3595458942876969 1.3040812640160186 0.6177185902425297
Ni 7.1096162829011424 8.729175157309022 9.988204252177683 1.411869364736291 -0.35296412730512117 0.8759933589928656
Ni 5.159824233329824 5.182835855055754 4.946600702292306 0.7462783762925147 -0.04535605953729608 -0.0969771261476975
Ni 8.534958944616042 7.206508801752848 11.678547999818845 0.7115134620075035 0.736033558636055 -1.0652450636062687
Ni 8.199120494588204 0.3067060181238911 4.562512833594722 -0.4685681245253866 1.3631407891823362 -0.07931107632650213
Ni 7.89206766179879 5.4424500656232 4.201404717167319 -1.199362032029057 -0.4536917216341864 0.22913054308621184
Ni 3.855960438241422 3.5686385479094747 8.909639699845542 -0.48329026122690966 -0.9359388863085624 -0.36963310332036986
Ni 7.538016755146315 1.7745287896807116 13.492978285436465 0.5002117195725966 0.9961728913989554 0.33565597504397676
Ni 6.861240742170514 3.730863451050277 0.8433679688913934 -0.3482978321777034 0.627180764096694 0.024303609742371043
Ni 1.9457802474944546 5.949240025645952 1.7624362058971588 -0.36166242641006746 0.42319972369291636 -0.326172975254206
P 1.309225362350004 1.2974055436142007 5.871362323834255 -0.8831425684431371 -0.4052323405812182 -2.5788547802068553
Ni 5.175487133494398 0.5561163788294851 12.306063207573281 1.1866286436227886 -0.18835901759580465 -0.8692575829309287
P 8.718592623325897 6.9138440908979755 2.70152033578828 -0.12202301337273178 0.8665263000426947 0.20009276109296506
Ni 4.1069698957561585 5.017377139493182 11.765415700163063 0.6223460617122121 0.0907609700346566 -0.014175777279749781
P 5.904894615305676 9.217143391700137 5.850221626628282 0.46733013835322745 -0.5182271823134107 0.8439090768638111
P 3.5096706814011958 6.730266652404152 8.057300479160306 -1.2221970276457015 0.08743473387490103 -0.2734373354233871
P 3.9889123089382 1.36546557838079 8.350047675665355 0.12618280117737624 0.4703061902624158 0.2222099047069786
Ni 3.4046983181797343 7.658295830497489 11.56354238205749 1.3887438344624212 0.8471057294242378 1.0675042919540905
Ni 9.49812888435928 2.3234614182491975 7.62518346597243 -1.1719551007710138 0.5805378674271745 0.042818380717106905
Ni 0.7017916610662945 7.7795591096292025 9.468766804906542 -0.2836914090512275 0.540645659217927 0.7597725541242076
Ni 4.147472224667662 4.05910009854462 0.8425496737481456 0.18293064749138171 -0.3546204319616215 -0.4899627881510788
Ni 7.3353082698326855 1.7327048156924836 11.022181561240616 -0.35422371074383513 -1.4663597824746875 0.4777770447181643
Ni 7.0788435113629635 6.697403619503496 8.856767335418066 0.37598295679779764 0.05164086410474332 -0.7128612342846498
Ni 2.641471719795277 0.3437064562505451 1.7652894595237874 -0.3896308865985354 0.5651066204737686 1.6467010719723383
Ni 3.10124485921629 8.498271577025292 9.500155406810258 -2.902107496490473 -0.3472768471123568 -2.6417583617096114
Ni 4.472381326046851 3.6588197343148403 6.495543424114999 0.17331986387449505 1.1250540653441012 0.9034666247124699
Ni 2.6420809888022765 5.336755952962677 5.706241986904801 1.5890006319370764 1.0167175483195265 0.142667943316593
Ni 7.7852487448176495 5.286795894388662 10.611617673509606 0.23279076554661846 0.38469668252171163 -0.1133995333697789
Ni 8.813647961787263 7.233560345663656 0.3791143589265941 1.4888335380971713 0.26436776902195114 1.3684200353034046
Ni 9.26040149119715 2.3052958284712535 1.2573803192020243 0.43304113526337035 2.383071959343154 1.027477615049508
Ni 2.7026985683141254 6.409828648199412 13.264216520046574 -0.6429241429738799 -0.8048077399869753 0.6288807775069364
Ni 2.6672484854760534 3.080660940149022 11.692184377532444 0.08536319605785299 0.5290029327726761 -0.6263225298614568
Ni 4.838027090571006 6.335769657056204 0.7504141398357105 -1.4164932366615475 -0.09634823431444696 -0.27574541473127345
Ni 0.8079600662153444 1.6144785082264332 3.459241017023324 0.34590516357581075 0.29965307458680657 0.855029869367321
Ni 5.798019458108506 8.618091357278882 0.4602343091924659 0.14951196282161994 -1.2037041110478366 -0.8728576415773613
Ni 8.883413949773454 3.1106557220321083 10.229094220154613 1.0361286058562864 1.45982660934186 -0.18763550916621877
Ni 3.3872076109941593 8.844448853433457 13.608943736218079 0.03728099583864547 -0.16753976685760824 -0.21413201279485056
Ni 3.318941362102124 2.316825072757565 3.666890205315258 -1.4351617596053283 0.4874405359498573 -1.6009081820079398
Ni 5.129716971014677 2.2066786096612705 10.712876307799169 -1.4415242114882463 1.9811931086152008 -0.7202634402859918
Ni 7.514105289963893 2.1488824143203 3.053656263084907 2.484222757252567 -1.2928008060061928 -1.6058791528599698
Ni 7.098855654900585 6.376825014758678 6.2188884280902235 -0.3074190916854706 1.1203582025303287 0.1910311651113291
Ni 4.780924524561081 6.804025695728528 9.835060269251985 1.4503644354876957 -0.9728095340826666 -0.03180763142890006
P 7.33327424868624 2.522823610708995 8.871597880385385 -0.5064047357571859 0.022410249374400115 -1.0112009893766711
Ni 1.6605017516782932 3.5703632478677525 9.572604990438052 -0.07456456278045223 0.6447696808230509 -0.8283837275347024
P 5.638831526633367 3.5626208447941807 12.45126325998463 -2.8128701621891943 -0.5318877105196388 0.6623768523818528
Ni 0.07697223433360131 5.376302198201658 6.22539167173725 -0.6480046428205807 0.1185201424257959 -0.19469961510185177
P 9.066025931225415 0.3735653242782232 11.637569503744947 1.4524105193834471 0.6867707078451849 -1.9683938999680037
P 9.045901307255733 6.927416729700072 7.852285207652479 -0.30597850258420206 0.24745222421353513 -1.4242605393117922
P 2.811223438514866 7.510309075381815 3.2889625149469137 0.6757920973464941 -1.6560935689308316 -1.40166645606136
Ni 7.576119501507172 3.8747259236570275 12.306103513061435 2.055790067295485 0.035766873186964206 0.12100254252801741
