# total energy = -340868.334152231 ev
CRYSTAL
PRIMVEC
9.21431642051186 0.00000000000000 0.00000000000000
0.00000000000000 9.21431642051186 0.00000000000000
0.00000000000000 0.00000000000000 13.48608347879688
PRIMCOORD
 96 1
Ni 1.33019710551724 4.37269979224958 6.7460625271675925 -0.6770619651978533 2.2256394561228765 -0.5631579813878301
Ni 9.139357670743388 0.5418801102770161 13.351343203873459 0.8665782363265528 0.7439661832195703 0.44819110353093133
Ni 8.275404961529693 8.448025959955595 9.629400802753906 -1.1699439838782562 0.09381775458310938 -0.8705814439486748
Ni 6.810411625310388 2.2026269855728176 5.0852511516588645 0.106109684576585 -0.5903273427137705 -0.34902931102708923
Ni 6.254613290515259 2.6939619647051085 0.983862290772125 0.36426258303707587 0.4799377998149089 0.8489198998148413
Ni 6.754591298179817 2.9156952681171346 7.392275417581079 0.16565257713722437 -0.5217876459711595 -0.4018683092049917
Ni 3.7182806318885047 3.606962478692001 10.815083338344152 -2.787738400118573 -0.20031541862673244 0.029090232497736995
Ni 1.3321781834857234 3.3012775409969395 12.55240118070087 1.8894489487316686 -0.9058140418987239 0.3310403306488363
Ni 1.034629486935643 8.85365858473968 2.529854072954006 -1.4840775114694247 1.9879710507689825 -1.511243016140623
Ni 5.4895209790869535 1.0007392322003772 6.885656652279842 -1.326410266530522 -0.35459240693716354 -0.7030802436384859
Ni 8.436673922480379 6.807269543509212 13.633755543312715 -0.913188222875608 0.7470345377322489 0.03784663853412837
Ni 4.551494382484243 0.9425600401398915 11.790882181068742 0.4203403998672503 0.1652201175854961 1.7040305018214266
Ni 0.35624296888237195 5.299300636848013 3.945595968013588 0.016056025021598155 -0.339623444332157 1.4439140518766616
Ni 2.5450862589526113 0.7919455929331949 0.3248700653145002 0.1760498612111484 -0.14798524176444836 0.30156468978722256
Ni 6.053916270833688 4.637510023580955 8.980275267010942 3.5037813745653144 -0.7016738502092625 1.4459035715028647
Ni 2.706806721393787 6.111588675506887 0.6867245527215531 -1.3284319249462413 0.09273223482841449 1.308786639911488
Ni 2.229366930989278 7.161108497312619 3.559449778986475 -0.7810576887552291 -1.5997108192657288 -0.4586338961308101
Ni 0.5111798517868155 6.622126289459269 2.0324468594904106 -0.03130806608466221 0.13354284108687323 0.05178690276430436
Ni 6.821763662785605 0.6162516200771111 -0.05957423952294345 0.9769340977740013 1.2892251728397925 0.7717762634533031
Ni 4.649507063185445 3.3127677932141433 5.372451249760554 -0.8056636602293674 -1.4642874733266908 1.5340636135795647
Ni 2.8123382840590936 7.13793449223943 7.672434856725941 -1.2517883681495732 0.2302911390532163 0.4083680579967225
Ni 4.940937453823558 6.247545910041646 8.36417660458163 -0.8571790544998399 2.4856327502262157 -1.39026078532758
Ni 4.577128609964806 5.02261315202187 1.5451818437938365 0.8549666202295533 -0.4535073735375222 -0.487737755475302
Ni 7.00249325940809 6.291433697780653 2.9452658514494927 1.0181398825883496 -0.8215201676456497 -0.8289604259737788
P 4.751187041707373 3.610067703228647 7.762197960193733 -1.017330499313177 -1.4676946992360274 -0.9628717061436642
P 5.2145934286421145 7.876332929831937 6.642084498202223 0.18294915943414297 0.23491603941973738 0.27647020871244
P 4.3518662234740395 2.677523624724762 1.969399744217135 1.0024661806068347 -0.7994788715748941 0.7466810110475721
P 2.8005255307772527 8.281587767654589 1.58576077060967 1.3903479457247474 -1.2683185045941123 -1.0251219703331376
P 7.29424615111084 4.88999149992707 4.62306934733813 0.5459326186484792 -0.46362415025654996 -0.714863352316343
P 2.6347599835539173 8.780515343280044 9.402753504548429 -1.2380432506493388 0.43370345143771755 -0.5669313323873333
P 0.2161558778570349 2.4880496420925526 1.2200519347644003 -1.0654337825783071 0.16789972130018826 -2.6968108225990655
P 5.8690863035322485 8.359255238335273 12.435881546047582 -1.0975368337604388 -0.49498929483139276 -1.3798539881719591
Ni 0.34698903119052116 6.578699217526885 8.627465552319533 0.7153258937750583 -0.30409722640108916 -1.0075649352859808
Ni 0.8107538550228153 7.1355940559417785 10.817362960155329 -0.8086386836972912 0.17422514929758381 0.8922291041254377
Ni 8.973444694461934 7.751405231707757 4.505187836760459 0.16698363724382212 -1.0814869793864277 -3.9056764232431838
Ni 8.254083033999132 2.274858009735337 9.341243337206052 -0.3826107465269604 0.45611395792243387 0.32365843636246844
Ni 7.92551894934712 8.088934845956674 11.901252181135215 0.2663783716940767 0.6996989858710787 -0.7663553495480478
Ni 5.517873429826598 2.7882059901081253 9.966363736560675 1.4611175602391417 -2.230302665926501 -0.9834492731846998
Ni 7.081773235411957 8.854976231946624 5.461836566266914 -0.39377833310800575 1.0613174464170883 0.01882201780250952
Ni 8.32756720515567 2.7685610681136756 12.648138846748964 -1.1615328769964253 -0.603196999587587 0.6860001482277476
Ni 0.6466533347246192 4.5448508605527245 10.698765497214163 -0.7901928182872779 0.01769201796312437 -0.6701516112312653
Ni 6.366852875325011 8.555759744176566 2.958967539538492 1.9200887851047124 -1.0704543757213498 -0.2936305225418105
Ni 8.039343396531661 6.346581379833553 6.159081103716922 0.41425254180195753 -0.3922796370752922 0.3164349220308357
Ni 7.79761502711215 5.828746027504247 10.36062958096373 1.3203933709124807 0.12347131578348412 -1.2448654157774948
Ni 2.624034519575709 0.3217113977442857 7.140004027642784 0.18198473863834463 -0.4116631838082265 0.30634976988069174
Ni 5.841341997657349 7.421311570577754 10.423461081239505 0.07430025337547204 0.4984633694229222 0.15361750034956123
Ni 1.6823866967329333 9.272734896761053 4.604175392108478 -0.5324584954214442 0.4001767804351818 1.9803682987210602
Ni 3.522126270060247 5.070840882659277 6.7625966960357164 -0.21887569812742305 0.006010982080770293 -0.7527202752631166
Ni 6.127593942629007 7.057622512828724 0.6561772518791518 -0.6921638538362983 -0.35148548587706563 1.6376852416269732
Ni 2.3035421758557506 2.7990051686153934 1.5049926825504067 0.3486076501086383 1.5854998178726694 -0.1224837550592342
Ni 0.5923146696281516 2.450169588471923 3.258318556324086 2.6559405667472644 0.8721397895747303 2.439334124269992
Ni 4.661881889751367 8.50590107958371 8.611646414383289 -0.26057539185905443 1.7182165635138216 0.22250429601894584
Ni 4.180268014138844 5.141708188034189 12.53942742358634 -1.2637010604267591 1.1731010414499992 0.9251009151527938
Ni 1.6471695804745905 2.285887546145917 10.18989567448176 -1.538237542451596 0.8295690060920551 -0.02345540280946283
Ni 6.658919053776265 5.8312431071761495 12.220198362608144 -1.2064834735651866 0.11954138460145862 -0.39594885839676325
Ni 4.9869353199569035 -0.07783701409752104 1.1930503027697776 -1.400534656449762 0.7523749761085559 0.1315335239663283
P 7.386564384442168 6.319334647029806 8.247764777427092 -0.6990546674188605 1.4382673951138456 -0.15330125466072309
P 8.24441721637616 8.24240849545928 1.8189087688466135 -0.9296278564888698 0.10084817906732953 -0.303181142344723
P 4.748524104345087 5.499546155039094 10.524107213491371 0.3095086272246476 0.7988342960123597 0.07277610342146175
P 6.9842120562012475 4.816055827280041 0.5254261059592445 0.14838890496077026 -0.5049194094609112 1.610116845090401
P 1.5417578039190065 6.654929254890902 5.851625174461197 -1.2836610484884539 0.07002939391426004 0.08320732605711477
P 1.5517737655550135 5.617738188070429 12.395962364266834 0.3194138021535015 0.794088039576626 -0.5210577097836703
P 3.4303701100129995 2.6791453443640787 12.841758350209176 0.6697983416569044 -0.1338392892813695 -0.33908788354366115
P 3.521131123917939 1.0358457766651306 5.193436437370325 1.4232246418481103 0.7142390884687828 0.3380995514884629
Ni 8.777972192027478 3.4185204994666294 5.348877343367215 0.2821209792403141 -0.06266215491591143 0.5796014716558341
Ni 2.1812313435131965 0.3637719865942223 11.613459602506206 -0.1139813740151779 -0.36439088108482404 -1.7456090965941613
Ni 3.9073768275592826 7.7310508073711075 12.972654160892363 -0.7548519768941387 0.2996864989279032 -0.7121850341532314
Ni 2.579243728855719 3.8060469930503875 4.26100845924971 -0.148676354294202 1.0422064366192503 -0.6884576086293046
Ni 3.383478455214804 0.7577733801242753 2.9686914073530994 0.3543980315381703 0.5732403053244965 0.05290996062515403
Ni 4.433210206291583 7.249096002061682 2.8171076140892657 -0.3749755985792058 -0.08294738752750877 -1.571736959760622
Ni 1.3137679798530262 7.906859959178847 13.00650479406826 0.5473888914790315 -1.0723202252854953 1.1582305520960696
Ni 3.52793128922371 7.522503190344662 5.325870117416023 -0.5130559225251163 0.592200134256451 1.3745441459232715
Ni 8.325982342780883 4.443382811301842 8.096680400097638 1.7090073862107278 -0.7340764349096842 -0.1653533007292507
Ni 3.697096919099931 1.4503425735686615 9.732245470834982 0.11131128338218249 -1.2302587216079135 -1.2382209138777838
Ni 0.18890822362167498 4.883956122860294 0.4641103606872622 0.3163547036122035 -2.4749932682344986 0.7624081919748418
Ni 5.71705008734631 3.459505777623905 12.29195761378468 0.3946874751858364 -1.233814557279972 0.6768691324607569
Ni 5.524645952183972 3.8929472084958174 3.37400245250416 1.3070938255900972 0.4670375468134731 0.07944065992583092
Ni 9.14054631752448 8.502703711885738 6.452645529971317 1.9611135642565065 0.9494798582177906 3.1189509946792153
Ni 2.984083922452409 6.845453669562214 10.25330675524227 1.2212701449560581 -0.7588711253558608 -0.10989563398157849
Ni 8.131200914056365 1.2559205031733096 2.4259709514448007 -1.1730200517004183 -1.9278422037978862 -0.7656446966342685
Ni 2.6370727769031697 2.6736443976329873 7.894146045779249 0.8167579703703159 0.8849184293966373 1.2595626127783535
Ni 0.5141588401924467 0.6492176789042888 8.534856146598418 1.9581020311236923 -0.11772284333548112 -0.44005073381198406
Ni 5.93300601454327 1.4000416218014466 3.0940715283993834 -2.034847146495231 2.2405945347708123 -0.05218182420987788
Ni 8.009470583630156 3.905561607281184 2.511311183169002 -0.6584569485021564 0.42345837667094166 -0.40791220140622647
Ni 1.7868770416752695 2.2166972463071164 5.812609917093046 -0.7313662350673727 -0.9729738275746728 -1.5659072404527228
Ni 5.669347572728456 7.171760246761767 4.69991305815657 1.8603191212452477 -1.3155728095953858 0.6579249872580862
Ni 6.833493487222253 1.2209061018698815 11.052708572789868 1.1275647475810968 -1.006323606679712 -0.23433908387034483
Ni 5.898185113878624 5.1772017337765055 6.245324338422105 0.15208306598290583 -0.1872102487033421 0.6142565998358582
P 9.33548438962325 0.8376403080657819 11.020408709019067 -1.0751816059936903 -0.3505827715571382 0.1348654165530387
P 7.397216133891315 3.671720692471078 10.955756459875515 0.4524827889277498 0.7888103361174543 -1.3277176724880357
P 1.8633282226264654 4.860791332103237 2.412255441881603 -0.008892417393623396 0.03594376508446068 0.05087416114204786
P 6.562048948275491 0.3934706489208222 8.681220951204814 0.846124339347575 1.022515385948226 1.3835987999263721
P 1.7955569274720666 4.737301067295725 8.8784552308838 0.47022005830651276 0.4775610720526162 -0.1493589821835234
P 8.854349658449616 1.1092562332926075 4.654761987675799 -0.8437021030593277 -0.6248955676069432 0.6448293304163927
P 4.210196112937142 5.541480507758015 4.238527370749682 -0.5272805507649306 -0.8704737147262168 0.29558533227533607
P 9.587219506362635 2.5830676700506983 7.425180661921783 -1.4115158380516142 -0.6461935577537711 0.8977832011744473
