# total energy = -340868.9570896524 ev
CRYSTAL
PRIMVEC
9.28363179812123 0.00000000000000 0.00000000000000

0.00000000000000 9.28363179812123 0.00000000000000

0.00000000000000 0.00000000000000 13.58753354043120

PRIMCOORD
 96 1
Ni 0.9504118256569347 1.2047647751011223 1.7376285411711774 3.003953006474065 1.0867603119702252 -0.8740292932879593
Ni 9.187444285531656 8.100553785891986 5.755815631757554 0.27754210162038007 -0.06424775423547645 -1.073267162579797
Ni 7.020087559593996 9.287159776807663 12.736641783274521 0.3396455558193441 3.2127157845372025 -0.5819522312761978
Ni 2.144101227786055 2.203887817844474 9.57771703431238 0.3554095035218202 0.14924868185790424 -0.2373249059715461
Ni 1.9427578170427329 0.67106269706177 11.463435288004504 -0.17644889642178 -0.2589784796855798 0.5623740520339541
Ni 6.897952097046082 6.160673894768213 8.124013523947518 0.41195963200272284 0.5371952387754813 -1.530993459294673
Ni 1.415298981521127 7.805584946462459 1.6359393497326835 0.06831909609137267 0.9196830865713322 0.9590505326253612
Ni 3.1045579432633637 4.492748719354276 9.50929016795468 1.8381690675107696 -0.7240745865019659 1.8186335685810033
Ni 0.3624738411299597 5.194544880140952 11.853777664025204 -0.9108564894186377 -0.874672840409229 -1.2655723093075428
Ni 2.8127548223446945 4.31396453436281 5.495002202806898 1.187679453484806 0.36503442820609394 -0.7110213528624335
Ni 7.835645346867608 0.900076901334304 1.5176324570201882 -0.20710261675189492 -1.4594761679809767 0.886321737502067
Ni 1.01392115214601 6.989971457396867 12.92319822497358 1.027741667344172 1.9611613867753066 1.5680494836067058
Ni 2.329300402487205 8.749154735337864 8.99793657722086 -0.3034493084044451 0.7155938027244643 0.18002170137470289
Ni 7.154551685433458 6.889021243065305 5.069589978555657 -1.1564642042242663 -0.06104595946872712 -1.2491126210896228
Ni 7.880838067427295 5.555706015706586 2.2678548273909844 -1.037325454377865 -0.12311110423058796 0.6883344527878791
Ni 3.41202255136038 7.169953230915898 0.3614108652663434 0.5589693972277793 -0.7451846290077038 -0.0653759543026487
Ni 4.254549289584258 2.450535352731443 2.3644213106937273 -0.6669565013327352 -1.7043539465991162 -0.5018536260513938
Ni 3.6237172117799656 9.262660271968505 1.6910228518216004 0.1370462262544414 0.3799468265415521 0.6835753408363389
Ni 6.106420349379797 2.520747461522099 12.464633222499105 -0.13789211919450445 -1.210786986036547 0.9408180687777344
Ni 1.9787504582937407 9.228719313388757 6.3243991002979145 0.2579904047406976 -1.5883969369148063 1.7260792540913499
Ni 2.6539675806740113 1.8203624127989133 5.137664066897484 1.3347185292859014 0.6065394336972586 -0.35131219352399495
Ni 1.8935360001965003 8.891175737622598 4.09998424374565 0.9367924925581091 -1.3674517578528644 -1.0582920293272031
Ni 0.05128742496548704 0.6427652583727844 13.200275648819163 0.9998043175039556 -0.7615355595619013 -1.4558295723673251
Ni 1.0489854301973531 5.690411515977962 5.892559817615393 -0.8041307685246086 0.8947662687249944 0.23585140674981314
P 3.470574418363245 3.6533134305852824 11.845883791738453 -2.1166555353222902 -1.6809540796179374 0.040179914652995315
P 7.79618991088185 2.8537977594018793 8.990028779486115 1.2056648343186331 -1.5115206952820421 0.7456775094837221
P 1.9038408317127806 3.324004436400151 1.438851555896625 1.3476020701167888 0.29674515691139214 0.48292105081294895
P 6.214008360588962 6.001979489417496 10.291021185322103 0.9376052182673916 1.8476687794710889 -0.07275039238984891
P 4.448029464026418 3.116821621130937 8.145400226978198 -0.4207227229073335 0.6709792493388832 -0.8455934065447693
P 7.319187615262031 8.101417163667673 6.78179622186721 0.9264635998282755 1.694089588558631 1.3787707824101092
P 2.167263889617694 6.226856907272324 10.107046521681312 -1.9570139402658362 1.547360844909103 0.4374680606864724
P 8.282726496562228 9.070377686053913 11.149984593996049 0.2762516649437307 0.9659146067350461 -1.257662310431847
Ni 8.454232314068319 4.938687982313307 4.577355099555736 -0.07040091832106585 -0.5200824903545946 -0.19917076349932794
Ni 5.383717449336667 7.852337317197582 11.908372847071096 -0.12205566638288011 -1.310824239166807 -1.1831000616442398
Ni 5.86439606322716 8.340507822109371 0.6549203177459968 -1.4282493487562111 -1.7845317418012878 2.509576919746639
Ni 0.6531230065914456 7.911901100088083 10.86455097299028 1.3179348820696593 -0.010970382968574655 -1.180104983571658
Ni 0.30117216232968747 4.189638134663688 9.20496992601493 0.8024929758108695 -0.4468394745990433 1.1387145935503291
Ni 1.193215936897291 5.4153189326532605 2.0141480187337635 -1.7282274107826041 -0.8294039412691006 -0.27630077301411127
Ni 5.767103599902279 0.4822503327875246 2.873002808913347 0.4935147671683952 -0.31366558681581463 0.21585490902322826
Ni 4.331919078644329 0.816597554057237 12.009001847735574 0.4652249190847665 0.01831705314163297 0.8857800060659842
Ni 0.31853812434261897 1.153946173551466 5.067130744439744 -0.18756608938086408 -0.7593740331342084 -0.370495194210349
Ni 8.212913583947428 3.85344996916904 7.211854903932775 0.22539575863412795 1.3163716513475974 -1.3476375513404146
Ni 4.745978349326869 3.707195630693833 4.25105028868472 1.471908737317375 0.9485246933933728 0.8234227839850012
Ni 2.922997952304901 2.0687831213972423 13.542640214681184 -0.2082261888333769 0.2474565950889093 0.07346644462026702
Ni 3.0965461688502556 7.9495090933065065 11.140826291031354 -0.3932355732306583 1.6992374513081572 1.07444909870304
Ni 7.343343625717312 8.286996967280686 9.172006533884428 -1.0648092616204305 0.81728633206996 0.7034998476744078
Ni 8.62364003074317 6.265820310762259 9.87115314609926 -1.0917598220673455 -0.4421675230446708 0.5723015955603111
Ni 8.487152073128437 1.5074018945598808 7.265879143610873 -0.5719349562495117 -0.602709261317891 -0.5026601811130892
Ni 4.345046134287591 8.646431347294943 4.50168607187745 -0.09168245340766146 0.5131343411715357 0.4813272239632678
Ni 0.09358829415821791 1.0621496203686014 9.544835338143452 -0.35201924689334857 0.00533529616998436 0.7552044751375511
Ni 9.256198864098838 6.96860053654058 3.6504949199111 0.5453443502451769 0.9126398065713056 -0.2655787586109168
Ni 5.3797533384740985 4.445606436075292 11.537650498912114 0.2720844209399185 1.6035906139361094 0.3398723271181695
Ni 2.2301326454990007 6.40328304973664 7.927049202417014 0.3417458899917985 0.14353851884700441 -1.2149791697410237
Ni 3.4728860427304102 1.2124423387623509 7.783346934377685 0.9056379213321757 0.3223147778503804 0.08024875764942307
Ni 4.681095045302289 6.154815922978328 4.9001674080696125 -0.20682313783826314 -0.16327456382335107 0.21701499076960046
Ni 4.860770458965432 2.5026907972886168 10.219686685423053 -1.4374636682656274 -0.7566206387587873 -0.16325785165280268
P 2.2435103592061716 6.543818670901912 3.462117029614298 0.7157213294412642 0.4335453285932985 0.5974698672958225
P 5.223147750322627 6.112324739329666 13.259041967721151 0.387308666223262 0.6998028584387948 -0.057430988423959155
P 8.962873227532718 2.723464849800925 3.010331863586976 -0.9858869360919149 -0.3060900884614019 2.39783574791589
P 6.793901149627641 7.649165030950921 2.7179420171261186 -0.4141427556969707 -0.021011312144344457 0.18976001170838933
P 8.164777952044803 2.4115905165055005 12.860016610693988 -0.783764803273747 -0.2626435872419928 -3.69338557742213
P 0.13815993973732912 9.180871474078028 3.0094350647361 -2.0458257569939216 -1.8037054865162614 1.2534444156957574
P 4.410829950615846 0.13924148286493873 10.007612324454804 -0.13949005980924364 -0.37721245832952455 -1.3770172900541124
P 6.817193782307233 4.849314457081568 5.913607668078195 -1.6619999071129377 0.6465200878552543 -0.1176462244612748
Ni 0.048624879308848123 8.533087484247856 8.000190297102613 0.7250390072977643 -0.6297811778340187 0.3417014099071083
Ni 5.265536814019327 7.837102877091081 7.120777832229649 0.7113604813694071 0.38319490116520455 1.027920101903565
Ni 2.1207621769464797 3.8391346086302076 7.6406101640660085 -0.3234733169348558 -0.8890738463259076 -1.5879781042098329
Ni 6.817936472866965 4.6374991094460265 0.21524007947910592 0.25682672344989965 -0.12079891115764356 -0.5058583763354126
Ni 7.0144895295000165 1.456146962306382 10.376772237348751 -0.18550560730740956 -0.6756252327513268 0.35166623442930406
Ni 6.180438747289079 4.1948741031097985 9.038115208139159 -1.307859500111528 -0.5610687029589693 -0.6031275798022322
Ni 6.493631356328027 2.734224579285041 1.73086170180882 0.5714240780513643 1.0788937647379548 0.045277640890876866
Ni 7.802400660687608 7.123739310836581 12.076423296748036 -0.29584501369462596 -1.3856351136301104 -0.14389513085547476
Ni 5.832107591142815 2.893290329915624 6.195739101182756 -0.08404601990832622 0.3130816892878866 1.9235021816616356
Ni 0.9943419722650775 2.8124670297527987 11.696026475685345 -0.5552986332444114 0.5527301011862868 0.31339896341798934
Ni 8.93017627564052 2.9773721849092736 0.989789279133921 1.3128710943935067 3.356377716335948 0.47444900878619584
Ni 8.383221812925951 7.9184367770137225 0.7527846528018712 -0.26710367989587547 -0.45500992622497766 1.1283203948001987
Ni 7.657548150643895 4.103987345862605 10.93239389889539 0.7841530398511011 -0.7351984643292693 0.4060247545755265
Ni 4.525659194782396 7.00021130348917 2.648848585991059 0.16960204870327567 -0.2579166140799687 -0.395858355565486
Ni 4.388382128447948 4.187976364536288 0.4566145113919782 -0.04014726164284699 -0.0019818063167191674 -0.09304668074503976
Ni 6.568253190317092 0.565600637579838 5.431413037082652 0.33366928363125115 -1.0632303471690852 0.6189362646997147
Ni 2.000817651549775 4.917447032304975 13.494377397020205 0.5363028088681989 -1.7358934119682943 -0.04227227840564978
Ni 3.2810026529916736 4.474738473280777 2.78866472567659 -1.403331759578925 1.86295090244114 -0.32749915026479726
Ni 7.778031126696404 2.490622075692973 4.8269984624880236 -0.42763976174214097 1.2715156713751714 -0.2264221430161133
Ni 4.0564922845677485 7.030643049174185 9.223801773520133 2.51482145597503 -0.0492430532965281 -0.20070339809377047
Ni 6.189351034005862 0.957996552998197 7.89420742586567 -0.4970929714379569 -0.04427902442303342 0.6945678352921006
Ni 3.3620673275864124 5.907602086539563 11.869009319042105 0.6981815207852878 -1.9060281932465881 0.4535783359847737
Ni 0.8546084569043164 3.4143434593595425 4.691843634428009 0.09452120840803721 0.048363478905052194 -0.016752279757674376
Ni 4.657895248942664 5.371258815197165 7.2045319750138175 -0.20404583220344213 -0.9378425310891783 0.16944109764537915
P 3.4746592164417702 7.558640335351597 6.256406707917658 -1.9015627012760672 -0.8002566302811831 -0.4000050307440079
P 5.6711201286889255 4.655889984431387 2.386922049564005 -0.6976634434982887 0.6562805096761277 0.06717624073618109
P 1.2941940021248415 1.847758410821024 7.188498214192405 0.9252875772423033 0.23121519352938244 0.32904592592662685
P 8.703897029354199 5.745147810230204 0.34664339184927395 1.3649770710601268 0.381580248379917 -1.384866353784886
P 4.887730126283701 1.64215381299124 4.675199010621218 -0.7931475300402275 -1.3337602791376901 -1.085130489676286
P 5.356330734946552 1.2100007435472324 0.7161338020423009 -0.7056901704575073 -0.11512114404657592 -0.3943437186931725
P 0.09738529964484732 6.28446184381153 7.929250351563419 -0.33101487672753954 -0.8169765141390252 -1.5266896897129965
P 2.386701099122485 9.019893295256136 13.593376191906069 -1.4716305439553237 1.0464359013195654 -1.973221403263634
