# total energy = -340887.466619903 ev
CRYSTAL
PRIMVEC
9.09499892053528 0.00000000000000 0.00000000000000
0.00000000000000 9.09499892053528 0.00000000000000
0.00000000000000 0.00000000000000 13.31145025678683
PRIMCOORD
 96 1
Ni 6.243580280787099 2.388810541132017 11.515908363622065 1.4275402385043285 0.7742874599109311 -0.26595799632720646
Ni 4.456167443154454 0.6661677377603175 6.04757850821945 0.513279094279516 0.7217271693157119 -1.1222901294457188
Ni 2.2675378265584785 1.702692923409418 4.5990125854838775 1.6698731392134272 1.805284143857291 1.3431964848499256
Ni 3.4622023045915142 4.766215953714819 4.6925255445885865 -0.06411379976077346 -1.646083235882681 1.141851596517414
Ni 3.6984630895380266 2.9207133584714655 2.7625522380903074 -0.9643220654369457 0.486790046850052 -0.20665395925025054
Ni 5.1735445719006945 4.719403994669521 2.8841914811172216 0.570631664057056 0.45780111581686966 -0.8120921894635305
Ni 5.350824289349878 3.3384648453315036 0.4405226354634401 0.7264662266625941 -1.222770126540352 0.06565723298849338
Ni 5.9056374087750285 7.799043362924848 12.448775118957009 -1.284671234920523 2.085630290585369 1.0828884877196447
Ni 2.4428439292587143 5.77329608060947 11.623292105462347 -0.5317576126996777 -1.4712628762032598 -0.3218298677941619
Ni 0.8531800134714727 0.3323639997217295 0.25183142296585354 -0.8523795762286676 0.35600394257270945 -1.071242418840284
Ni 8.038032647524282 -0.037442291237163715 6.377223103287101 -0.46573682572417857 0.9204557030712985 1.7474335513974102
Ni 8.872262321406328 2.4043357041571425 1.2937781374253103 -1.2068945929606762 0.9662187682390263 -0.35319629792058527
Ni 0.49654419033723374 0.2786280180572001 4.699341336721586 0.44294553886127586 -1.538831467281853 -0.3195403004290368
Ni 1.9385171484114627 6.728143629148352 0.516589567787367 0.2859346965594495 0.24635796270809185 -0.055056574654511636
Ni 7.613532671522684 4.041117170950809 4.254273020836378 -0.8763011200412714 0.36061238787899824 -1.2750493955600428
Ni 7.625629019983972 4.3171321958403945 12.751411205460268 1.166794896726313 -1.3943516675675018 0.24278824307896252
Ni 8.515683796764801 7.38129187606481 9.51568983355931 -0.024407739420403127 0.6333061602681416 -0.2930779924724501
Ni 6.926314558940074 0.980713725248582 0.17172813015537072 0.6263644388429858 -0.5469374057639097 0.9247800414782654
Ni 2.1535683960559284 6.977337502449715 9.42754201427213 0.36359486754608994 -0.724640743418081 -0.9312610212169188
Ni 0.0607409497734643 5.116209699193962 1.3417542563225213 0.2765895078991237 -0.5849133707870507 0.4668012624329509
Ni 6.666270352018925 2.3558047903305037 6.877920070096081 0.30908233832050636 -0.20356606435354616 0.9203569727099052
Ni 3.4214567097745463 4.483961759618886 0.6943558676746542 -0.1571306557091423 0.6022338643433693 -0.7230654285111612
Ni 5.903845694002944 6.052621685077934 4.750776283678818 -0.1589445689894295 0.6811873002201365 0.6114641246923855
Ni 5.793004943102409 3.5120065182561833 9.017908723379417 0.49824585409547734 -1.546547090758556 0.8725953890549101
P 0.186810366736839 5.984909418691254 12.14772338125221 0.8226139149304608 -0.5320990551994964 0.9942561339922167
P 4.181052823150333 6.214803704447615 12.920013384513274 -0.5033703198062364 0.9719417867657326 -0.25149039883865076
P 2.4457998038827133 8.699884808333561 1.4458101380861215 1.4570603594506326 -0.4394339261635916 -1.024820379932319
P 6.193157607201101 8.34518894845255 5.37431121436223 0.5152009938925772 -1.325538148338214 0.7417588911556064
P 4.9041961811630825 1.2939182004074936 12.938290694188314 -0.5240746422331233 0.3817486556369813 0.508832371362072
P 4.199151870848049 6.603905944951973 8.314784367320156 0.029194619286085206 0.7064563591995705 0.3085174669559719
P 4.617721907603963 1.4302158530697884 3.9624190554615812 -0.17554078278521382 0.3649590948834682 -0.05565589880140738
P 0.27037430660711115 5.915305392545216 3.713415267636039 0.04338556607448657 -1.0205112110340038 -0.7142925674145376
Ni 1.0204315851962829 7.796733233218708 2.708999975402408 -0.5039585882095384 -1.641849400306992 0.6383987442997006
Ni 2.030349351729973 6.637648390659774 4.989264433841999 -0.9023847045022007 1.5974906716859585 -0.07720277173424768
Ni 6.28797297014014 6.204653685738745 9.292097472501315 -1.4381907762396393 1.0195102805733152 -0.03583115076599635
Ni 8.940302007751358 3.117811078399705 10.261211436225441 -1.1862231806542538 -2.3048381752412306 0.3708052692516001
Ni 2.7799045863830067 5.399000498221636 7.035540947545962 -1.110581325649223 -0.44524564774936226 0.6321640762438984
Ni 1.016357025714586 0.3168452031957937 9.036810859474977 -1.0442018697827242 0.8917372520906837 2.182680436062847
Ni 1.740209793637095 1.6597736238689555 11.114488766184532 -0.44608048494583175 -0.9044593276430424 0.5571326011293567
Ni 4.546289786690466 7.255344332085933 1.679851743314924 -1.6937352905430056 0.07294553911979051 0.06941901402377076
Ni 5.8928225554051386 8.515092621840001 7.646749426297356 -0.2759493032119635 0.25477035514150315 1.3698315709389506
Ni 6.661531857621684 1.3589201571389375 4.719507677656333 1.1617012842534895 -0.591460170766633 0.6984088063047456
Ni 1.0758201281505986 7.981307139740036 7.354629886956341 -0.8659801977312377 -1.512722686009943 -1.6037381952575671
Ni 5.2615295907085855 4.9317176476622215 7.357930462036492 -1.1130336438444572 0.6146335235593027 -1.0382698205690053
Ni 1.2060423215857203 7.9273828915994535 11.671280047858051 0.4506639905514561 -0.2595798607150046 -0.7947030474528055
Ni 4.514411815745495 0.778999383907599 10.914603429110892 0.7947393000073797 -0.7029941116825829 -2.1251404328648493
Ni 8.286608060904316 7.424984250506935 4.842612124996865 -0.6177116482639943 -1.0075741912573615 -0.9295052148680765
Ni 7.210533272786112 6.5452432024141505 7.094363762063423 0.6418023706646109 1.3919140046602867 -1.296559501717677
Ni 2.3762503477297323 5.482820007559399 2.6057299015388495 -1.258482492340297 -0.015698127461547157 0.3233121087666432
Ni 3.9503308924992524 4.7485989409557865 9.577375753712568 -0.6464506680698996 0.8904349883394923 -0.3073257606407159
Ni 0.8300059564193221 3.6220196242619966 3.7857095944398593 1.1637957048886731 0.47680799593667555 -0.8857512097105777
Ni 1.4844311411733477 1.2483340662060107 2.4082938476536477 0.24487057952928792 0.870423835324888 0.7025490537253644
Ni 1.001950547547158 3.4206836348728853 7.923880407544987 0.025392986151807878 0.23589023040754856 0.43660134181080296
Ni 5.33419863146474 3.373171360916671 5.030077331650406 0.19704754650873804 0.09234528380264097 -0.5119984277948795
Ni 4.158269851048435 7.35068720495787 6.21154860436168 0.27132465995575855 -0.5609915698641307 -0.6116477014581014
Ni 8.459340278931961 7.3562169642544575 0.3138693195743401 0.08050921039966136 0.2417009235520547 -0.19512436134409622
P 0.524212995817631 6.020479959166513 7.955269067552201 0.16932925465786322 -0.2842030585803234 -0.03825107306139864
P 8.612472774452785 1.5738713597961296 7.852078120178577 0.4364023384261194 0.5543154433955356 0.30100136108458486
P 2.1646188196502623 3.8235557036256553 10.227879174965462 -1.4380676203982137 -0.7417804884221612 0.7291126631465056
P 3.866766043129096 6.584915587367636 3.7386675319238316 1.3300185527070707 0.7422474007562507 -0.05045044334106795
P 7.0407296443859355 4.503679717110669 10.490075258612881 1.1891280130058748 -2.113087358355058 -1.024480994315029
P 6.417312948687483 8.292001395218259 10.1441233306196 0.5200971456426139 -0.5289633377839922 0.7014591630952952
P 2.4507383882545017 8.794863881251775 5.843514019177418 0.43356306920511134 -1.6837712373517582 -1.505028659799795
P 7.086104593614027 4.0706850121896405 1.7031731393483325 0.3975254588552638 0.6081767121903655 -0.14251110602375455
Ni 2.8806589835665717 2.012313969024159 0.34153721555485306 0.24367450233865776 -0.6532682052123653 0.22254260545604898
Ni 1.729295795025407 1.1589302275786013 7.0117266025752585 -1.8656585311802905 3.9249368141346928 -0.6173519509317303
Ni 6.952471775612753 1.2263241690057738 9.432826208599954 0.01572898069948259 -0.4472058567995265 -0.611398818672089
Ni 3.140903280462268 2.203008809766874 9.131548005423964 -0.12214976875858317 -0.16217644566316583 0.06387365872550935
Ni 6.3434888430782586 2.2860552442029753 2.584631323222688 0.47131509114290443 -0.1995194050879983 -0.502053914987658
Ni 4.3107293166548715 7.035609160037284 10.774167551975001 0.4121964306038772 0.8190850758415957 -0.7741437352442151
Ni 7.148177960718002 6.25775938398345 11.571630693033923 1.8980163786857054 1.173401089188921 -0.6390857430643961
Ni 7.890193441330128 4.709590490917845 8.295655765753406 0.3298008018147804 -1.3525393595174062 0.43427037968478116
Ni 3.3094881790174724 8.79269017652828 12.665192435427702 -0.0444353474952396 -0.6731477177451117 0.6946809638311972
Ni 0.42343858963661146 5.222548425667173 10.026596846069525 0.9314397128866282 1.4489726973464916 0.6439227594417233
Ni 8.92240305002819 2.472175300527625 5.6983260051460185 0.1474098288769526 -0.13790523182062703 0.7259957147840788
Ni 3.819399289154371 2.9607768283752036 11.56187266877519 -0.8987535355075166 0.5093787307838453 0.0580267130264291
Ni 1.2132182756729053 3.4450127567781057 12.695596107060211 -0.7363148373218997 0.9269140571021327 -0.3636228925705479
Ni 3.305304479549659 9.061383727349192 8.00271040051744 1.7130507030421658 -1.5049016473036274 1.857923881540194
Ni 5.960452966802231 8.771544304218136 3.114946153764137 0.4242978418531015 -0.9106227761412768 1.4353985582064828
Ni 3.0181389860784655 8.791335021700663 3.6182251907446665 1.1970752928774093 -1.1730938423611474 0.8286084419509987
Ni 3.9734412845595015 2.8930099919954646 6.865712762648909 -1.3739569059612338 0.9626991851215418 -0.19054394106226538
Ni 5.267614144934601 4.7398222670722205 11.637827732613346 -0.5241119232289619 0.5271509671656018 0.6992025058506346
Ni 8.264498118716805 9.010433543830295 2.293575898746313 -0.6305962175361461 0.7611465516535989 -0.34951833484836575
Ni 4.364171529856769 0.7324348088308329 1.886046281086005 -0.5064481874006116 0.15148477027727458 -2.1304765003657824
Ni 6.046828170814897 5.723373631959841 0.7239300754126752 0.16455394475640694 0.2509782350889226 -1.3951721065862681
Ni 8.287553940783996 8.964285519700542 11.509026177997512 -1.3455539293385086 0.03178217750760333 -0.5416661300626413
Ni 9.10991464117583 5.228023614970703 5.870562545736717 0.6423752124489454 -0.48695022657700004 0.7033988033201692
Ni 7.298600146583589 6.303570893156009 2.6441462671521063 0.8137346101629599 0.0462834564475719 0.8295247831176811
P 8.59168160709752 1.7165082266520464 3.5101093014975184 -0.8691909913590514 1.2896566039502564 -0.06571508280962231
P 1.7830563331868128 3.4398286074375544 1.6508596155028596 -0.8068836486793974 0.23983198866411598 -0.08563624721358155
P 5.023022341047834 1.5958994469940526 8.204911324296527 0.3088439970574552 -1.3791405070447023 0.34303349845497055
P 8.516529631657207 1.8719326618813241 12.130151843487393 0.7264050344073555 1.1139201602144686 0.6630098579801614
P 6.587080197092288 7.922344262240392 1.2394573473351713 0.3139980304545689 0.3376593786272507 -0.1704173455157194
P 1.9353975638082885 3.531888185727141 5.91648683289493 0.027797481828242446 -0.23856931990160848 -0.012973272331216368
P 6.992953615463271 4.494157253321971 6.284815186541825 0.5144126936633269 -0.3608545857967914 -1.3881090290918996
P 2.7609960837882572 8.839820460533085 10.258242828603061 -0.4941053495645426 0.5829719307899637 0.9185098921988376
