# total energy = -340895.22153205366 ev
CRYSTAL
PRIMVEC
9.05389034729049 0.00000000000000 0.00000000000000

0.00000000000000 9.05389034729049 0.00000000000000

0.00000000000000 0.00000000000000 13.25128370452810

PRIMCOORD
 96 1
Ni 6.5346181196407205 1.9406017803270015 11.442005897191633 -0.6530594316356689 -0.24560745769531248 0.5860919644761842
Ni 4.584835694609527 0.1904223249339389 5.994907573884255 -0.3313218664449971 0.8713910843341638 -0.17057983923551268
Ni 2.575388132891335 1.5670744845517537 4.7847338210695085 0.2856199935325081 -1.3541082466664227 0.8182726072426294
Ni 3.7180434046241952 4.604998708175833 5.535113906505456 0.14147160901564668 -0.18563699067895126 -1.3042548134794054
Ni 5.1182818537083685 4.402535614610628 2.668596122142523 -0.06277785455816931 -0.05308453852980535 -0.054458278948880404
Ni 7.4442534182456095 6.1687232533384835 2.409600537913642 -0.3659836794932407 -1.0774351779145575 0.2825274706501134
Ni 5.020671863022095 4.533346220809987 11.370634985812277 -0.21644472008842722 0.08004306939652021 0.45318598564236146
Ni 5.766576610512005 7.864752296590228 12.369437522453877 -0.7070777948336533 0.22631878466902958 0.44372201201598416
Ni 2.0109686152786503 6.43839337416129 0.2585673352204906 0.30767517356033464 0.4245235847106624 -0.07913135621552823
Ni 2.8185213014183006 1.667916714054001 0.4791264392100211 -0.6836393613050549 -0.7443927292340277 0.06263695810493083
Ni 0.28709342720224046 9.019295326209285 5.061658824142284 0.40995057199249396 -0.29448541434293796 -1.0679344375129738
Ni 8.566546490826868 2.376003362008009 1.4093267441079083 1.1387940406380128 0.7738688843162737 -0.15784825060145719
Ni 6.699661484840617 0.872701764145515 4.874418036238969 0.33839085747663655 -1.21466395249345 -0.17754135815501035
Ni 0.8266029765953588 7.437155168296807 2.3917507933038666 -0.5998748771928893 -0.8233667339360853 0.39413494511647607
Ni 7.530374022216285 3.7117147353458626 3.8584819177056424 0.6626229069543877 0.8646445096389496 -0.303636998935219
Ni 7.62579297146428 3.8902031275533773 12.444969601787914 0.580609086984742 -0.00189927390524189 0.6387743824715644
Ni 7.820551204434548 8.843215268805828 7.076411060152573 0.14117053283546008 1.1316985672438122 0.4154396201315232
Ni 7.044650918576802 0.6950209789474814 0.6159424908061162 -0.6328374481618392 0.1503802243591862 -1.8267253444502025
Ni 1.8459705195299565 6.450398832620618 9.289256076908822 0.326796724881134 0.7778975458596925 0.10812954322009118
Ni 0.18083516055793517 5.018200150986351 1.0902069909568173 -0.21722247879471623 -0.9966526592488512 0.7110349797091883
Ni 6.3653556415886 2.031502838344829 7.075774571668643 0.4760222668105866 -0.8532164703076661 0.0359206251560091
Ni 3.332429165377454 4.214929954930608 0.4027876582555278 -0.18574754811488653 0.36892270751690653 -0.23405883362576466
Ni 5.928478275798339 5.483760241059528 4.753818407453205 0.7339818183133487 -0.22900147370751528 0.6677360598112371
Ni 5.197612039998429 2.67322447083363 9.472931442835304 -0.19876092965541897 -0.21105183120763008 -0.03831123687537273
P 0.30329989073330726 5.773412297643825 12.301418361241675 -0.6274594716793774 -1.357357606841656 -0.3668339433086779
P 4.043947237732732 6.221842427381371 12.57165163403746 -0.011409270278206157 -0.046271372262713856 -0.5403911200049597
P 2.370344680607497 8.506057450127953 1.3465687985146442 1.2833252624155898 0.4052248843820505 -0.19643562395635203
P 6.42346350915418 7.797011089808417 5.908800550748942 -1.30141271604492 0.33885288471471964 -1.567821940976932
P 4.773500659447723 1.1772501863430314 12.618521813036134 1.0456619992680185 -1.5056675789353746 0.5954734056910842
P 4.185885075038059 5.987373831814869 7.833430363302114 -0.15278831958004652 0.695720460839305 0.5598785393056099
P 4.685469684636236 1.056308320506165 3.8877812119139583 0.13435402413425893 -0.8079917941419118 -0.6366192838017746
P 0.30697667556010405 5.560528176411436 3.470828742376668 -0.22654889840196468 -0.6731490032966922 -0.16617733929244283
Ni 1.3119811270166657 0.9572587612716003 2.688606124963758 0.14520767901931123 0.3096415532580861 -0.3292654981366007
Ni 1.677350867684935 6.549901086367224 4.867342421015769 0.3568670619039531 0.3525951740014766 -0.599359885229684
Ni 6.09167464738911 5.760021593977652 9.249939558538065 -0.42692139551887764 -0.21018794054543802 -0.8785199820694612
Ni 8.620018766589148 2.4852566555439775 10.330475183939638 0.6215611039170715 0.11567033168182661 -0.8662655901821403
Ni 2.1849934395974406 5.509409912111769 6.974826411650579 -0.6336460601060635 0.08119183828898276 0.86802422474446
Ni 0.559835532983758 0.230585382042214 9.325286033122163 -0.48875874054064855 -0.32748603763867473 -0.2529176182034806
Ni 1.4856075801648605 1.0302150088321234 11.574903425091502 -0.33151881294715163 0.8395171184437025 -0.8638019591329963
Ni 4.020081183057933 6.905927212306967 1.5826408380427948 1.1794038437395753 0.18996827106445346 -0.5979974576645185
Ni 5.657975197073376 7.7789395248877415 7.96940168693874 -1.181158621647153 0.5596957338708425 0.06346793864665844
Ni 5.320138336627439 2.8979239188302874 4.862584601694219 -0.578669703870184 0.5392032703444456 0.2126808821706208
Ni 0.6659398834939694 7.5818906576865475 7.096128622319029 0.43335172452525367 -0.5650968502817558 0.20280861736223135
Ni 5.325615940223135 4.164861941898876 7.430113957856522 0.31673908353481584 0.85471182390627 -0.04340562067914461
Ni 8.33378908051588 7.213958666080127 9.42921563919653 0.07090845408510368 -0.15744947250114175 -0.6731749714386213
Ni 4.791056152624672 0.3598586376786823 10.565936991265557 -0.83788421082597 0.2813553047188832 -0.7596002902124015
Ni 7.977038643356871 6.992536726350646 4.6157800806746 0.7840910762649141 0.3470829859339958 0.08471939182626699
Ni 7.364615399687362 6.1729604739711865 6.88808380542036 0.2042818594736482 -1.084676947078635 1.1396993260611017
Ni 2.4732964665358548 5.132903886447292 2.5409072972981983 -0.7519507440869437 0.08729178053913353 0.4343184593138972
Ni 2.599371888139266 5.063451494409967 11.255507528288067 -0.5501697966582783 0.3410745749563868 0.5366337098450564
Ni 1.0430081557424014 3.307132596044604 3.77751659883809 -0.5252653201071148 0.16168330807683123 -0.3558622747885226
Ni 3.496784434919049 2.4978415629787167 2.7898059831305178 0.12740304673772251 0.9468079678125823 -0.6247127621721758
Ni 1.2959557412904152 3.432130604709358 8.053692499691746 -1.325374883287472 0.055681609833020236 -0.22833658643000676
Ni 3.4901207717018066 2.6988379263249085 7.0592765728718225 -0.1362944356900814 0.6094715197423891 -0.5456755083323506
Ni 4.105730984736085 6.978403603684726 5.744869003270616 -0.14265560202141883 -0.002595785751634239 0.7611123559815538
Ni 0.9246466486241686 7.631533137876961 11.509097940043178 0.29717941623533334 -0.40435636573416817 -0.6301940970017211
P 0.20375598909159368 5.684448772137532 8.053666243410047 0.25324029165022194 -0.3186494131836512 0.10366996478684082
P 8.495011704034152 1.7605923345590289 8.059139320060622 0.41474130851291796 -0.125548510027487 0.022983091158734613
P 1.9195243238463737 3.178359115149429 10.169087779618982 -0.9798016491297834 1.0711388033828841 1.9336402985369021
P 4.076613673721609 6.0704704364451105 3.735060191331815 -0.20282095865740554 -0.24893986450265518 -0.24059329231017273
P 6.803156504183425 3.9578447415425395 10.301136958003287 0.8275195797621943 0.053440893427959574 0.292743749061483
P 6.389239804043882 7.9529462414260506 10.134555336851475 -0.48296990177301335 -1.5089925295435498 0.34957515622823027
P 2.330543779108855 8.446528121794564 5.893958508477167 0.13813611688451047 0.2386073722283955 -0.8994711303998315
P 6.928118297287216 3.942362589230738 1.4325563102987788 1.0690978616934554 0.5577730629268328 0.5641625113929445
Ni 5.2694093896081275 2.879490198299979 0.5847871490984323 -0.21522241764555192 -0.046158243723617286 -0.5170215920410838
Ni 1.3992787367186468 0.980137941910151 7.059687619488756 -0.5831868750142473 0.9757871286537517 -0.16792748921433015
Ni 6.809095856181403 0.7931099204274954 9.127549975651691 0.1846723127728368 -0.1018784201040568 0.4997113828974104
Ni 2.5788014495121243 1.5438784177547744 9.08949285341343 1.4833378050899229 -0.4118429039192004 0.7969401643134404
Ni 6.453676340887793 2.0382842021352023 2.6155122582715746 -0.6204760983830089 -0.5802707298087167 0.22809310296063295
Ni 4.1069170443576315 7.001934664420616 10.21334772206123 0.4403235278573965 -0.16538158286402485 0.19452092343214242
Ni 8.061692517108533 7.213786642165551 0.1738663812395764 0.2416739269688612 -0.31301561193664157 -0.4095271113018301
Ni 7.847368827327855 4.021285350459961 8.306593910399531 -0.30892832924114544 -0.701758696613585 -0.5296403092463589
Ni 3.180124623746389 8.582752954357934 12.393382345973773 0.8331883480121974 -0.9908982732635774 1.0055959844850682
Ni 0.25572079212877696 4.885316203921843 10.278370950992745 -0.4490375106916266 -0.39676081277509734 0.17078552748841555
Ni 8.538053898239008 2.2053284770783215 5.744431700371985 1.0580030373318747 0.9368156324865609 0.923089798260036
Ni 3.5596184331903364 2.519235905617773 11.579687500694751 -0.3120905290192109 1.2552922675377738 -1.0777344543225311
Ni 1.1123700088773192 3.301138920705182 12.428603789788609 -0.2236471513741374 0.48716131414654157 0.278291835302211
Ni 2.9701286935008224 8.446057319502042 8.15010918764428 1.3299401340606514 -0.9327116376205162 -0.8663062136120887
Ni 5.720302177491177 7.752013255311544 3.711617858720286 -0.6860975930375603 0.6389697863118222 -0.38464603178943435
Ni 3.040450259001267 8.07247570038535 3.396158593393558 0.24783943234962477 1.0455846090628638 1.4310497943194838
Ni 3.534050247150262 4.312123466665804 9.11619368112263 -0.2177510976046766 0.6111499358860765 -0.044662890125013406
Ni 7.115470448040492 6.028125391788798 11.34564262719152 0.8516408982904301 0.4388317738032185 0.6132793235242534
Ni 0.567005308665463 -0.08165160374780618 0.34377802322196294 -0.4307731651648001 0.7736572825260999 0.02702640799017281
Ni 4.68451902616095 0.5319269163164321 1.5923004335407251 0.04795415928177548 -1.2051480425832148 0.26238210605049006
Ni 5.855522028237816 5.5909039781693854 0.4618326034610319 0.1403837752681066 0.37498793987438 -0.4873628886343865
Ni 8.006807834468686 -0.17541912341587695 11.27398018054641 -0.21438912311097913 0.2602658310384356 0.5469178653798838
Ni -0.05810877295460335 4.8463301525448745 5.636167997039339 0.5291422865640177 -0.5948640542418593 0.3911869182317457
Ni 7.887341752741073 8.743269374437421 2.644730972856747 0.33759638659979924 0.03623095730757631 0.7381891715264771
P 8.464780764520057 1.542357364194317 3.6407105065212604 -0.2127248480346788 0.344688003339258 -0.12661063274341422
P 1.6909135952656824 3.125267102777264 1.5998278378869424 -0.0006936836329149343 0.7467478597297655 -0.3433021787353249
P 4.551571701864757 1.1891560520097089 7.957223299175814 0.693360959468193 -1.8455126523600345 1.6977824640291856
P 8.566546490826868 1.628858231555106 12.403969965221387 -0.22758428164501446 0.2964322536566637 0.9405378185331543
P 6.3759577470606 7.8187766419473474 1.3718653678474937 -1.4883717679694044 -0.4298295703046081 0.3991565667007836
P 1.8741100103984234 3.3725741147052473 5.830445468437818 -0.8454316841559246 0.46316058035657004 -0.11163112861544647
P 6.993831432655083 3.8467444543974443 6.118091182944749 0.20331383913342405 1.3332509436014395 -1.5452286290574484
P 2.5121919790104155 8.589199324209398 10.295041879093167 -0.0819135469463557 -0.37705330704384094 -0.5982198580879697
