# total energy = -340857.81874042697 ev
CRYSTAL
PRIMVEC
9.42277222534610 0.00000000000000 0.00000000000000

0.00000000000000 9.42277222534610 0.00000000000000

0.00000000000000 0.00000000000000 13.79117962020909

PRIMCOORD
 96 1
Ni 4.577742953116587 9.03798393609758 12.574121393516513 0.7969365647690146 1.941478049413766 1.4260721385992343
Ni 8.234296844132457 5.062177097995579 9.787269594672098 0.6286936011967946 0.7703253899393895 -0.4224636168578402
Ni 9.87515956068996 4.992401469378572 7.407987560515247 0.03207399771640928 -3.525225403371703 -1.530535802931964
Ni 7.4969931827692005 1.194505994398474 8.18667886449491 -0.7507631515367458 -0.9733330106863043 -0.789045334946396
Ni 4.782970933032644 0.9030615328186912 5.876104858857523 0.036483439638014585 1.6801549807554097 -0.11538416789997546
Ni 3.8085620531832647 2.9641497394919156 8.958598964325459 -1.0440262634368085 0.32389626340488736 -0.3080353851132308
Ni 5.896714346353959 4.107574885445718 2.64323084626946 -3.016653227649553 -0.5173586636655283 0.036527662612388705
Ni 7.267313108827332 3.5376950416742203 11.401113454038999 2.3348162096605596 -1.1540201135591481 -0.4253162558152868
Ni 3.081811896756003 8.349895414270668 0.316142489961692 -2.412306687838555 -0.49977103249075217 0.5497895305007241
Ni 9.591628343257721 9.163278538895735 7.592802988875191 -1.1835726304052843 -1.0656140169099133 -0.949151014123462
Ni 7.5745614440487685 8.302659056909821 6.336536375947708 -0.655887130892451 1.260035438649714 -0.9049858895704738
Ni 5.723712247581746 5.975271998721277 9.584097663664107 -0.24244860035135668 -1.1259848046884866 2.0202000860060174
Ni 2.700180197280326 1.597744110676149 4.669376586555048 0.8553157760388561 0.474399386495183 0.07823661231540076
Ni 7.446015984819436 7.22883992967227 10.739467115740112 1.61341762732886 -2.727764590668102 0.8654672626505611
Ni 6.053047560990659 3.0843654680396226 9.581628897330866 0.5376240987827837 -0.36652155427458166 -1.0156734233257283
Ni 7.122494521897585 7.6340945192145 8.490167513582897 0.13461936198050364 0.3053868917467902 -0.4597155592307631
Ni 3.9218708896612533 8.896208904609196 10.443315979414322 -0.9073932134603856 0.728093734963688 -1.3569770835737855
Ni 1.981250941832418 9.08738753107921 3.6006702555480943 0.8376412415772284 -0.5761873037679625 -0.8276015979530392
Ni 4.883257498241396 1.0201564391924682 3.0748258533992643 3.9997032085133046 4.512330785251751 2.5021991392253295
Ni 8.458426905210663 2.6170807686816246 3.5691020839082976 -0.6512928266535494 0.44704464863131393 0.06823862056242443
Ni 5.210811907692359 7.893701317867728 1.1364758514088946 -0.07264163472612652 -0.048569938488903446 0.5708946879104556
Ni 2.8235808228533603 6.6019428909296005 2.2855292192361527 0.3612073411505199 0.3052876471647646 -1.2965350762376444
Ni 8.909664623402591 6.511276976202683 5.257942730003844 0.7274116212949988 1.1943787198818527 0.1655412483703407
Ni 2.280659530529972 0.8793104930493425 12.813674648236898 1.632606798662801 0.2692652063235685 -1.5288707565247155
P 9.59662241255779 4.4461162473568345 5.1397660893741275 -0.9954468118662083 0.12892462558857148 -0.3088625090002165
P 6.566673454344395 6.64872695522176 5.218678980255808 0.10907390941123152 -0.6310333050735648 -0.6089333878507319
P 3.1769159372193987 1.1914812845016396 7.368792597004741 1.1343028376358788 1.8666905719892304 -1.7587836863029065
P 4.7462315439742095 5.592584948752 1.354969210118608 -0.33300208236089746 -0.9746571288143665 -1.7690992092963016
P 9.475445561239127 6.503013204926907 8.564722372292348 -1.0555568897842273 3.0985374640198704 2.557475800310447
P 6.896781435078979 0.8486798872498417 4.4426213411240125 0.2971534480934044 -0.38248399114110904 -0.22309307864288028
P 6.653815252244473 3.643051058361155 7.676736332819281 0.3811267057822662 -0.12291775727285928 -0.8086772502447105
P 5.301364749152107 7.377465316596785 11.5338115290052 1.5080905865545706 -0.8573587746108138 -2.541776387297319
Ni 4.736742812304078 0.9219466529907647 9.03878016035391 1.3237172930793912 -0.2671399324504496 -1.9381533559159072
Ni 2.8843577039579777 3.3071103815949803 2.2381157137567396 1.7499771437548701 -0.8271804512552206 -0.7920082742294619
Ni 7.9246080108945725 7.868891158495874 3.2510081378106728 -0.9702787972410128 -0.44906759259861373 0.5771049304862255
Ni 0.5055157132658689 1.8833012241452087 11.720033777264202 -0.7322594363056034 -0.24481272970815898 -1.1202404460055415
Ni 0.7243040047474542 4.021837080613018 12.770659692850451 -2.0690641586965723 0.245814431499796 -0.04300221459313885
Ni 6.500158104930829 2.7396993041567237 5.69789479385484 -0.28085908180875496 -0.9014295396777829 -0.9860692273060502
Ni 5.76813119603557 4.713572215306209 12.393195685547266 -1.7170783361443205 2.135988945543579 -0.6681618344947461
Ni 4.252911724850001 3.637453931636171 6.707230121379007 0.22345329019577645 -3.384772208318242 1.0207402963256744
Ni 2.2153691415107635 3.8147528145608973 5.429449434817716 0.0481737314917493 0.22933648844943086 0.39152373274587404
Ni 7.485591628329419 4.818532475558044 6.015105826191301 1.110553814845397 -0.6248225482771627 -0.005854659008564111
Ni 6.982792500307343 8.505201546730559 12.662206410920248 -0.6045532565051653 0.955544833464948 2.459905777773757
Ni 5.471360983572015 8.419331823086159 4.711976939961866 1.2650220932310277 0.3624242442767565 -1.3119935768845599
Ni 1.9306035409119036 3.9184221550125256 10.114134257193317 -1.0903297744890383 -1.7595712152012084 -0.20432119735201587
Ni 1.4373214128767517 4.707871438086318 3.237465729512447 -1.4032150314954026 -0.0354853373908034 0.549219516929867
Ni 7.735492971550436 5.083180457372662 3.5293832142598967 1.490916645878445 1.1783350361554288 0.9701854661962581
Ni 4.185727358605671 0.8355379467728479 0.9633484297655661 -0.16299354224782253 1.1743840219274806 -1.1542286300255282
Ni 2.9795842404608095 7.372631434425209 11.592755680904416 -1.5045879727179508 -1.1650342052814644 0.44154865851374925
Ni 3.5113866615123452 8.269792427252007 5.867692207779971 -1.4599425660944338 -0.1385382374189356 0.5763803936153751
Ni 1.6853382016449125 2.8429540426287234 7.860696173457628 0.25496087388575445 -0.8545709274530314 -0.8467905121766641
Ni 8.913358350130189 2.936465634579456 8.75226852005448 -0.1776352034203973 0.8626845576991014 -0.08697604907092762
Ni 8.544145864498836 0.8924128578828263 -0.08110085860144696 0.2254525800139924 -0.08847423088300892 -0.31471742511909667
Ni 3.0215626908981847 3.4638864665281006 12.166398979918268 1.9376622752121015 0.4850833485715904 -2.8391288387754074
Ni 4.9501591813177965 6.463145455476731 3.1978571062995385 1.3190450844147026 1.0573006119482113 1.7515380604840867
Ni 0.8881075932352759 7.078198069483196 3.383058868322318 -1.4787098193996082 -0.20250162764477384 -0.13613656995597845
P 8.520796234827944 9.2146514932806 10.762732882737852 3.1204144665986195 -1.7871522101432704 1.1041751650125629
P 1.216102988428208 2.3256909591809745 3.1813352174113465 -0.5958364454574577 -0.9043940216227455 0.1744166964830996
P 1.126153204393374 8.186476274891227 5.437793299657738 -0.2927936284628119 -0.04853497148590996 -0.1085576318964453
P 7.859619150587821 1.7566497421409972 10.350404618056823 -0.20906771089806575 0.9562485444001918 -0.39676286965762636
P 8.279554419317803 5.295004377873717 12.088092915570407 0.564769291739008 0.9958301633475559 -0.1340948569356013
P 3.8958828837563635 8.897697702626953 2.771158171638255 -1.852611725298661 -5.892325926987266 -1.1634511770650608
P 9.491087363197835 1.722708916445054 6.737846593020111 -0.18271030395045953 -0.198557041174729 0.7569649094720834
P 7.648869426124894 4.016503791511435 1.6175536048073487 2.674324468571091 0.08892751637034363 -0.4114279278689688
Ni 4.774660047895548 3.3163823895030333 0.20422257011545855 -1.9587900583296527 0.034564368238430794 1.0988730360733592
Ni 8.540046958563874 7.428009067022393 13.678381728831056 1.270780850091676 -1.1026443301903333 1.0304711504601929
Ni 9.75680954105058 0.8030161905799057 4.579788636975163 -1.3974094805572193 0.3378311283184246 2.412658671861335
Ni 7.131022130796759 6.372686841739625 1.3474573760695225 -1.308845003953249 -0.7474400007007838 0.8273617140280912
Ni 4.968731465450696 4.881391789333068 5.030470411603496 1.0891426961594728 0.6476220626701815 -1.1593212140570872
Ni 4.268431030769273 7.392551174991901 8.508592802468474 0.0832219813451341 1.3127517952068228 -1.4947000241802773
Ni 0.31076397155323987 2.9959892869729243 1.2608941363864714 -1.4266444661629365 1.1597691002277832 0.38392869400743557
Ni 6.9464111765949506 3.161735851101641 13.579609403125176 1.9307058984989267 -1.2205116695234786 1.0160063811851148
Ni 2.507475081703499 5.2753955887917465 -0.057057712891905525 -0.23927791593285888 0.4758399755964515 1.1236600132100518
Ni 0.801634812165962 8.403614638949337 12.456524253381051 0.40093525586776113 0.6200171564687192 0.22152959081050233
Ni 6.460959372311417 -0.19746832695642136 10.68853703165167 -2.423992865927232 2.2196030201208097 -2.6941157922654053
Ni 1.4104005525176986 1.0175934451365836 1.1018141836347342 1.1367240454828618 -0.8216278968681074 0.7446351842621369
Ni 1.4206902198302942 5.695924492174379 11.351974638957996 -1.151252835226656 1.0726624391162625 0.3616842807869384
Ni 5.24373507398376 1.7198443936767125 11.409746597987533 -0.27537748986889343 0.8172968735929215 1.005347873030004
Ni 2.8467702653957576 5.997745310571588 4.684766800494299 0.1258254178379575 1.2122831109660992 0.7041318248314519
Ni 1.1878912082689483 8.015792178096026 10.161341403960142 -1.2304078455912681 -0.8932552313971067 -0.7813230266014738
Ni 4.333137207908096 6.559653489007505 13.1523724281676 1.0015673229416493 -1.1898769753567573 1.7445618862765695
Ni 6.89755410240465 0.005320097220413499 1.3953090404592248 0.5118130512569509 -0.04855528320088412 0.7128735755798239
Ni 9.138317615167653 9.715255115365098 2.4362803835834916 -0.6779016874903292 -0.11043222321133885 -0.7098697557564936
Ni 9.377561802957768 5.554875014150345 1.40012219253182 0.7324167878190742 0.17882331019122752 -0.1513310183082297
Ni 2.091704678314329 9.457259610769063 8.61315730628521 1.1237430598421614 -0.11934392387867189 1.4212760027621716
Ni 1.6991425630120855 6.931447814239271 7.117131079924755 0.9151895695763529 0.9350693392194154 0.07389453329662113
Ni 5.7129608644282 5.644184049671208 7.300512362346075 -0.17283598225954103 0.8401277554445079 0.0152767236534124
Ni 2.796867263484121 5.8957249552662105 9.288980205455708 -0.38972858851866427 -0.2779388228381665 -0.24873674735291354
P 2.2224267979367105 2.913417533621023 0.08463157136887332 -0.2507897732272003 -1.479939578041651 2.5151695833430683
P 4.460712121594208 2.967296945428186 4.032223802479936 -0.6049651472316032 0.30202028926740243 1.1389632192260255
P 4.445296466169842 4.298075072312703 10.462554453546305 -0.30080955678875293 0.9223608905138114 1.3405117389289107
P 3.5271038456491675 5.509758780548964 6.977040840117225 -1.3725525694145393 2.2512463580577036 0.09867045468972038
P 6.0318086323069675 1.1589161835562818 13.594200565976415 -0.04763534248977602 -0.027104055305643644 -0.7664692494180929
P 2.504601136162893 1.608043200761009 10.312851101474754 -0.25983182882481054 -0.3074309187600125 0.6310135075792229
P 5.402508786636908 8.863596689802517 7.318578643608383 1.2308163938835965 -0.6886373287402785 0.5276991263595879
P 1.3355366268779796 7.221084988098765 0.6350194684344784 -1.2250576370229482 -1.0161171957313662 -0.14708561276831444
