# total energy = -340868.83161768934 ev
CRYSTAL
PRIMVEC
9.25333498192875 0.00000000000000 0.00000000000000

0.00000000000000 9.25333498192875 0.00000000000000

0.00000000000000 0.00000000000000 13.54319108748408

PRIMCOORD
 96 1
Ni 4.318253850954946 3.4108995794931225 0.011748959467198436 -4.197848616071912 -1.374911299454703 0.53930791424311
Ni 7.636610826973663 1.2588699619713408 6.367777799192814 0.5053230726572331 -0.8183821362373002 0.24164847304756448
Ni 3.26914774041459 5.273734717824266 8.496916516557114 -0.24702953485381973 0.31186555749259837 1.3644121996955922
Ni 6.27998863391507 7.070399257470732 8.3924852282568 0.06055744986808281 1.3962296013165052 -0.7601481922960714
Ni 0.9599872410211089 4.281092457538967 9.732854863696911 -0.09730674157297435 0.13998551138842344 -0.8521327503251841
Ni 8.121300515003792 0.9758382038999864 3.4911639327375315 -1.3284964596355895 2.045948398614715 0.746118967896515
Ni 6.761171307974917 3.138194543297324 4.209819569927602 3.3813667821811184 1.357382032321688 1.4679746923702912
Ni 7.221274884873009 5.766530327326605 10.592021467740146 -0.9453313832670558 -0.31282277919954515 -0.15999537885144705
Ni 3.1755317500785685 5.8245950045390735 3.8396981987055576 -0.6801233777319964 0.5376395254017515 1.5975721756561712
Ni 0.17495465577554878 6.440025062981147 11.512186056195265 0.4225500059240594 -1.257164544859822 -0.023993020480487712
Ni 2.2729521994839375 1.380967717480267 4.946460914384267 -0.1055916072895859 -2.170510633469533 -0.38152676943416225
Ni 3.308224574178454 3.290060277546092 4.358280076891241 0.8737097051650115 1.120898905525147 0.028275707016241627
Ni 5.862690984791461 2.8963216193679706 6.270552082867855 0.6277955148625575 1.6523418151978835 2.9258981711521677
Ni 3.1222880604083625 9.190699189229717 13.573663462604141 0.7917087407111719 -0.5402450813453986 -0.7305835912650772
Ni 5.977950525725086 4.975305410289717 7.779885764995491 -0.30034470133719243 -1.7405687059567767 -0.01661961083455202
Ni 1.4504325034299075 8.431870198076629 9.746560903519558 0.5878148607045619 1.6275463534207582 1.1919166314946052
Ni 1.3551786727964186 2.5896475903360026 0.34622185754804286 1.0051426989977335 -0.6766978969902152 0.6020523444601824
Ni 8.428853610862085 1.937241205178228 12.514220451519714 1.4193067948509428 0.990113572578753 -0.23402026707834533
Ni 7.634214213205053 2.9446702948158023 8.759289278876349 -0.8642202776173376 0.9624536447696391 0.23852432559628595
Ni 8.364903812580753 5.9544470547896795 5.846283896478244 -0.7462331248768761 -0.7642637571263419 0.7740822858786603
Ni 0.9834722052864863 7.712793534143424 -0.09281927819132142 1.1460216687347036 -0.6847503349810465 1.0967508475240337
Ni 5.49009619712019 2.190144104444197 2.8730115431343566 -1.9850947576624522 -0.8617206511239353 -2.0251607724454024
Ni 8.405322379921639 7.706917666409573 9.674659714460747 -0.1979759718602784 0.7565311643687745 -0.961395378708454
Ni 7.386502434881905 8.487047834764748 4.8666240652175015 -0.22445036400172313 -1.3655244589231643 0.5700279690347859
P 8.648361224062748 3.245884856189547 3.218810523272263 0.6283958674507178 -0.08564421763338154 -0.6774882541019945
P 5.282571652762578 5.063443426297487 0.5195358970256203 1.3324114784192793 3.649082127519064 0.8617067671668643
P 5.888489282810323 1.288156767290458 5.108031546395654 0.06501034343311385 -2.450390382084154 -2.497726448165956
P 5.439693281299264 1.0496798173112203 0.6792503100332113 0.2392223801045751 1.373441399777396 0.15805213908214716
P 8.568782542942872 3.9979126461073893 11.123645921627975 0.09646856194239514 0.10251991034279764 0.8189045843996735
P 3.0113128135861915 2.876806335823573 2.216438381219806 0.1461355901502193 0.6191036435155144 0.08914220348431098
P 7.525552300136367 7.670441019784625 11.82858256432638 -4.330682089796587 -2.9694408316298087 -0.24287720324834303
P 1.3409377902099664 6.53815668080397 9.152285819586352 -1.3341729411950762 -3.0888163800773643 -1.658547429787963
Ni 8.545066245302145 6.398227748723184 1.0994331490141678 0.661857489543273 0.7396598425347325 0.4262253978931176
Ni 7.201861388013764 5.7110103172429705 13.01871782848068 -1.5975924873711453 0.062359021853195834 -0.9865415389567783
Ni 5.198153477430412 4.86948427107031 5.437388275547292 -0.5919584505592902 1.489018657524784 1.8814903560062242
Ni 2.5647746258185338 8.098222697479027 4.798826730237374 -1.6886036257433952 -2.4581803104422177 0.6522801302674831
Ni 3.843233898014384 6.550870763113123 6.544354564596307 0.09947778108236416 0.4329467757773511 -0.7395032623522102
Ni 8.306820628698256 5.558663409573478 8.484348636941181 0.8854203087337204 -0.30194161351066706 -0.5628355650514049
Ni 0.215923796549764 1.8011246471231843 7.8046023481512234 0.8711465724235257 0.20175626483831702 -0.1568987422039943
Ni 3.9018907886677434 7.642514454712557 8.677772949404552 -0.578753521833242 0.2748660974501137 0.19520483687304443
Ni 5.358486013216934 0.2716492306707079 8.012233305861495 0.5699305242249734 -0.029193590844820694 -0.2551606486013863
Ni 2.1574890851800057 0.2189959037743918 7.654476240885076 0.6371008514238834 0.685555090270529 -0.7005171108970001
Ni 1.9264148032119193 4.442128246786548 11.880751016467967 -1.079942003496811 1.0322318419050416 1.4417029031579558
Ni 2.6410035996633643 2.989761796338728 8.277151660643064 -2.0473753608692284 -1.1342226192172464 0.3844562843761314
Ni 3.849146779088291 3.632859326472479 10.456643325819213 -1.0181172568805306 -0.5051844901968396 0.9296401977840442
Ni 7.8139972591908755 2.036594263222892 1.441361459115743 1.1022283256988372 -0.7637096843950847 -0.10251605368805572
Ni 5.9589811889465105 8.438911986022237 10.247983397255393 -0.19136617985324464 0.6549543346655365 0.0461754701147979
Ni 8.919409913291052 4.042291640834241 13.528185171677633 0.0009680203402241392 0.8662211100974502 -1.695230129920977
Ni 3.629195005806959 0.5439674774629236 9.80105842008415 0.09611092149266029 0.7671508488661498 0.8850192166405596
Ni 1.1995560845319915 1.640468244611174 2.8057018589094627 -0.06410762911318636 0.8888043947146047 -1.1237417742905806
Ni 4.26388125441304 0.09534543865012678 4.286935013266768 1.6353668779064416 3.0437225730625195 0.05006606341845571
Ni 3.602785987677177 0.8497911250071113 2.092125377308543 0.6496360077764166 0.4633819523387568 0.1955341951880052
Ni 7.364109364148172 4.430320991308762 1.5894425793438098 -1.2566531524410423 -0.08719896371501111 1.7472157789596487
Ni 8.540902244545874 1.0574248587178872 9.934282385613837 -0.32573794459931643 -0.48650516861978155 0.416236919221838
Ni 2.6854381144002994 6.439368076195157 10.802428425954599 0.7425873005941727 -0.41658633214145674 0.01797869596560775
Ni 0.9780497509683179 4.6578049792914396 7.118815482264165 0.19624536232241685 0.09463742227092735 -0.07501913381936758
P 1.4800986954845963 1.4434092221543275 9.565908044042425 0.22551917158586965 0.029719895661935912 -0.10231859296526895
P 3.885530892363099 7.709064440132806 2.7511099583277265 -1.4324844698834813 0.20902554480622063 -1.8372812655891777
P 8.268946728486204 8.046589088101248 2.746437024145687 -0.9146462954783732 -0.9160979403232353 -0.26036918938551934
P 3.8478050455112696 4.078065033998129 6.813552586821822 -0.553234551626531 -0.4536819514421735 -0.3890575305935687
P 7.8411557974567865 3.5551775790304605 6.646659436510418 1.8699939253308504 1.167200359694848 0.6552248147181038
P 0.4652438044983355 0.5966374603622647 0.478898025644904 0.20556638261302662 -0.12617251676473107 0.14064654201119003
P 6.276389086594648 6.68311942713234 6.041116566530738 0.45727583944101896 0.06999545535253106 0.8625128080079274
P 7.605436341311703 8.832576617520246 7.860089046228808 -0.05453309805087382 -0.11156119460945947 0.6677422304588242
Ni 4.870122751186272 2.6662929642564595 8.533049864453044 1.9265512529006044 -0.08661326641487019 0.9197190820155902
Ni 0.8382170535716762 6.552434576730478 2.802329943630383 0.7480190131327054 0.6364791586794845 1.1363903162925268
Ni 1.7403765027566742 0.49833373050818164 11.855736475924784 0.8509073625585152 2.5568741621707063 -1.1263090207971247
Ni 7.795388802477844 8.722517450864455 0.6268560765172857 0.5473022453024962 0.14028530201702935 0.41249467857058636
Ni 6.801228995250258 0.5004684748958974 12.076382249332163 -0.8449843122058608 -0.06731328053467762 0.14047684920254516
Ni 0.5136239412852146 7.727478576810546 7.122648213626939 -0.592232015935651 -0.46459936968562565 0.7914295189078563
Ni 3.9289567935835152 1.8799630614419454 6.48137821715844 -1.1519452333079905 -1.7454368326823553 -0.21632362112953066
Ni 9.017578544453931 8.834963977953844 11.964908247752739 1.252703680874991 2.3841507942296296 -0.8175547552399983
Ni 7.922168745503823 5.541498473122621 3.476496471406936 0.11486120551696993 0.2668972203120242 0.7330950448330213
Ni 5.457626244556278 8.281096357359507 0.18673044991428767 -0.7111779330449558 -0.7079661109758776 -0.8238156485480457
Ni 5.244744019225596 7.323459463431938 4.201341664387831 1.5276314848009755 -1.9613238804950996 1.39388424101278
Ni 5.4478824827866 4.821237382307632 3.475141783160896 -0.23254548230503178 0.6451142086466631 -5.533896919912831
Ni 4.731618832697632 1.6173904270864101 12.055119010803631 -0.8180633194453008 -0.0785266327519938 0.02621008273646454
Ni 3.0796209326590898 6.343688592151027 13.377720392349977 0.1779859018915967 0.584656003360606 -1.176734267327212
Ni 6.128252446356497 9.099590852682471 2.5386302530701506 -0.03537323729297133 0.1250808263624491 -0.1725955841139608
Ni 6.41701201880148 3.4230584617014386 11.02127257503476 0.11203222070860706 0.09233319961778293 0.1557998527128607
Ni 5.079192602491211 6.71595951309681 11.810190635652676 -0.0187274012061742 -0.32381141700056487 -0.16160617498199267
Ni 0.49310096955779914 2.5725936939053122 5.553141944570661 -1.5345081573161508 1.3665359309068144 -0.5716405649375446
Ni 3.288894357334336 5.065460653330526 1.7219901260839774 0.8233510502068013 -1.1792647470585498 -0.2713020342479392
Ni 0.5758146805803976 8.928348634914517 3.977783866451568 0.7174269992784612 -1.7703585356246996 -0.6869571128243782
Ni 6.214391742001256 6.832958681013055 1.9368525651076425 -0.22076443050970365 -1.6415930613218115 -0.048886698398373875
Ni 1.3485255249213965 4.266065041476329 2.9360961545918864 -0.5797539380732983 -0.9148095605291149 0.2430476673879362
Ni 6.42368367334653 3.1410538238166312 13.590998660419256 1.39289668028853 -1.2329537519415732 -1.8535949151475368
Ni 1.9334103244824572 8.558048674326702 2.009605986321237 -0.027805709358358563 -0.17882253886027913 0.38510574503467226
P 1.2296016633222515 5.369969401969232 0.6483599017561785 0.6381436908661009 0.8632430013057326 0.30395684416848295
P 3.909237936668811 8.7770473541016 6.378152638410443 -0.031716100156358285 -0.012291929993475604 1.487927224232818
P 0.6031212722065318 0.31130809920694935 5.906984848836184 -0.3404513395500911 1.3629991213981496 2.1319181179083158
P 5.159280217036854 5.192074036326254 9.942476213768682 0.5551801053886761 0.9789359586953785 -0.1661338876490171
P 3.392929602896053 8.315685323641612 11.52616321873382 0.9617229372512016 -0.28141366876064433 0.19896841768053475
P 1.1848432818598282 6.241504013592097 5.595274229556128 1.5928796552765083 0.11942131408382659 -1.4209350744829852
P 5.936699158232945 1.4850307230470254 10.175812010814173 -0.0586085536718281 -0.7004343213752066 -0.824701907807741
P 2.7900840800729365 2.6358494920605997 12.292058056503551 0.003695703684032345 -1.639672961480963 -1.2859501016329467
