# total energy = -340857.1855369667 ev
CRYSTAL
PRIMVEC
9.37699325971675 0.00000000000000 0.00000000000000
0.00000000000000 9.37699325971675 0.00000000000000
0.00000000000000 0.00000000000000 13.72417747660146
PRIMCOORD
 96 1
Ni 0.8508524169970471 1.7182214697179132 10.15914408301544 -0.5010756102347886 0.35688248852292087 -0.5874780461904334
Ni 0.2600343345752214 4.699373884040589 12.472285131956356 -1.8796221924492338 -0.325833075416284 -0.49198470367711394
Ni 2.5322101135680035 6.205225213033481 2.214382557148446 -1.1147740235743315 2.3779433798673373 0.032144960163660766
Ni 1.0571434530668207 0.07916995311468332 5.575185981388301 1.954904093011685 0.3064955514299367 0.3431296577132026
Ni 1.7414951667012892 5.839241170623664 0.12218503376409545 -0.1038939078721888 -0.336056295806189 -0.07320367787718361
Ni 3.626120756752398 0.9189959638737161 8.922046754522361 0.9333140470912056 2.2735823025507425 3.979944023608507
Ni 4.253835431797184 3.2231444763895514 1.0065161293831197 -0.20012104322773921 0.8685698128352847 -2.6288195421607568
Ni 3.624639191835648 5.966927686265337 8.41389530595861 -1.0502573319481847 1.189718852512338 0.5163297081803818
Ni 5.784432645697058 6.485906748812448 10.504169608049128 0.6076241821210051 0.6231269057422945 0.42784082200935347
Ni 3.837937654881923 3.483937409710121 8.142719228129703 -1.1434950456581081 -0.8518239608355137 -1.6721961309196491
Ni 9.091716881567606 9.076160449941732 11.939307156344587 -1.1809837866321855 2.3980933724526508 0.4914913089804632
Ni 4.062807327467878 5.199261388546542 11.532906398085556 -0.036635391834846584 -0.6978727312956174 -0.2811439600390255
Ni 0.07618525619695221 0.05507952002846598 0.5203893623159672 0.4876377395623279 0.2805029840209169 0.6094200976791633
Ni 7.944301115503621 6.708357157167255 9.13175195379586 0.20056584407464167 0.43880323455812814 1.184161670139535
Ni 5.957944526833397 6.266081898537957 8.095178810589003 0.41666140835376625 1.5842188942777167 -0.47603049434070277
Ni 8.845308255729913 8.966777824917122 9.121884543910442 -0.17257578661961892 0.937211839483715 0.2746300701799077
Ni 6.3609114302031 9.36053652101943 0.47620403292218544 1.9970555295687542 -2.4841050007277796 1.977494576717691
Ni 2.9704345111590977 0.5463204991563492 7.028370490688674 -2.4132351131900958 0.7633888107205563 -3.613538426086499
Ni 6.453762416314859 2.9929111637252355 6.853483942357429 -1.3140687142460337 -3.0880422209155007 -0.04929010448437963
Ni 9.008936786092487 4.5868218353333114 5.35676580468678 0.6452520197761081 0.47491823511313047 0.6329315505375422
Ni 7.934483403681867 1.3711226915000856 2.6542554301342536 -1.7681661559590707 0.1981667477148458 -2.2720524961697772
Ni 3.555952717055942 7.055755999165689 5.729020242411981 -0.49028289049465884 0.20161973926045276 0.43698623595404745
Ni 1.7595271245171764 4.6314094377329695 10.850019370780178 1.6389188569237583 -0.723734686664044 0.025154644888756676
Ni 5.725329457910508 5.008880296744171 4.24269181314487 1.2440274932572317 0.06519906240515223 1.6589212681876142
P 8.71303639044083 1.6195098628911606 5.136726221269292 -0.5036803948474874 0.6031376071045613 -2.6266965822804824
P 4.072765694186793 0.6630706276941897 11.399095768221544 0.330337905265173 0.3178824531106396 -0.4622208421511201
P 8.071640682398966 8.339485114563816 1.9523462345369837 -2.1408519300628353 1.5477765922902829 0.39622962286197566
P 7.3182930532110415 1.202683763654645 8.37767666993996 -0.4289250562124678 0.232286057996058 1.018086146532279
P 8.121713825787857 2.9008853530101457 11.464697212256878 -0.06778096419971552 -0.34576246735035937 0.2502966356408657
P 4.322709446439769 2.1901280266822094 6.392323419536142 0.5562771951075968 -0.6958418169085178 -0.8612246853241233
P 2.9111250295233795 4.2173026665082105 4.344209954019618 -0.7705418768255697 -0.15028200821842505 0.3245467525046926
P 2.3416602358890413 0.8447479944603115 3.817339214042527 0.8193820382567243 -0.24461835430916584 -0.5218192705400433
Ni 6.3967315440131305 8.90769339111686 7.351739850056329 -0.4893272114496089 -1.3573609492757654 3.4145928912241
Ni 1.9622014543313142 9.306918874222111 10.916951410142644 0.7792710291684515 -1.0284507775960547 -0.6397796838076273
Ni 6.286608136530146 2.6402330745867353 9.905658640451977 0.4752231679480591 -0.3530934537941338 0.3634184898692257
Ni 0.39040267025607445 7.470115949205336 10.735188712738912 0.6036682827970508 -2.0155872698243544 -0.8806043754023156
Ni 6.618356776971266 8.90503970205711 10.25080794179517 0.08660272489190891 0.33665561995308474 -0.14748336242736537
Ni 3.9608043960475863 2.6329002659481375 2.9821266839103355 -0.6073871264095346 -2.04376707469268 3.989330607029729
Ni 5.245686881602422 0.011127677763969522 2.471353428063527 -0.2856210219737726 0.4334419702462148 1.784916893054849
Ni 2.301479820267056 1.77148279077576 1.3157834287615313 -1.2805914084241945 -0.9545870975373689 0.8311967715034653
Ni 2.167520096212056 8.038708682477285 8.41765548020935 -2.9603512106237146 0.024970811012724737 0.024388456146693483
Ni 0.644148793228938 2.3260662962905907 12.83169402677361 -2.016223617856773 0.5689043969533042 -0.09412937228625724
Ni 7.267029031692863 4.380012251542675 8.498738339925406 0.5112965166318485 0.433416259214602 0.4896735390454341
Ni 8.88876124195915 6.911500336638592 13.197031994355807 1.6213440812647884 0.6635703584693217 1.2891228429339734
Ni 7.680441905424968 3.2204063943915067 3.8812518616126286 0.3214604002698851 0.7357185984987974 1.2354045274749113
Ni 4.856485404168093 -0.11587150428024892 5.842025199888114 -2.1603411491356987 0.4076790023494979 -1.5360076246798127
Ni 4.06483275798698 8.231987265161147 9.846274142871106 1.1676096793181245 -0.9474576855814393 2.195731355709534
Ni 7.254473237873064 3.4519337321096932 13.578413059508051 -0.1882075796196049 -3.3810798470683188 0.20771351086301648
Ni 9.01202181683686 7.220462883739823 4.173687458297583 -0.12356079017349689 -1.5095687137619938 0.11214123548264558
Ni 0.6033954433258557 4.97185992781171 3.041044207232636 -0.5684192297867695 1.2587676276808837 1.4474709159899846
Ni 5.857629454179023 1.5060576228420604 4.343537623611194 0.4082207337855808 0.5120786462135116 0.4370307160387376
Ni 8.576638648168393 4.8139701172532545 0.8858642339980662 1.0573132103537017 1.2694857854293362 1.777217724638378
Ni 7.701118175307459 7.13397887597283 6.247313846760267 0.4119488333694454 -1.093016577292582 0.2622553506646386
Ni 6.360105008792716 4.873551531690149 12.245067460287146 -0.28739842558916956 1.4467713188197986 -1.3343976556113728
Ni 4.613152432081627 2.9204926456742224 12.503178573568537 0.39428046955540486 -0.7840306553406239 -0.16189156743289537
Ni 4.141461545959642 4.950405367498268 2.661309742076475 1.162734096393378 -0.09418053723916683 0.22359161554585363
P 6.835030957549376 9.027231299716407 5.25460346438304 0.7400776467984416 -0.7071400155301563 -1.5247256240080904
P 0.14135817164560593 2.491860912069427 1.488785201470836 0.0048904953230819 0.36118677232522955 -0.12224104292080881
P 6.375745833356887 5.513746984609583 0.6541859266902619 0.6278394807266156 1.4163284289489093 -1.2801975154198855
P 1.8089907633517086 6.326441603405803 9.629885022884574 -0.11862812875856989 -0.5261598068969261 0.056885657443450414
P 1.3305296881797652 3.6606280915222706 7.853687479956016 0.5462270099604464 -0.568334126272131 0.9502169934941311
P 5.072578211171276 4.661931550416648 9.411944948232025 1.2478188419788638 -0.471304292509627 1.4742857221899834
P 5.870672851642308 1.866931203988405 1.2634260498427645 1.0708045599719171 0.7814340982580413 0.6415352330461532
P 2.4634579998362898 3.602012507379207 12.947484888912822 0.6551739068755104 0.971546865320159 0.23434756851077707
Ni 9.158809267512835 2.4354207903357685 6.998465384153871 -0.6318799693445762 0.42284336879476214 1.5084392281432408
Ni 6.838256643190908 1.2291268843206886 12.535869584766418 0.5223640872999198 1.2008072491160158 -2.509821174546962
Ni 4.317055119573945 5.549642114364765 0.2029912721824045 -1.0216278411369502 -1.3088357479818684 -1.5541560134540655
Ni 0.0014412438462308213 0.03461704558965727 3.5871293438610707 0.6041956160554305 0.24688863840058128 -1.0725187144495465
Ni 2.931201171844656 8.933161304495927 1.7799849104594132 -0.6796685495827649 -0.8625590878648307 0.517627858166515
Ni 8.507999058354407 0.13931867563678874 6.7185612011065405 -0.267152787966256 -0.6215683030059231 0.5752797043520286
Ni 1.0523799405496752 2.585874645331042 3.8219911403412588 -1.1348265713498327 0.12401587543304449 -0.8999347002998115
Ni 9.248997187571701 3.890326915577379 9.731937652368527 -0.5187686566391776 -0.8332397700754229 0.34112856812277376
Ni 3.8477459897105337 2.9661586022854403 10.383383621662118 -0.5162366342459432 -0.5060980031500445 -0.0024047527867506967
Ni 4.714780283776159 7.369810253544107 1.3305071833962199 1.1710845252406026 0.5467484296815551 1.263261144675863
Ni 6.827463724082179 7.890524059822856 12.581502721901632 0.25162820996809565 -0.2764370414816594 -1.3025167477423762
Ni 2.393871333714762 1.019785512381176 12.92165596129771 -0.638415713580565 -0.9812185840819682 -1.8564149010948352
Ni 1.9176982448699513 8.059722524112958 3.7008066317456265 0.982639632799211 -0.8648406848101557 1.2449831723022817
Ni 0.2689799860345852 5.461639033708447 8.075415859838737 0.41294539295475974 1.89247462293187 -1.2210665135856842
Ni 4.209135305479797 0.7243070814209976 0.27684822098170475 1.8402282640326437 0.24431573546708246 0.07896886249573498
Ni 4.579470272708425 8.01376588071428 12.740208330863613 -0.8572875550532462 0.3030034791162782 -0.7467085218513978
Ni 6.277052980516422 4.0787857237852325 2.1219497849309077 0.3097917056827052 -1.6710607317636252 0.39464222377019775
Ni 2.0435937548211225 2.504669884704114 5.938877348974413 1.249262516403926 0.5637711894917968 0.4090059486910375
Ni 6.516288206598966 7.2928814017908365 3.6521269095379316 0.0862196305208773 0.6371581870243801 -0.25609061661482346
Ni 2.5897192125200763 6.954325064327181 11.888637636191739 -0.678169339329419 0.4542990162008822 -0.2993473704209296
Ni 4.786195463560765 5.1680641323564975 6.558454669368848 0.5678458737818027 -1.2501222933010598 -1.955420370526471
Ni 2.053392712656589 3.8582857300043756 1.9320619229679108 0.6659889952131434 0.8298711107135063 -1.578050817793792
Ni 2.4071866639792234 4.955815892542348 6.544442628513787 -0.5502646703649298 0.3502444143811129 -1.2361012964316194
Ni 0.3589072256840505 7.190015787001297 1.7708442175426544 1.524001344247556 -0.5893199844951786 -0.22020932933718204
P 7.971653804504633 6.399122677264847 11.453553593604564 -1.4172403992402172 -0.5789664091749964 -1.97659211950808
P 4.0641763684669 8.32893599727683 7.730829178084183 3.8634283132072493 -1.786605336500865 -1.1259997170868221
P 2.0749316659083274 8.255176569206226 13.64810381025348 -0.735485656552385 -0.4602030403901429 -0.32338821342021723
P 1.0602472377974805 0.5988419754551355 8.015179931280391 -0.6442539175288969 0.7840607372476109 0.7010778684964765
P 4.165513533373969 7.256479914405878 3.5916996903194502 0.18794198466304407 -0.03905711390246176 -0.4513725865827065
P 7.927535051762172 5.39753790857615 3.049196565072018 -1.0018979668081909 0.13060921237984605 1.1906539627320978
P 0.7661884835993018 7.347183569087666 6.158546541162713 -0.27264980652508525 -0.8575724332835165 -0.4862040924395949
P 7.09421104804918 4.810153681043653 6.312311412437128 -0.03247997490557632 2.8742043423223014 -0.8338012990058479
