# total energy = -381172.4603862059 ev
CRYSTAL
PRIMVEC
9.25123685901863 0.00000000000000 0.00000000000000
0.00000000000000 9.25123685901863 0.00000000000000
0.00000000000000 0.00000000000000 13.54012027252008
PRIMCOORD
 96 1
Ni 3.935966461463196 4.530857994342102 11.452017255413077 -1.7482203089647634 -0.011774366927108754 1.111574028579795
Ni 8.687050148455558 8.902807493718713 10.714608568977532 -0.04431553408792368 0.9431086645841241 1.7111884530224466
Ni 8.842831725373758 8.364413264138069 6.370965078918376 -0.12146405554546823 -0.576774029509368 0.5610023684974079
Ni 8.728495689437418 5.843765771021247 4.88580389815179 -1.3792155832570119 1.4203722600009796 1.0541476681415265
Ni 6.145134061875055 1.1590689594944703 0.2674347541749102 1.0026849814858603 -0.8360391871974311 1.1915880445105929
Ni 5.5707617722769 5.02942564938549 10.06626709021095 0.7362346189032675 0.6260322523145476 -1.525621139239166
Ni 8.953615286368796 2.324946829293103 1.0065105134865564 -0.038219448492514824 1.8921642907803025 -1.23601824979951
Ni 5.0869498399714725 5.264758611773112 2.342494575305244 2.4501317291061286 -0.18051201074756007 -0.9725727354815122
Ni 6.278462887015805 8.79235697724942 5.94271792523912 0.04687146774055798 -0.7547043955726809 1.0329376097228147
Ni 0.2008452766228282 2.5282705122616993 5.413813614394902 -0.02107507550274435 0.12055619901921819 0.25684549250297706
Ni 2.0044469806824905 8.416590239838445 7.419972073890261 -0.42793003928905005 2.4446825330660995 -1.8592919655323141
Ni 5.873027433102859 5.114046712635728 12.467702220460282 0.23802218914888684 2.003573276082614 1.385272330974053
Ni 6.490177441785863 8.290921438789878 1.8309224566551152 0.7395161178680167 -0.03663384917294981 0.960745918049913
Ni 4.9984062523068795 0.618102886076113 11.839088079102119 -0.22154321765725718 -1.334750153854785 -0.1904696361809042
Ni 7.91295290701424 4.623768165788713 11.201795352477195 -0.6320949135688598 0.6065952266358586 0.04902888040319298
Ni 4.585847346037677 3.3993854743005083 4.021713400235196 0.18090204709712715 1.1068858790755065 -2.626927467344366
Ni 4.747151911341182 7.222875398429451 8.583881280492255 0.15657426898504004 -1.0251412536068474 -0.76679552240926
Ni 8.885378163537949 0.1390201860362948 1.3622446226738454 -0.14149989115042083 -1.6018700317005765 0.020501462387461464
Ni 6.402355450593721 3.324940771559208 8.56128235917295 0.1950873374585737 -0.49106399163505754 -0.5632376855858299
Ni 3.6641743747430944 4.626497280652473 5.659851182914244 -1.2397430069492648 1.1624245355727592 1.7295433013805506
Ni 6.369217520281886 5.948027210053738 7.228731431340504 -0.8219233166213393 -0.40560875008403047 0.10366996478684082
Ni 4.331281062288161 7.257613792712239 10.824527139329309 -1.5152089427669067 0.6327772843478651 1.7061426630684229
Ni 0.18760213110596838 2.9321887633351307 12.076676493027996 -0.766061472456713 -2.2777986546249354 0.4478830853722093
Ni 8.14115316580878 0.7624212554428343 4.609462978284193 -0.3571041176154237 -0.528096876018639 -0.8402750796556496
P 1.2096639736975485 5.607091379293811 0.48801661944298375 -0.33139539999540996 0.8000293447617254 -0.6381205509376494
Ni 1.3674438177702306 7.279122918333405 12.359110277469398 -1.0003283083282257 -0.5087824919607431 -0.06423129917524423
P 0.961601309436927 1.2144653656104023 7.257775689356699 -0.39827185010298505 1.366655487203814 0.4624314155000294
Ni 0.6915318030138845 1.6933926448715386 3.116150532749947 -1.4170568224745015 -0.9574955294334154 0.9648455420405836
P 2.162485859386309 2.9950694200435457 11.194578462628993 0.34110594241495445 -0.17542405470169142 0.2930713076042307
P 2.4903311900370104 7.872663770635669 9.26921382970883 1.2535148639223765 0.6488284242734568 2.067354889314949
P 6.563891296817884 6.269248655136803 0.8760042407015128 -0.5079911064076993 -0.5211366426507219 -0.2717108396505836
Ni 4.208868696602454 1.6908115497969987 7.399161416649481 0.5598083481893068 0.6518800666155871 -0.3698336493669501
Ni 7.451038652276685 1.6512532611277058 6.617923145501936 -0.7157652953053222 0.5390127516001942 1.2155941776172032
Ni 7.320161404894907 1.4472449866339627 2.447485011799648 -1.0610935033317404 -0.6515213977245875 1.1064950713949913
Ni 0.4169393669064598 8.253028372749322 3.571031072128461 -1.2101120714567095 1.8598748346189777 -1.188490893642508
Ni 7.879814976702406 7.3168494621110876 12.935919342847603 0.5323371393522316 0.41809531258681537 -0.02855621437113792
Ni 4.050469019662409 2.4748168658792924 12.672794739910069 -0.9399937731042262 0.37548339145355986 -0.25806290984984587
Ni 5.508815490487941 1.6220101015197466 5.057045216930432 0.3528872513205987 -1.8155901537689894 -0.3488187376781799
Ni 7.672568769319455 5.800331214121731 2.766179018981765 -1.5102521129822637 -1.1615125652814513 1.4697796067895137
Ni 1.8111238847231335 1.5898342998378474 9.232981360678595 -0.2998669903698255 0.345163914534412 -0.701894450860501
Ni 3.6256059684142166 5.866930868034323 3.8952896982616023 -0.9129691648862663 1.4463661129615801 -0.22332473503771214
Ni 3.3519636343288535 6.195248011763165 13.052662550606149 0.2565091922094808 -0.19796208790320746 -0.36688202293779393
Ni 7.227223479737817 7.836759720512768 8.334363396678855 -0.13746557318004712 -0.007499393700838698 -0.18417351875954732
Ni 1.3830043981120803 0.4480124211586629 5.41267663738895 -0.4592836138996671 -0.06603467093257015 -1.7690950955312437
Ni 6.550615771972133 7.25284940574669 10.982080328099748 1.0759282543517277 -1.8906524821214665 -0.12123214204032023
Ni 6.469621193557806 2.9736158018433376 12.688568098698925 1.1694888986187084 0.6497360236893907 -1.000041373215426
Ni 1.0137320289531724 4.969172343935746 11.788326542636167 0.3741600446564459 0.9427463961486989 -0.1107996338530866
Ni 3.002442655794113 0.7982744237631908 3.492836843101458 -0.08489911193724088 -0.26912199587748487 -0.5701914911958438
Ni 2.7350726602769875 0.727244352534481 11.194199161919116 -0.12086164607477896 -0.44857831166702106 0.6511820121072979
Ni 5.543997944138391 3.5306327711553394 6.290929853762938 -0.9914510604432537 0.17658233667585072 0.7564164931677811
Ni 5.021950650029833 8.224460553429683 4.019858527251522 -0.357590570333539 -0.11073715604626735 -1.0290076785407891
Ni 8.745147915724772 0.4609900561786077 8.599194852810841 -0.5688030954887494 0.49585858481022344 -0.7506669922785136
Ni 1.39813942155992 4.310317759639747 9.054346453428368 -1.3528432639110701 0.13870921577916112 1.3572573338183658
Ni 3.0939003830589935 2.39731925498531 5.4648600889551044 -0.7771303286763648 -0.6981853774400298 -1.659127727771465
Ni 3.573160706845877 3.3059942385389296 9.567056474208133 -0.3013273769654359 0.11675687987778602 -2.10817398021384
Ni 7.59618130684463 4.194649545600419 6.199493404342759 2.074161884934454 0.13392156458253066 1.347686145190163
P 8.022478299800902 1.1791071384602534 12.463030345862997 0.35023515840973235 -0.034925351122275336 -0.0629730012881109
Ni 6.359013406062468 9.208440604749448 10.082772221832764 -0.23695209601315964 2.0464433359732626 -0.8396333323065925
P 8.727505807097003 6.806366214035415 11.015876021349934 0.39373642412647675 -2.157701911740639 0.6085304959853584
Ni 0.2709085936031888 7.134165288501985 9.133772022076952 0.7931069066102793 0.2024941714456061 -1.6320079887365377
P 2.6633108162153163 7.740824394623955 3.3001335800094638 0.855661589414049 0.7600080671737814 -0.1907185189669167
P 7.7069833703133215 7.843152325159747 4.49261153105478 -1.183200077557214 -0.7469365787018039 -0.16129969948516737
P 9.220902020754485 5.458701540599831 7.053116127790385 0.49732179961931133 -0.0004028918653734997 0.8150055064555835
Ni 1.7834719378492991 8.344939410618691 1.3481004066901032 0.09560647105241599 -0.8714201377998864 -0.11899939605505958
Ni 7.750297661134095 2.214505564060639 10.305439315881488 0.3937767904461089 -0.31077052465620675 0.22316275553855117
Ni 2.9411254581093442 5.051267819532403 1.7088986429161133 0.017889992906543382 1.826510914446551 -0.3497019116140816
Ni 5.975605147032962 5.704562410495792 4.824927059339953 0.306080318269389 0.14435304432849977 -0.6889479180021618
Ni 1.2844694746750744 4.496942960136857 5.1290790473547965 1.1637941622267765 0.044044282704408015 0.330147900741554
Ni 8.93461324592756 6.824868687688031 1.3937256564700888 1.4991495753111987 1.6299817023351282 -1.356985825324534
Ni 2.3733307978946936 6.032222716409966 10.167723554237703 0.6135528889006143 -0.3236918607035651 0.8253976483231849
Ni 4.1172444470747 0.18465653730047193 9.032830851941423 -1.1839377270541869 -0.09114663550884948 1.7898487831388272
Ni 1.9278282372870081 1.4106378425122623 1.139818060782606 0.13964021223386275 0.8387473301572135 -0.06817434298339226
Ni 2.1650299495135443 6.213454445837339 7.665725629439035 0.14199688539149738 -2.1548104491254567 -0.920756265030853
Ni 4.077288355221876 2.939053181060251 1.3593600870314027 0.9364086268561292 0.09287518816418197 1.1226554832049376
Ni 3.5967513607529624 0.0983915292661982 5.659255403262631 1.2287589971339352 -0.9802112258633764 0.8589394888343724
Ni 1.646479622925331 7.216418035124689 5.17621224873747 1.4731819476028434 -0.545472391182609 2.0730015460777653
Ni 6.9309063641911735 3.609027752021473 1.75637043956663 -0.6310608158773906 0.3799038891187586 -0.6884648077181562
Ni 2.184975616111064 3.329307355341226 2.833703796576987 -0.29080642282945407 0.0727629907953392 1.154961908647127
Ni 8.260336849842105 4.671717326259467 13.598343054311192 0.3947196139753525 0.4624761526950358 0.3041039112693085
Ni 4.08697440017902 0.48992052398183794 1.3027813728490683 0.09748234791889017 -0.5491063883907704 -0.954387065711421
Ni 7.078824389807011 3.4553462058628455 4.132593174093228 0.6650402581466288 -0.44084751868166655 -0.31903302177531506
Ni 4.311501917953515 7.0630232773076775 6.118604290028252 -0.4906762692783356 -0.5182202403348752 -0.01228344535304336
Ni 1.9785990249897862 3.6504362880560275 0.15901673443635944 -0.00786551879100581 -1.0138484543018473 -0.8613010470880134
Ni 7.941483721386574 5.182533618860886 9.000943688848505 0.44189987120558094 0.3292091909773685 -1.1996762208353662
Ni 1.0536233621482123 6.1104049188290945 3.2064222514536946 0.7735158718522291 -2.3026522233335056 -1.7208424311724426
Ni 5.6951724051170896 8.18134053858226 13.201508475275665 -1.1982934815552266 -1.6000435200147993 -0.38784962632839654
Ni 3.9886245014785406 7.389083119250901 1.454371214361268 0.9158768254513646 -0.339049574106558 1.0807123060039323
Ni 2.4406705507533895 3.325264564848129 7.3499966436597495 -0.5704794547499078 0.37546307973858567 0.22197644853993384
P 4.2120048658865725 5.158942964953801 7.667715570480374 0.8586805787460309 0.05601791012651643 0.8012799293393749
Ni 0.9008216086117665 0.20005059537944833 12.825919361611753 -0.6630183426205937 1.5793715934877444 -0.14731984026630757
P 6.01297089257442 0.5863184117119667 8.016401162329698 1.205164754753763 -0.12036799426781206 -0.5364563037269278
Ni 9.04651620657858 3.053777768943296 7.915121396926327 -0.1618306322879729 -0.2952410615620399 -0.012016564844901885
P 5.120670598203366 1.500689381779544 2.891180805855156 0.5715400348039382 0.30502308064946826 -0.2523244647041719
P 9.104771244873842 3.968512312618147 3.055314399380146 -0.20730290568815912 -0.529316607358353 0.6174103149734915
P 3.222668348444374 8.469192772432832 12.957204588537573 0.3486133065355932 0.2702638227914119 -0.10315548704426751
Ni 5.366124413678968 2.4576188166191852 10.556446648823924 0.8494364344399435 -0.013638159608724899 0.08763373725958457
