# total energy = -381166.56721326464 ev
CRYSTAL
PRIMVEC
9.22682006575412 0.00000000000000 0.00000000000000
0.00000000000000 9.22682006575412 0.00000000000000
0.00000000000000 0.00000000000000 13.50438382749161
PRIMCOORD
 96 1
Ni 8.254156370394563 0.6671276935334957 12.101048324217466 0.4166827485100049 0.11775369657341656 -0.22716107806466684
Ni 2.544489394969588 4.709175195779047 1.0207372682231983 -0.5044362991769055 -0.003293068928974974 -0.8215492211113722
Ni 1.9923749361751895 8.75616919625916 9.05478415534085 1.5473780713002836 0.4495057085772968 -2.2817069885404058
Ni 3.4977398559045416 9.095900710895506 6.1560817516495865 1.9225336471007795 1.5957587765965162 1.166662742023823
Ni 4.258315860331179 3.8151332391738446 3.4585267933284145 -1.4019875868462048 0.9984331481880417 -0.3262565361069478
Ni 3.8205401557294367 3.9993282480463432 8.031908110227572 -0.40868018992050265 -0.4211526113559005 0.8174521682238631
Ni 8.86329257716432 1.5153483390350704 1.1125588907396318 1.1136368246460948 -0.18752469461996737 0.5578404258296586
Ni 4.195010647894461 0.66582947995095 12.678037367213607 0.3148475229390578 0.6888373605662266 0.7081016081124772
Ni 0.25717361946089456 4.775193093313622 2.1999857689978275 0.45734037413036727 -0.2472838169564709 0.2322410636907355
Ni 2.7912237902137647 2.150098198293433 4.434488149160867 1.6035690166695544 -0.14533006352978842 -0.8914006946868713
Ni 0.3255212890608062 6.915418594142066 4.7780940055407175 0.08919825353322702 0.03500428398932681 -0.46202081032517206
Ni 4.508454952177767 3.4655013466123257 0.9219779997030967 0.11843581024210571 -0.7920661240505907 0.08227144450640671
Ni 6.992361046628554 2.31400342985237 2.527399478853091 2.271242341563656 0.7276826155681984 -0.47769579785826766
Ni 1.753640193923672 2.9466680277770063 2.3942195580964083 1.9897086022853796 0.13827444223458765 -0.6725015995206804
Ni 3.3627053443156516 7.203858216060775 4.87452903808752 -1.339950467108802 0.6516607515159293 -1.2219527728453794
Ni 6.309428733013022 7.839927510587823 8.427869711678065 -0.4783871674983374 0.6761034579393258 -0.03262987021987929
Ni 1.1300271064786196 2.8019176746641596 0.015901501692674676 0.5128918861434263 0.7249991551987643 0.19012459413665966
Ni 1.643813354740716 0.10221009922281754 1.4653611186740199 -0.47979304670692857 0.7732199378783652 -0.24448234295193377
Ni 4.466583642742141 6.768020143671787 9.786829909457682 -0.5237812793624205 0.7268788887199803 0.06944035418000945
Ni 7.98330306751162 2.9717649783422115 12.140441309784778 1.529498619916701 0.4841176422242114 -0.11227956083272277
Ni 4.922351646462322 7.056339816929707 11.915714725749472 -0.4332771625335764 0.931929250928537 1.5479820234328694
Ni 2.2070092244280604 -0.06188797287538942 4.1174195499577015 -0.45442911402084313 0.06468766998637246 -0.4765884237267018
Ni 5.467656712051896 1.2418284851545736 8.367464488786437 -2.089676435630285 -0.5344760400721053 0.538080469593912
Ni 2.123128203255898 5.513338698172607 5.747601200740684 -0.2533562484027959 0.022278866002858406 3.7829856943794655
P 5.961503802162739 3.426047464032613 11.888408874461724 -1.0002424334826385 0.6973569680014635 -0.4096543809083138
Ni 8.827741639470299 9.184810349000772 3.088384602453883 0.2875830307961499 -2.2561887896646438 -0.2629971139266697
P 3.0358636973041535 4.341504869998786 10.339766477919492 0.35469267996045367 0.056923452659921325 -0.9489995761472623
Ni 5.509408072826733 8.166215548395677 0.4723430632772886 1.5660604782011351 -0.44563465565766475 -0.19763478647077576
P 4.729151261210543 5.722196997067456 4.337256842042823 1.2993987709386847 0.6069274131642968 -1.447705914818926
P 4.245785838688698 8.429696622050091 8.254149911620521 -0.6236768647084936 0.6426127823810481 -0.23049039954821593
P 0.2461088168440584 2.1162080882103447 10.027505051967971 -0.4384797897804384 -0.5936805754567195 -0.7499028604189795
Ni 7.8164729339934285 7.105850933375623 6.759942985390618 0.047173058141376824 0.04383216669360193 -0.7039688168910263
Ni 8.288720038342086 7.184721791254805 12.542709442746785 -0.3983068171059786 -1.9012824510314867 -0.5629710621880046
Ni 8.620590302286686 8.544921150968579 8.435635003441181 -0.06150747248617793 1.1143181669838358 -0.9613295584675251
Ni 6.027401751036526 6.707667513654505 2.590289484387076 -0.9378695276723719 0.8377955077669055 0.11233303977847751
Ni 4.79743895648006 2.13817714677496 6.12955833470299 -1.1100048843204626 -0.38752463888881 -0.113523717652469
Ni 0.184809515088544 1.9786085206445692 3.448344074709385 -1.39456429779894 1.080717705320571 0.592867592637121
Ni 5.0210048065517245 3.3440763946130225 9.741508692001347 -0.3370006619973293 -0.5914138909097298 1.4456330914502975
Ni 6.145108294551351 4.4667497255032345 2.067156467403453 0.3847779293816083 -0.00036072577352841103 1.7437224210944098
Ni 3.0976464844308507 7.981254713458137 0.13231352235297908 0.3407868685126389 -0.3731796830210476 -1.7815880857919317
Ni 5.755856436649026 5.504296414513084 8.531867045946647 1.614081229054788 -1.1619691932028957 -0.8256619577281651
Ni 1.051303877720409 3.772616052333967 4.7112336993345965 -1.4648037508414773 -0.013043206337203343 -0.2547253608361807
Ni 6.496982304387629 0.08178930106439372 2.4864407019214716 0.2171934253289937 -2.335818939893461 -0.11078292168253824
Ni 1.4686606295277398 4.164626729434453 8.566789637194532 1.2476360365440964 1.4033775252151959 0.12115140940105587
Ni 6.763369826361176 1.21825395989939 0.48322609753892826 -2.19513794509991 0.836450820813553 -1.8758652965099627
Ni 7.325809096803541 0.9860887135311176 4.4975405467279215 -0.0747072590059036 -0.4627242641500999 1.7709025810536274
Ni 4.076040030031313 8.939469203585766 2.0913298132805784 -1.2917168289133947 -0.047134748704273664 -0.8388748568740134
Ni 2.1436947851712813 1.5087788431518254 11.77682155801118 -0.2828460303317968 -1.2431278642610977 -0.5351044176847236
Ni 0.3681141358251817 8.354811750437147 10.40234553961743 -0.8962523663522177 -0.5930306005775465 1.8809835915731346
Ni 7.144169917087866 5.692311326890729 0.5144247442102994 -0.17941260703579423 1.8578038110225619 -1.1444638373292806
Ni 7.640646650916019 1.4898177279270102 8.327761482065084 -0.47552527256951005 -1.7754855724386196 0.2216226647449409
Ni 7.120041782629038 7.606147570708922 4.570477636626044 0.10720291764076377 0.5797110006505048 -1.015167173113271
Ni 2.496020909190535 2.113846022274796 9.077552256522724 0.8736420851518695 -0.28276812590600975 1.2202116217845567
Ni 0.7007087051445491 8.665663318283386 12.69690252350979 3.079110208533194 1.167478810167215 0.8680525068792341
Ni 3.8349801291244905 0.27340728667575576 10.296741815976274 0.6202102463161318 -0.4865936145685298 0.2589180587612896
Ni 7.25460572639483 3.829896151271024 10.00777441995009 1.1326791859895267 0.45047372891752097 -1.5876906548764014
P 4.377544829156027 6.044277604927614 0.4198027818054321 0.8293196090854104 -0.389957930920651 -1.0632059216890528
Ni 8.234530924125375 2.947507668402533 5.852003592409933 -0.2812717438661414 0.14776926909890037 -0.5778394946594048
P 0.21913051766846858 4.908557550471519 6.585602220342986 -1.0428864934054105 -0.43127890115662504 -0.2410995425226299
Ni 0.7272671840073754 1.4120079543548125 7.785600916752207 0.543626853333438 -0.9388172362976219 1.1760876348821487
P 8.033007947178811 6.467124314671083 9.278632346106372 -0.9759095131642289 -0.5420800776716084 -0.3439716939985238
P 1.3105313873268236 7.740019502970159 2.820863104294871 -0.3218589212598844 -2.246097209756596 0.28470596635867096
P 6.226719517988572 9.225030057645526 11.979616913444122 -2.135134567963084 -0.7229389302356259 1.826563107840725
Ni 6.15986197982847 3.039471383947902 4.486818059135338 0.2178752818873667 1.0936848070042 1.2764120802355243
Ni 0.19318377697566919 5.258641557216015 10.511974002169081 -2.7894525545962026 2.6271262136187334 -0.34152246112708284
Ni 6.324533037452449 3.3252167744088754 7.496850350997452 -0.2907501156702218 0.668381663815036 0.107587297563376
Ni 3.3449529425187925 6.559521690759306 2.171937158695192 0.629266185870813 2.137951982807221 0.4169768827116561
Ni 5.895236780486525 0.06174403448244192 6.265236878332121 1.4945197898486713 0.07951907857225014 0.5708905741453975
Ni 7.2840116019284 8.01644580516979 10.630299665309982 -0.9684448293560676 -0.16339052057592507 -0.3484104464961677
Ni 8.140998649169681 8.645235138668914 0.788106067441859 -0.04283406444639075 -1.3317730735043323 0.32437448859288653
Ni 8.5124150638946 6.838549956216064 2.236245326472513 -0.22569992013810808 0.5076231815453194 0.7499491402758827
Ni 4.8940991234363445 1.7245849375524103 2.746251346555725 -1.704555521086961 1.1855027575484614 -0.4655313945815918
Ni 2.3395248141403697 5.5270589796029235 12.111176604598137 0.6822851612700056 0.979151160029978 0.35975106831996756
Ni 2.254970235103773 5.39725607498847 3.652719984418728 -0.41453844847349247 -0.6486798145107344 -2.2213035477516843
Ni 0.9230787593363426 1.519574222622888 5.585628987984472 -0.20402474915751956 -1.6650705756184616 -0.713815627778119
Ni 6.570178667929458 5.574733958856752 11.390070168345316 0.7580103200174623 -0.2072558545003076 0.038706415431262374
Ni 4.395509447814281 4.481078977057559 6.001213267658135 1.1768129430839473 0.4599685557818336 -0.9391031429691568
Ni 1.1467737848888577 6.818324766642927 0.43254040689927997 -1.257784437832008 -1.5495239139986925 1.4274795604697224
Ni 7.030606215780311 5.1371704711164075 5.7477091545353955 0.2732951534185681 -0.2527533247114744 -0.6984484012934294
Ni 1.1740390381683365 3.5947690956632554 11.294958261795225 1.2001927554604683 -2.285575213246561 0.4183148847967893
Ni 4.814157954430116 9.178517657719349 4.1225376670453935 0.3294889270013164 -0.6296366818363542 2.5186128046966623
Ni 6.6602785658225585 1.6005395686558581 10.68447955270663 -1.1966541461795905 0.07439538419243961 -1.3280429170379386
Ni 8.712517110551811 3.326471621937136 8.099916232849248 -0.2135357739717484 2.284357281679059 0.15091090005167557
Ni 2.045687502486129 6.395256613218 9.7416840015825 0.953027980580365 -0.18976926767976998 0.5482838924894751
Ni 1.5657544570268784 8.267839744544638 6.48322511567707 -2.3888222315633696 -0.16273900303485522 0.30871467056844254
Ni 2.4188662398426497 3.0224940350361456 6.488019371380629 -0.14812896643116424 0.0277080074382297 1.33989878793526
Ni 3.8054173976498884 3.3407824198513394 12.254498645965581 -0.4059293666482428 -0.2858405941837464 -0.9755328465511007
Ni 7.989817202474501 3.6105746384272988 0.7690905139786856 0.4314123414106957 0.28741102399465984 0.4972608644743888
P 3.141372384698685 1.7115935749068922 1.2088804333996868 0.8068803062452877 -0.050077376272365366 -0.5082641575634279
Ni 3.492757373071744 6.298301188019773 7.709166862051066 -0.569894014560083 1.0827393637362903 -0.949016802538443
P 7.9158273324074475 4.270919696534146 3.6043336173382157 -0.2607391711304283 -0.552464763340042 0.5794101815806343
Ni 5.327630490810147 7.0928780243702265 6.024656772068456 0.32980491557983843 -1.246465927495395 1.0217880208638985
P 2.2797442469668527 7.983847449895204 11.354607808123879 1.452706196246995 0.1320261473320307 -0.053000720566747435
P 0.27118177767710594 4.906269299096456 13.008624180487757 -0.23516826463985951 0.3724214646987844 0.40342999726515677
P 8.524963539177204 0.2951004633205553 6.368653845618883 -0.7123166746350893 -0.37539237440165024 0.18502609656782973
Ni 0.5589137024971564 6.611957709164477 7.916904102308536 1.148429763955564 -1.1809763304330179 0.11472082328436373
