# total energy = -381164.3271969072 ev
CRYSTAL
PRIMVEC
9.28355219549432 0.00000000000000 0.00000000000000
0.00000000000000 9.28355219549432 0.00000000000000
0.00000000000000 0.00000000000000 13.58741703395311
PRIMCOORD
 96 1
Ni 4.1929163018506825 5.673782113629076 5.294405115658791 0.9566918025851976 0.16992935013570734 0.8918244124878513
Ni 0.8127564184532793 3.468037987489773 0.8342886891728906 2.00546098002363 1.3174900812227568 0.15981025942383445
Ni 2.6660319223577447 6.233181111969864 7.240272911407381 -1.2001585597884235 -0.38002653073955195 -0.5334668820813007
Ni 7.288238239995385 5.360025903613251 5.636508651984151 0.9077457117037979 -0.7904576419128903 0.06323268270740076
Ni 1.9811007326439363 8.331533107521746 6.682508746589799 2.2468220037377624 -0.4950761981182441 -0.5073149062762812
Ni 2.1268153662625533 1.1137291772399485 12.341641415019451 -1.4807947269530948 0.23009367833042954 0.8682440540647498
Ni 3.2153675502320067 5.981606133858823 12.10114357126326 -2.005198727501179 -1.933000350960058 -2.459561507060461
Ni 8.90037347833897 5.880313296995117 4.1642310542450405 1.7695964606476942 0.6578913058066734 0.1488128798720663
Ni 4.480400059449288 0.5895389785590722 12.452460104683619 0.1840339078578895 -0.601111577813468 0.2778547477647924
Ni 0.24382692553598376 9.045326860686133 5.5487753713044 -1.6310623369938166 0.5107606987330365 0.18180296164484172
Ni 5.307870907966628 0.2256766528430838 8.145493508685929 -0.5585526214053348 -0.17509958148273716 -1.7023729116133457
Ni 3.3222676525586103 6.297794634522462 1.0196487319956553 0.7264389729690844 -0.855327860223714 -0.7763618259414565
Ni 6.033148415067447 7.0863766833310615 4.9067963920495155 -1.3032759945059038 0.6247562138156014 -0.9066853887600838
Ni 9.233430193151756 0.8704416260804454 1.2336828821615533 0.20172849692417516 -0.6409515926285413 0.5501088615133558
Ni 3.2955960074014823 8.897393458117794 0.9640922428629303 -0.5677851957471964 0.38365872817550056 -0.6979254389104238
Ni 4.531032552553004 7.595876589183313 6.637942126422271 -1.6455821278765466 1.704059812397465 0.08896042649080808
Ni 3.801029717437923 6.462252759812586 9.643682428665924 -1.5820380845763142 0.9552383579681226 -0.18948233256697045
Ni 2.909604478566438 9.3025833726768 8.641624171172088 0.6935306522768379 -0.7355890148994686 1.2602555250803198
Ni 5.619222677990914 4.151112466785403 6.653173650337794 0.16438862282313627 -0.6412416130651344 -0.569669814364419
Ni 6.821628344803048 7.891427753548903 9.29352169748088 -3.163325664139849 1.8395343232894124 -1.65344713244692
Ni 3.002263611985616 7.480825528120907 2.8856686962104954 -1.471291158338034 1.5807504761131421 0.2724837132608662
Ni 0.8245121804659739 3.4208218415555036 7.50756401485309 2.895840432534839 1.374852935412942 1.0630555121541176
Ni 6.4777005904918274 4.486638606454367 11.290817586747375 1.6391654257169253 -0.3395152008890669 -0.01784114194647895
Ni 6.694322994980666 3.254571990711837 9.026256587981026 -2.2830470475080684 -1.013181767252126 0.9403383009278387
P 6.395856795258538 8.079614637983342 0.2636027481999986 0.46687479598336373 0.3850867188712787 -0.10651900419986172
Ni 1.2738147494952636 5.5241312539239225 2.5278573897473486 0.054880968308595804 0.5561586672518615 -1.3685689021764431
P 7.236213214078034 5.670811376959992 9.19046127229907 -0.33578992951867975 -0.12713025269231007 0.16171570397666343
Ni 0.7707724824774362 3.1659047846917425 3.092020707021181 -1.5560504022633008 1.0906766163054957 0.7582394053091329
P 6.38389029661338 2.195151593203598 3.3054653516293078 1.8007392047990858 1.4002258669600915 1.9619010931548084
P 4.403207323813533 4.091577047226522 10.193076542918359 0.5504287067466198 1.010604236332937 -1.8187960623007968
P 0.8648167218685748 4.705776853559835 5.811691136649673 0.0009592785894757672 1.5536898724509243 -0.3787759461619025
Ni 2.6749348488129083 8.151887091010925 11.906503689770442 -1.5636104739987458 1.2125903577938728 -0.44428405516704134
Ni 8.501626348931042 7.24461482872029 10.318039652548208 2.1270880435095236 -1.0107433330139624 1.0569712536332507
Ni 8.869988412345485 7.3383972719424655 1.9381773011964951 1.385328638133285 0.8524335693950544 -1.6249809066864271
Ni 2.468756440426322 1.1951737797333304 4.31071715104241 0.5423724121010466 0.335340500686087 1.1750293688209634
Ni 3.624540108638004 2.2903729869998615 11.083174233840847 -0.4824127437179628 0.19193645053441782 -1.1804729084340377
Ni 6.534924405580077 1.2500395725904931 13.580555578784221 0.4822548779838598 -0.302769251618285 -0.6549106259117946
Ni 7.6620683155913625 4.231805101559423 3.487359844456543 -0.5700567653901925 -1.636583523922362 -0.8896657142736355
Ni 4.7052105568822915 1.2901352340710492 2.4905189432377877 -2.4971055267525055 0.003526782206335861 -0.5755319295721507
Ni 8.42424794225347 5.278757688609596 1.2822256476896103 -0.2347257777858022 -1.2653015721446597 0.46547560164299195
Ni 0.29563007455836166 8.65505561433719 8.10166028913358 -1.2900546107196236 1.3776752353530852 0.3246827638619247
Ni 8.85282312452943 4.572817820514103 10.084920375993859 0.17651883042776695 -0.5893253838118173 0.39268355738193017
Ni 1.8992012360981005 1.509171362103519 2.167314862259063 0.1422110582848325 -3.392302455257016 -1.6486193720409736
Ni 6.8302063469350305 0.49899463830619933 2.2334453172233117 2.6424944685446876 -0.6546740844209564 -0.8711013210078868
Ni 7.687969425924947 6.828526024006579 12.451087995684587 -1.2964936814767478 0.5057478188994774 0.8517326866732878
Ni 5.709653758908278 6.396766583363444 10.709153845427007 0.31195786009608856 1.7611467872184443 0.5807677240497933
Ni 7.8058426868229835 7.9098741715535015 3.743210826660648 0.19059947689054918 2.0613822166712823 0.8533589094228012
Ni 4.137716301118248 2.5254510930453904 8.264206931048191 0.12762441871990923 -0.8208149140485089 0.962505581053497
Ni 5.399341746718172 8.19383946290966 2.2839766196092377 -1.1432721310140246 -1.661324735422784 -1.2589627744108254
Ni 0.1887364707182215 6.404184141484066 7.467399655087061 -0.7393029734159462 -0.9111156566172953 -1.7266379548082973
Ni 4.215345363702275 1.0282926473474834 6.162016186706724 -0.3627104080586076 -1.0517963943005306 0.835411066695129
Ni 5.630195836562345 0.8989439877098973 10.180019226902523 0.8989389120454454 1.144432726981029 1.6089320807536807
Ni 1.2894389676642324 6.322247510729866 13.24201135633051 -1.4077640843186658 1.0381381800871476 1.5032157749607724
Ni 4.586891685483892 2.6623277850734794 4.633608376315672 1.7554422806344994 0.025525140854297974 -2.623425881949011
Ni 0.30485235520545234 2.1758975061670913 10.523562642157177 0.4967163048248285 -0.38167666474846523 -0.3844966506957636
Ni 4.366435173981516 8.760813839756613 4.14393071088789 -1.0225979183597034 0.8082692161730144 2.1834162857876076
P 6.178371020425247 3.3760194191648663 13.394190127270011 1.1488550244184408 -0.22412331967960758 0.45298595381641343
Ni 9.010290735095113 2.435957650889206 12.867813652071732 -1.1294470522054743 -1.9131897439920342 -0.5641427138986026
P 2.704205888555486 4.4410842163443665 0.022473622901627657 -0.20584483308539386 -0.9825568432774174 1.3230737459581214
Ni 8.546930083134589 9.100164802887024 12.881414984240095 -0.11040959750351954 -0.20392139081043592 -1.008600832749663
P 2.099178231687972 1.9733118324396792 9.283466682211237 -0.2645444038091315 -0.3736625361947371 -0.13975771164833348
P 1.0764092978345687 8.425009193524923 0.5985254569830544 0.6867473108064173 -0.15367046507468374 -0.16851087252162592
P 4.234051721165418 5.897887061103173 3.0640307974671463 1.7429513472563405 -1.5842839431876972 0.31940480329243703
Ni 4.11219581642039 2.6597376740401204 0.4173875736512266 -0.07451416915849102 -1.3199675962289719 0.04085251523998771
Ni 2.982155438156747 3.2505429291043906 2.3653794461182107 1.55237783850772 3.0490576121221875 0.5848110408812315
Ni 1.6272859953559184 7.068960739608551 4.681707388053784 0.2461031663848084 -0.9251402530311614 0.9338403519083208
Ni 7.927290115276012 2.6494886325317775 1.4875778199401077 -1.5615757029569042 1.7435092766423395 0.5516381536736886
Ni 3.31413526092699 3.311183091362087 6.145751403443485 -2.3629967858598335 1.1049128145095357 1.9883320336528274
Ni 7.365848735475229 2.4960315164693583 11.225638695872442 -0.17886444784180808 -2.1863041488583637 0.36035990554856007
Ni 1.0248020317613085 8.881240077479644 3.4242326185936967 -0.301061782008875 -0.2697830265002515 -1.6338733240800507
Ni 8.748197492465092 1.810348359036188 8.231950300953182 -1.7707310884727698 -1.1750573938454216 0.7159622418074766
Ni 0.8155786182889099 9.009158141740023 10.413423508506062 0.11208492832341342 1.4685071678349935 0.7278685063267594
Ni 1.4351350341786675 7.055360335795397 9.286279598494776 1.5087611302590338 -1.2960167418403292 1.0689999026630106
Ni 4.187996019242511 4.867403495462239 8.051033366161118 -0.29000089620902314 -0.03508038864290087 1.3974760721290966
Ni 8.776456625029764 4.881180286765121 12.684016959421072 -0.692121430634137 -1.408673997727445 -1.0157065905565088
Ni 4.5064868408246905 4.198718521907489 12.317659214903053 -0.47255153465316685 -0.3810542006731179 0.19007214363216943
Ni 6.429491104483834 0.3884256761932756 4.907068400125778 0.243129171358149 0.6062149604783044 0.3147665331894773
Ni 7.246545807555195 2.942403268103554 5.524508166138812 2.1204355711900127 -0.4951366190425343 -2.8430070907838907
Ni 7.4068449015086015 9.109866114822005 7.264757351691895 0.01256600959046868 1.2229287636054036 0.025920319410187617
Ni 6.342606340465189 6.562728644092294 7.385711823528898 0.35989376454541894 -0.678558861458354 0.56415351253188
Ni 8.557968226570656 1.2015330129155906 3.749216356508245 0.1959553418858238 0.9036802833851728 0.16131666876603185
Ni 2.5370555331590032 4.714373422796001 4.269886232236256 -1.1526962525414017 -1.5066232579804246 0.014995187857251593
Ni 6.579884648356259 6.244748417875114 2.441943685277412 -0.10925902883884409 -0.7289460556616543 1.0110593215924846
Ni 5.380681807015483 3.9572347649192463 2.576568187568251 -0.4818990373063379 0.7025580525864288 -1.0215162552597505
Ni 0.714630201207776 2.6052803574749572 5.319868042333686 -0.28658364299735806 -0.5121889465391308 -0.04121426945478063
Ni 1.5830405860907346 1.2894853854246868 7.221481145265001 0.5861107335292616 0.0877142127885328 -0.9914076087998283
Ni 2.0801376663495557 4.119000660103013 9.72345413507253 0.7965712110097958 0.48810799433052704 -0.9953519381595567
Ni 8.137219078707318 4.198690671251216 7.754733019141795 -0.8013064117019361 1.8383845259556855 -1.7938802728957235
P 7.834231789116926 0.2819516889076437 10.161661930997994 1.2919202031734525 1.1284546063852179 0.3385613216162298
Ni 5.891054366764278 5.502073534155967 0.2946720119825818 0.497057490214331 0.07512506326961255 -0.1664082243563263
P 6.318051345184784 2.109882167248769 7.033730587778831 -1.6049407002061005 -2.505783771252794 2.8099766426914834
Ni 1.4720093030836845 3.776558274126336 11.914914587964788 0.5955826775754388 0.3004897115554889 0.7931691273067824
P 7.847479417950627 7.550990614823857 5.975079796738926 1.1056180681066765 -0.7396310461793262 -0.4111571907060854
P 4.418664438044866 8.517380536829283 10.620115297323276 -0.3249879538071694 -1.1862152102344539 -0.2308508682114282
P 0.7576910292261623 6.046033985369603 11.175474093794108 1.2265452773120682 -0.24479756019950744 0.11850985801315075
Ni 4.640262826454421 7.3386200771926475 12.733311692668494 2.9962556378298077 2.053256502240354 1.344335483550375
