# total energy = -340862.24520413135 ev
CRYSTAL
PRIMVEC
9.37486961831339 0.00000000000000 0.00000000000000

0.00000000000000 9.37486961831339 0.00000000000000

0.00000000000000 0.00000000000000 13.72106931274333

PRIMCOORD
 96 1
Ni 8.931428850988741 4.64015731075485 6.362363972564452 1.3023300856528668 0.1001886911064597 -1.8914122431056264
Ni 7.824266131312412 7.810091328543968 8.388238596566282 4.455227098260224 1.4436320018598685 2.400956038712426
Ni 6.425966837579161 8.237641629508062 6.899214002706291 -2.686585802436947 2.7501892382202056 -3.2408392822462955
Ni 8.766721767762013 5.565269438526128 8.51321029518054 -0.039686519956344556 0.9985722448690675 1.1420338877315492
Ni 1.5316005639478825 0.497814948285191 2.7687055380769823 -0.8234515803404077 -1.8470098057308515 1.326168325723045
Ni 0.9801707366727853 7.976964006638097 9.46338051178765 0.0006198929721860292 0.20461018934734437 -0.3153375752015989
Ni 1.8579866475348004 1.0456823251290652 0.610015262103515 1.765456727447708 -0.1490314236407756 -1.4147880810449827
Ni 3.7964096758587935 5.796425597164721 0.38653993409202936 3.0226089310123556 1.6145705099863807 -1.40985182008563
Ni 1.795943760814185 1.1212437737492162 8.701476425601118 -1.1384014331852845 -0.7188735019170006 -0.3600853117309347
Ni 6.52886540582417 6.200051231022288 7.645023312839339 -1.8490353208013124 -3.731729467307651 -1.0730828144831326
Ni 4.852404357499293 7.269648848388326 3.1929755721834856 -0.381184298493079 0.7522147963816078 -1.6430359644159251
Ni 9.166559954319016 3.284729295500501 8.655017384543195 0.10062989240893637 -1.1402752531692297 0.16720063835063462
Ni 2.5098307026226068 9.404869138428724 5.465732698503846 -1.0250147553313123 -0.49830627501976765 -0.046064141347914214
Ni 2.4566189430236025 1.9515947200499626 10.758223432537319 1.7761985393452444 0.39464196665988166 0.3050624185278359
Ni 4.73026855692568 4.69866587165291 4.34267769995644 -1.2037920427759525 0.9114504142488948 -0.21462540749150136
Ni 8.044509941787997 7.967298516126015 13.301890851847855 0.48842346868841685 0.7057076539590039 -1.3746413336227679
Ni 5.523710641785045 2.6685659939422592 3.5063371494964612 0.4446110994891569 -0.0197481291612047 -0.4273391997825866
Ni 0.7208224703058397 4.2980308211836595 1.0221195279873918 -0.7779348268555312 -2.9486331508558377 1.4128003611909925
Ni 1.602587076224779 4.025231491977981 7.514549503282751 0.8365454374098883 -0.6048391631767003 -1.1465847403270253
Ni 3.421096148059895 7.463474276455525 12.428146446833946 -0.4575748587386764 0.7094228980270622 -0.23475200303804733
Ni 3.53441957125101 8.834436450563917 7.478257508258145 0.37463029942464515 -0.29496338242062103 0.828585044912231
Ni 6.016716281988085 0.42602313471344727 2.859457087838477 -0.9160956263303901 -0.11987691356400645 0.4300810241937819
Ni 4.3972450656932205 1.4690889337494748 9.19948262122525 0.08209403838827796 -0.8726941194163035 -0.8960317657009794
Ni 3.742954169651337 0.6347189808701353 12.643622198653423 0.30946620402248637 -0.1287744731639524 0.5088549970698913
P 6.220057202654472 0.7209134065405314 8.00275896022102 -0.08587793091074242 0.899745981327773 0.03513412469897176
P 0.14204614853632808 5.431358801790367 4.126542894807185 -0.25050849454135565 -0.29336621313683026 0.2691947580969493
P 0.7656399717045362 6.644176301361125 7.338466953336955 0.6716418226235465 0.04361722246931843 0.6504261077778798
P 4.411279245418328 6.926809868730892 8.081970045559261 0.8647383549043365 0.7413189754047104 0.11225179291858087
P 2.328051981934675 2.7070404585994674 12.968111746129193 1.7427975952872954 -0.10406077246735626 0.5165238264690588
P 3.1616278833626343 6.012563214774843 2.4293699471725687 -0.1608178747527424 -0.0891458030287368 0.6343060622875657
P 3.821815572355147 3.370837472370983 5.6780669315351595 1.0423411624249017 -0.1409771858777314 -0.8167638839075869
P 2.127448523178597 6.413170140635426 10.626844948068593 1.6089554777924484 1.033168237676382 1.2639039204661846
Ni 0.5587647252155942 2.6019856703566124 11.819288043633621 0.3341912175729922 1.8133594646662576 0.3682688759829916
Ni 5.240589581198375 8.469107158841998 0.7688761766752156 0.6956176167128536 -0.5222980099486747 -0.37790819884496846
Ni 2.423075659752771 5.9028022420149515 8.51698368017677 -0.29909437386985904 1.6530203293221466 1.9986089900988033
Ni 5.9298581155531345 4.902719282405541 2.2531092747052104 -0.19653306876616478 -0.038783034305468686 -0.15826836885801132
Ni 1.6385397009714635 6.275097061816867 0.7846540821377112 -0.08762011041282973 1.4818877029069577 -1.5326646763495086
Ni 8.671473093074576 0.8726522327106528 8.103828491415682 -2.0462309628521407 -0.720035640545902 3.928995043364466
Ni 6.9751748207695226 3.7637757549348803 5.362056953572656 -1.1658464167701148 -0.1734155089120949 -0.0015855993195650112
Ni 2.546702064585765 7.610734727438817 4.121534839490449 0.14101652375609908 -0.8164296404966198 -1.8213705078961924
Ni 5.334488274669768 2.031074864144459 11.250919702045014 0.9737544144944391 0.3551896742015302 -0.5934602319157972
Ni 5.2172836554825315 3.998897483395598 9.376786716674173 -0.7636667469722913 -0.1409609879278153 1.3443984755778264
Ni 2.9407934561050313 1.909501555744196 4.146768238386976 1.9927090796746005 1.1063017244372624 -0.348782999344238
Ni 1.952204086571093 4.187501109120189 5.061318638116633 -0.842213177218627 0.9203114641839505 -0.23443112936351881
Ni 7.13116327530931 8.183154887649463 4.41132330730524 -0.061854828523267666 0.10993831429405582 -0.4179199633512158
Ni 0.7324754331637613 7.3658162602922355 2.506729495773532 -0.8526698537755767 0.4346843272937482 0.8588844672267207
Ni 4.8569136697556585 0.5914558328437988 5.648593279138523 1.0293028411837046 0.25299500840863526 -0.38300386820032106
Ni 5.84224058468416 8.339855832275495 9.422642016132704 -4.029239527409525 -2.5293199067015215 -1.278143461104334
Ni 8.449719928600501 0.42412191116752085 5.9341705555488256 -0.8301171652860414 -0.3658237568766087 -2.3507135976171063
Ni 0.2787129969215094 7.120813419319652 11.634588113592086 1.439166252779031 -0.37526484768485047 1.7412652178031687
Ni 3.985997662886748 1.659061290429219 1.815956294855058 0.5150575263361774 -0.08049532644259041 -0.7620808905424101
Ni 3.94526385466658 5.085819859700846 7.118339391243863 1.624688829367305 -1.6439564193476655 -0.933912857017469
Ni 3.007580026820907 8.315565545256288 1.3583314123557961 -1.151894068355081 -1.0618753758030872 -0.8703616146283849
Ni 8.438648207655042 5.169687442747481 10.800704716442697 -0.7119724039217932 -0.8080229044901631 1.555061041766838
Ni 8.279509796944488 1.10049718742212 12.102614413863565 -0.6984882533924293 -1.2268615230009066 -0.42949301290079583
Ni 4.652119644308114 6.9954339138797135 5.517928222242997 1.2613708696316859 0.9135564048483039 0.9211313889820846
P 6.743728041174697 6.855795231845328 0.873112538805845 -0.8715427794206797 -0.8013814879142456 0.5860762807469003
P 5.413499675286472 9.019618248900622 11.55812105257284 -0.7443081399400214 -0.07298616254973882 0.7721588436037023
P 3.646458637312973 -0.08458288559374548 3.0847436406481528 1.6977040453827663 0.7854149372826602 1.65423080469048
P 0.9905862167493347 2.516468110268149 2.589851776690476 -0.13676520467891284 1.913775441292175 -1.6778150197683233
P 6.19814813250245 2.6034762746159927 1.16502347708808 -0.4673874739537241 0.30143022109188733 0.9583252244235626
P 2.9575557228708913 3.070926020409785 8.83741109667399 0.9585154860574977 0.5095594793360838 0.9474584569123876
P 6.300427959356774 6.125558517531504 4.253489878436861 1.5823705282150684 -0.19735839288093754 0.2513636434527993
P 0.7297689083229874 8.48814751890993 0.1637208469494533 0.5734773610359671 -0.2189608016420616 0.37216563993423646
Ni 8.211260746577901 5.651124493918602 2.262864763965028 0.1940748370336593 1.3632189507184393 -0.38111025072203397
Ni 0.7598716144668217 8.770265468454124 7.073073771080396 1.9828111038345984 -0.5427758181870523 0.09664828205336903
Ni 3.257654672223206 8.864511032099085 10.44427217592928 0.739398875563862 -0.03488858434706894 -1.1256166227157907
Ni 1.230686000944209 4.524143300001207 10.173143448478454 0.8389319353641939 -1.070310651054634 0.11023244849570692
Ni 6.246934953671094 6.0295129789318205 9.953825875114987 0.14831305741751233 0.07524127713250267 0.9994160809266014
Ni 0.6898000894585764 2.0143500968568224 4.593209838993064 -1.571886597964609 -0.2943188068580867 2.214561858152476
Ni 6.524234220263581 0.9080620525100539 13.476532484342918 -0.8468671310508705 0.14331766108544994 0.666764182816271
Ni 3.146131223986814 3.999403726351614 1.320434439663228 -0.7707928164941112 -1.9749684678617276 1.1328303668554105
Ni 9.161281902759072 1.5666250766085381 0.3771810018144243 -1.6797235496449456 0.20285823965324418 1.1772888542791013
Ni 4.167354514444666 5.373731478630557 11.638938053066001 0.07037906394419492 -0.7369810101509887 -0.53328561930843
Ni 8.376858442412434 3.58323451702832 13.063157923634224 -1.7700962831022482 0.5313763181008591 0.09378715845549009
Ni 3.119375346274418 1.855811677797843 6.85814738661689 -0.8986139246058588 -0.16145216590263164 0.5093836158798517
Ni 5.286498317413372 3.053470013296793 7.386298475297856 1.2772898548547875 -1.5585253461663546 -1.6380976465740433
Ni 2.5298647988634584 6.6717571675944365 6.19458286961036 -1.089461255841156 0.4094579486267916 0.282988469446932
Ni 6.411117044202694 4.971512075206369 13.551010198042412 -0.6055328468096152 -0.9897073382792697 0.6754923067178883
Ni 8.509990964975062 7.1260914708795955 6.192524148255895 -0.8678496468398087 -0.19058070783747177 -1.8294031483926816
Ni 4.671525624288724 2.731133873358002 13.262442338243794 -0.629094179069323 1.5568315034036992 1.299567435306065
Ni 8.348443212788654 3.6299776166337887 3.3661350378017683 0.34948465339695295 0.033955273899522166 0.40028605231953646
Ni 7.703789682650184 8.576496289604261 1.7926709938522378 0.6368046603397033 -0.47370775974479706 0.6557763163461997
Ni 6.014381939468678 6.938406582371478 12.27914977000891 -0.3991365120961255 0.9453267552813654 -0.1498706317126193
Ni 8.374992843370821 1.3446469152651217 2.6993455656680254 -0.3025705053439176 -0.5357423083790387 0.647591209432246
Ni 6.919769341694448 0.5309429248346982 10.210945734988508 2.3026871903364987 1.6076925519196248 0.5139609508378891
Ni 1.571753130255588 -0.033270474566756074 11.922360984452371 -1.8017776733659292 -0.14932041563610413 0.5723723008972464
Ni 7.490455151037261 2.73678691970018 9.994796867534918 -1.020787604623842 1.090015071462097 1.385652340021291
P 0.33125070339944845 2.0977958107734436 6.890844119166828 2.1661814099665593 1.1259701494004672 -1.9559387049237862
P 7.97677650924698 7.386844092706007 10.48263601712573 -1.1356503528027084 -0.017127917929538244 -0.1724505738956643
P 6.828326864046688 1.54039419159127 4.951714225678325 -0.24381205635778658 0.08128362667184065 -1.1285476803196564
P 9.401025441910825 8.67905736254526 4.111367793457131 -0.5100652153279087 0.46292146776257054 0.08092418644989288
P 0.16060464030908875 5.352994267173017 13.049793109595404 -0.5765662843739361 0.4770504509647849 -1.1148272454097703
P -0.03049457569126889 1.2718041788161674 10.31802455756847 0.47226331398878674 -0.6018564263992926 -2.178906570842712
P 6.251584888970795 4.326371051850995 11.49290477250757 -0.2538136476551887 -0.48413641127728874 -0.9786670213047081
P 7.369631832201467 4.070690234454298 7.713504859970912 -2.159373643016107 -0.6480581217663355 0.08647365551321237
