# total energy = -340873.7055415804 ev
CRYSTAL
PRIMVEC
9.25532727234513 0.00000000000000 0.00000000000000
0.00000000000000 9.25532727234513 0.00000000000000
0.00000000000000 0.00000000000000 13.54610700589109
PRIMCOORD
 96 1
Ni 2.4553828182697 4.992823368967496 11.981843148523485 -0.9494577467306035 -1.3658856989173251 -1.1939606585078277
Ni 5.98263435413811 6.123694798525276 5.914487378741307 2.076748157604391 1.6936864395829412 0.17124215540985993
Ni 7.8410393019651545 5.972360940761708 1.9753339771725023 1.241732783685784 1.1492124077578594 1.2984510623134347
Ni 6.322221570528733 8.418997474670416 9.927034600790773 1.3728328196591197 0.619882687773384 -0.189289499829874
Ni 2.5558123755195608 4.231276522627709 6.226075378783916 0.19120214347155456 0.5370628269626752 1.567661504139668
Ni 4.058988603707226 5.788957373674505 5.054959934772736 -2.399709053679203 -0.7030069671983894 -0.19338295317295728
Ni 4.793870851905197 0.7154405075326813 8.327672382950617 0.8394068181180834 1.4585338586723653 1.7839460445011468
Ni 1.4040794380785275 8.813478037669547 0.12744678336432638 -1.5011378093858212 0.20110320463535042 0.18256657928374365
Ni 4.257515375710684 3.519875039957606 12.966794161294144 -0.7284614027157519 -0.06750148528608374 0.5679188931115832
Ni 2.35712826295088 0.043269580969387454 3.0811429057555424 -1.387547757271791 0.020114768472004066 -2.1270219661582788
Ni 8.401773310442051 3.0616808033700473 7.786329210838497 0.5848832888800637 0.021026224542679918 -0.5981357830145958
Ni 2.782873321792792 8.783425989711727 5.173149539705461 -0.46247769535693256 -0.7869686549230253 2.733292976685499
Ni 1.9256634117967004 6.472389257044168 8.944982356551183 0.5670413756026363 1.355115090664382 -1.8207560142406447
Ni 4.95927280726528 7.574439597183823 3.7127708707915104 0.37417572838572977 0.7462174411475921 0.47612536804735417
Ni 2.0707776895702295 4.093529485437618 8.873540484612038 0.2780524655978953 -1.1180130993369197 0.012842146069990786
Ni 4.553019467856434 7.54021339658388 8.939211659938403 -2.3905140174434956 -0.08429773090781612 -0.975080075284398
Ni 4.9721562229589304 8.502647123405486 6.66537579008626 0.49373176827520776 -1.9758614119896425 -0.7984920821815925
Ni 4.689285652667945 3.7280180970944707 8.875219400996254 -0.4012705277199928 -0.5960629596459671 0.17092873793449917
Ni 6.646093241051668 8.683958986507944 2.630165973448091 0.8754935365383116 0.5355299352579165 -1.0075315109448841
Ni 4.289492531760657 5.969389980677181 12.713088978599302 1.744716152466247 1.596480228143573 0.06625321470127944
Ni 8.336208571380396 1.9670902570874917 5.439886223331812 1.375588785137702 -0.06156043721130044 0.47931842106335515
Ni 2.4209715111224344 1.483619721463036 1.1045668636505057 0.4076535484282012 -1.0596408300456137 0.3448304424543932
Ni 0.4579221299629945 5.285606394867606 13.25563811986723 0.28688111963311885 0.5926390215660825 2.1370950341235644
Ni 0.9816848077431539 1.3005863674704785 7.0179399009769305 -0.47369053335361644 -0.42167171708416407 -0.9210095186922396
P 0.4927999056095132 3.59823064143925 5.965150115210757 -0.5087547240466012 -0.2137401766730706 0.32961439683558713
P 6.301082402824495 6.625028115966359 11.740140274357039 0.6424050372456163 0.5907040093268988 0.3404364271517556
P 0.1968478556192411 8.766932996345286 5.630019338946926 0.983275466610997 2.0498883570990696 0.37289531901140943
P 7.392664967713059 3.6414622755664365 3.2132719592343935 0.4442138640507382 0.21846277895972055 -0.6287409094949623
P 0.09507535036855524 8.735196478806833 11.571518390606279 -0.9448881250820501 0.6085932309024938 0.29887968675589177
P 7.0806493715461345 7.178654033026069 7.708751056855608 -1.8402555177261533 -0.31096078629014184 2.4298632086650795
P 2.2256193164055595 6.960931712065261 13.112861737786385 0.43514069810487643 -1.1538007984594902 -0.0506101088473838
P 3.023335982092177 2.5598754642332913 2.7382644949535258 0.18294710255161398 1.1097007228164824 1.4542033496178115
Ni 8.119670932322455 9.995753555418804e-05 0.009385827481990934 -0.30881725758457784 2.290730789305571 0.8347626344778526
Ni 2.15177105935122 3.9715998027162414 0.8268163404584621 0.1150470962755309 -0.3761032844257458 0.25299937928400945
Ni 6.387221734621053 1.9465711963167849 3.9660836276060283 -1.158274775070444 -0.18602882680073124 -0.2804978418145943
Ni 2.734273597793251 9.00615544277761 7.879973687596248 -0.9487928594530949 -0.8657143456643607 -0.25838095531089694
Ni 8.395451921850986 0.9716705435330029 3.3080131922850313 -1.1991193198906314 0.39418122497337915 4.321008314152249
Ni 6.055834738276821 7.534086369867502 0.5372180727050372 0.7721992099233347 -2.4978341773884143 -0.0050948980244041285
Ni 5.681826959411568 5.742652970861764 9.826075638815569 1.1925964311704493 0.1560335659902216 -0.020791739934370647
Ni 1.5865944937385819 6.197311672395462 5.191139119507005 0.41188069913567127 1.6394279353496928 0.3886564385004081
Ni 6.183336128072608 2.153187124438238 12.970031674806817 -1.611280269270883 -1.1484305352865125 -0.6852997797266133
Ni 9.193501779322784 7.83930855574769 3.6488332182808216 0.33298819840382654 -0.06039701303081856 0.07814173860874929
Ni 0.3657094523487827 2.9998181952548446 2.4461293419690446 -0.7521674880834401 -0.6245651808507179 -0.14698405419344365
Ni 5.701429742773028 5.195005995280574 3.3160736568881926 0.5956299858736065 -0.2478687429256634 -0.5638406092771515
Ni 7.675276388837793 0.02993728189847932 7.223096263972745 -0.29238045218479325 0.3142325150628782 0.7444647201225437
Ni 7.403447424094598 3.667525277429454 9.92123706372863 0.014867918250767942 -0.8082177941097887 -0.8364685614253657
Ni 0.2698696119397853 7.958452384931862 7.962144335018211 0.9899423371082113 0.2845427013079293 -0.6368460551006
Ni 0.4294971685561405 2.144116903619432 -0.0029959494684158026 -1.6950776635035127 -0.1306035559528912 -0.13106352630844526
Ni 0.1980510481768378 5.360028482218645 7.456034343123468 0.012775040277481222 -0.41857610887797586 -0.19958522532892725
Ni 6.514556528524249 4.768002211916868 7.761486061122334 1.1220443319834998 0.4998113988103844 0.27816353725446286
Ni 7.916137028213922 1.274347514387504 11.167857468392688 0.48315347853872925 -0.13726168469935715 0.5338795441386869
Ni 8.287988315802869 7.0874427818328725 6.08962501295782 0.2682516774573896 -0.8820531920337004 -2.3065795834123692
Ni 5.605924019681948 8.857931375009063 12.175281341541043 0.6187151498278441 0.13123630444088366 0.20981590191799995
Ni 8.240943486800836 5.162982562593768 11.604232270714595 -1.4101901772616554 -0.19831381481567137 -0.5738517136562504
Ni 5.948352621573971 4.351170033328538 11.692145848767243 0.3329000095653944 -0.6141606976879422 0.09713859142622625
Ni 1.8527499428063399 9.11543309298949 10.300554623903833 -0.12610798207538282 0.25170894260736004 -0.7693298587953395
P 0.6275806103787599 5.138317115163036 2.109196553467029 0.5696466744359673 0.41352697648984266 -0.014455770414013813
P 4.757108691606935 5.287383417721903 1.0588733124439293 0.6933427046357479 -0.5415321755879383 1.2745716845926758
P 2.9115223721819787 7.2034860763493915 3.6269702839765525 -0.27412793373250854 -0.6528856250619659 0.21565796252107372
P 4.835232909904425 3.854695762754672 6.6496620952840475 -0.1982629069730779 0.619780614977881 0.5623005184835412
P 3.045632065717181 6.886176432929042 6.789809964392911 0.139840758280443 0.7088793668187663 0.7772863946382549
P 0.16365177295514793 0.513522583582275 1.8359441193749237 3.5345981028358544 -1.1732691915967473 -4.644624841533188
P 0.28623488178857376 5.120158162870693 9.697184098849391 -1.2987719359879633 -1.1938228473783827 -0.6609131233521328
P 6.823758505171871 1.8329898188796554 8.544613554281723 -0.21522241764555192 -0.6562568555270439 1.3503210117098485
Ni 1.8449662124914257 7.0736708547120735 1.8544482953780246 -1.4764536763755798 -0.8407481626373262 -0.8864821743393314
Ni 3.1729576042930105 2.02415860562704 6.852704541509437 1.556294399953307 -0.34132500040429603 0.38255778180183797
Ni 7.287820619309555 1.9911911295488902 1.5235037036818937 0.37087083238221286 0.4014381636461086 0.014965620170896806
Ni 6.88168759915647 4.727723027219477 0.4741282081810855 -1.0703810992812535 -1.0926689641451761 -1.1043466575934207
Ni 4.200613623063725 3.131734376204274 4.729040985836414 0.2830848858154802 -0.4431121463461272 -1.1673371423830283
Ni 6.910073688188385 9.121356502503811 5.011084129860867 -0.2868327828936867 -1.2648452013335312 -0.42572377566635067
Ni 8.137367118246493 7.235157806596284 12.832768691237975 0.09839663220304344 -1.977472979451136 -1.0677791428820318
Ni 3.1812226116309636 5.095409417493665 2.5882411915450017 1.0465778262140686 0.45150859793993847 0.7233932441642251
Ni 3.926674443681053 8.168557571470345 1.195143199386386 -0.648175106960174 0.738087098730974 -0.20485264437545367
Ni 0.8219452616656686 6.634792486337625 11.07124665921409 0.39089998311894614 1.2795614244977835 1.9924267725474911
Ni 6.205187955984037 1.7752365761150135 6.3943992409934856 -1.4154812504572654 0.7142280327251893 0.921911975901851
Ni 5.072419184316201 3.0962587064099036 1.7243109883483645 -0.1800803225267802 0.9586070173300394 0.4349056992759348
Ni 6.707446806161734 3.9614281979408656 5.372169620657532 0.14141735873894354 -0.451177696963081 -0.4903584809276007
Ni 8.287775443273446 7.009133456988059 9.719304331254438 -1.346800657261416 -0.1572116454587228 -0.5716809312571768
Ni 3.292943668267501 2.6617858738617324 10.662167668360366 -0.563771446602113 -0.13530044720792828 0.7058382659995972
Ni 1.719103015639444 3.9998007852008346 4.10043395965275 -0.37368978988824675 2.113998043094785 -1.1857403274805642
Ni 3.1084664832058273 0.5258053285298642 12.354578319875896 0.7547733011374033 -0.027711349872339374 0.16275828630856484
Ni 1.9399906585594673 1.9162877651748123 4.682658838273797 -0.174821388120686 -1.7048077463070836 0.5456940202751117
Ni 4.620148357242965 0.914060758342536 2.6690846250226614 -0.23217138679506466 -0.5972274122677135 0.1348636167808258
Ni 0.5831698475451287 3.278894081325718 11.010668690537306 0.065164609622791 -0.3207628599822282 0.36496140887631345
Ni 9.156989512863406 0.819214014559924 9.006332219530304 -1.1526633424209374 0.25471559064416777 1.7000812873656912
Ni 3.1106414851368673 7.228382906964278 11.058351211594863 0.6310446179274745 1.7548966925436744 0.4710867771821822
Ni 8.823325705987108 5.215534311378647 4.5783809159051 -1.0906933284760443 -0.5860683103271004 -1.0203610586093848
Ni 5.582193360315195 1.7877220127319209 10.541269029107577 0.16900015345321864 0.07651885829334563 -0.38221685352265145
P 7.173285943153714 6.87805025550158 3.936674824900155 -0.5523593481104293 0.25726201121510534 0.5132772945073032
P 3.5547583688005444 5.53302906134632 9.949697195379477 0.8512955991358694 -2.230229132376088 -0.6171606608565307
P 2.3542683667947464 2.4953010451998123 12.781429390338058 0.2032629312908306 1.107960085976292 -2.278146010662025
P 1.602013869130552 1.9911355975846934 9.427697657462563 0.25760036839113054 -0.22464191118723895 -0.7002075500763811
P 4.2296013083744395 -0.01619497182525169 10.608173014039108 -0.20734507178000422 0.27689984005069085 -2.372163025740134
P 4.480226318121834 0.8393202877301017 5.351687581196289 0.36684345639037463 0.9703842124706257 -1.1017544713862124
P 7.9147672397637345 3.14424757880328 12.729913312685452 1.7842468635710174 1.350119951442636 -1.048252385703014
P 5.786217796774131 0.39171322011665743 0.6520692810567993 -0.32083742197390547 0.2139476646981864 1.6569263492447723
