# total energy = -340874.85512105026 ev
CRYSTAL
PRIMVEC
9.13955338057100 0.00000000000000 0.00000000000000
0.00000000000000 9.13955338057100 0.00000000000000
0.00000000000000 0.00000000000000 13.37666021268051
PRIMCOORD
 96 1
Ni 1.6061851228298598 9.005339104934013 0.37273932219689576 0.09144591191682315 1.0574697905362238 -1.0235312288072502
Ni 3.0691717222473023 1.1347212582504909 11.875424848393955 0.05455829486185442 -1.3690700101825775 -0.46465387707264494
Ni 0.6707161832394695 1.5949891698569079 9.473578535057172 2.0283697663010036 -0.5186727544912615 0.5323723634655412
Ni 2.541965721192803 9.046028396881425 9.725888703344927 -0.5099520867888121 0.7232317788856963 -0.004703576123256416
Ni 4.832182442679516 7.619307545542902 8.370097184444923 -1.1208533969991923 -1.1046641888338393 0.27794525059606967
Ni 1.844453281201172 5.791012994836569 11.711239168400486 -0.24884241969284243 -1.2201383453444599 0.7819007534818146
Ni 7.454603652868968 4.347767830865311 4.6211812280629 -0.8643470330031888 -1.6430339075333962 -0.9339838194647205
Ni 3.180692553411351 3.274784256151384 12.581738678355343 0.8066537920567786 2.700685989283755 1.7310790212987865
Ni 8.807650563868746 6.156001061754803 4.923213308970045 -0.7499900208161471 0.9539175822741701 0.14640966974721237
Ni 5.266393487407657 3.7072496461710913 7.561625081870908 0.12273418050714348 0.5936533217632098 -1.5731819197372647
Ni 7.223637997702055 7.185827665090542 8.117118000844824 -0.23227345959056772 -0.08034183158386164 0.34264474765698405
Ni 0.1350204509877665 6.23076260895378 7.547806991013923 0.8004445779222731 0.04267208494722974 -0.08501198336602132
Ni 8.337475376325447 5.768292064966562 11.923700883657979 0.23466612819246035 0.4459748126059029 -1.2899466243868494
Ni 6.219265050717067 3.7662546032269097 11.155866891532074 0.3437526360091822 -0.0112280075053355 0.16527976717883794
Ni 3.547992927351754 2.4209945917642384 8.82549280010858 -0.6544799661322792 0.7089984088951338 0.5494863974380085
Ni 2.4711890192968524 0.6958746320138736 5.398231545885071 -1.0644966154760183 -0.8526338583313187 0.8455648672996792
Ni 3.016619289925283 7.24395522501542 1.5969322389198055 -0.5060671499121091 2.0826753217221032 -0.7131826221798104
Ni 5.15446137633848 5.159871991979286 5.111716598820767 -0.08482969215188615 1.249662322945506 0.17693560625021143
Ni 7.929019593211819 3.3599648942802918 12.88391790607299 -0.7082895557535672 -0.7249089094778032 -0.6893346119176192
Ni 4.928888057705478 1.0189413951799966 2.4654256168929796 -1.3869450906907856 -1.8734368895741285 0.3051878883621067
Ni 8.976586069788782 1.8004646104592803 1.4107156653416002 1.033972221634916 0.5871324899255566 -0.3557699721850324
Ni 4.34020028061094 5.496627978298787 2.014177530583711 0.5887813383828892 -1.7649679607367474 0.1819921948375124
Ni 0.24269535806118828 7.484444294874429 9.998224547191079 -0.6562812810070762 0.08342895514961761 -0.13474071804971632
Ni 0.34741361959440603 8.796683099731977 2.299274018952994 2.775841391570671 -1.8319572822731032 -0.6377027466739403
P 5.461458976633546 5.88324022867335 7.176725583812369 -0.7108794279679306 -0.08970784617979388 0.20447109266631883
P 8.048756882924996 9.126374211236708 9.324963912271878 -0.7113319421243168 0.738013050959929 -0.191974759971521
P 8.613334518025537 4.236256139254709 6.374526870724585 0.8687029959790393 0.4859387545933501 -0.7537412603284632
P 5.830870587420279 4.084457296048376 2.9692444146311634 0.7169006944613461 -0.4200092417800767 -0.5708918596969781
P 1.7703132236366121 1.7679278001868646 7.42474198989058 -0.7646836182725798 -0.32816635153515095 -0.026847202099831182
P 7.435355753308938 1.3055120935203302 13.283625308626856 -0.9025577397449553 -1.7707601419384922 -0.8515534807829463
P 6.274276022916412 6.253492678377235 12.641519583498837 1.0120016309010957 0.14242445984721921 2.3970461621350587
P 1.4451918888555342 2.122743544118245 0.00888364595078311 1.017988701722466 0.2847224214189032 -0.7059269690586616
Ni 6.702144217552123 0.10904584009051793 7.175173687637017 1.0095963638937127 0.003676420410322701 0.2659567107756259
Ni 0.4663831868180107 2.2943934974121314 5.5961120175727315 0.7048550761507215 0.3567775875139404 0.2758755125512346
Ni 3.1090658730448006 3.039970848983154 6.023710595381747 -0.8913477299617488 0.5206782149570646 2.034032621013736
Ni 8.309956180895604 8.5720420155506 4.13758826210361 -1.3864912909828184 -0.44375620768802926 1.1785108996116607
Ni 2.0045234202773194 6.091484953970258 3.402621018129567 0.48514865459188705 1.1167167491229992 0.14753838403501685
Ni 1.365019726015751 3.1024488363489495 11.2645124191816 -0.5235439665406338 0.14968242696121317 -0.407503138893266
Ni 0.6239134439911513 4.461600969051529 13.400337406148976 1.8827216573101637 -1.144840503942409 0.18257403548291137
Ni 1.2055345183602308 7.864302415251432 5.387235749132616 0.9545852977651561 -0.6175589247362139 0.7670750013228917
Ni 0.8709299829222268 6.6803281034734 0.6523447668550362 0.5150752669479904 -0.5007845613569311 1.1479610518492616
Ni 0.5893906087546359 4.901524234684239 9.779997601619023 -0.6475174187715171 0.570553759631269 0.7237611690266051
Ni 1.7629010457908454 3.896913659309621 2.068526799113471 0.808936160333052 -0.20297908150182462 -1.0991998232851585
Ni 4.8667025360499965 0.29042576198440817 5.147205484856663 -0.13063672318367178 0.8185042636374613 0.4298997614209112
Ni 2.346671743130732 1.4321040483189895 2.1113456070141075 -1.3087239049943524 -1.7152058017119556 -2.337013474422194
Ni 5.185636393147247 2.9253425696470203 4.9613499236396255 0.3712325865970058 -1.2200110757379763 -0.8540572210414065
Ni 7.3284503966357795 0.2297144502999771 1.9449125108279446 -1.3425557659421328 -1.1558201428823642 -0.14570338770880714
Ni 5.194666271953187 2.1417629548420924 12.876279981257076 0.8956741252512447 -1.6495405983036624 0.013114425894770961
Ni 0.8677676974294583 4.35008013788748 4.053101316081352 -1.5718449460933963 -2.4457590539597303 0.6695808263294597
Ni 4.482366034483812 5.59028098247335 11.8556002430114 -1.2554555325885153 -0.5706833432305977 -1.2291014680750185
Ni 8.265556230248583 1.877108905668403 7.960236651966442 0.24084371775808197 -1.006117147095861 -0.790023125478633
Ni 0.3780201561787501 0.7861176687972452 11.672433538418561 0.20531132917942707 -0.7885393418442548 0.7527606415827487
Ni 8.311747533371276 3.8894375045897234 1.9758663504432865 0.09438134039606326 0.8514359813684756 2.080582186638501
Ni 5.291956818399778 0.5160676272682649 9.33392615838231 -1.286866442799629 -2.2807047725281366 0.5358004153104837
Ni 5.956694819729363 8.595932808261862 13.010340779132873 -0.16776833792864654 1.0670808312634266 -2.292529790187523
Ni 5.6901580225455275 5.318964198836572 9.3787648075948 -1.5263006818046938 0.1607145164056587 -0.6888445596550781
P 6.191425970916568 8.644408999746382 3.698271862819801 -0.8203490301556838 -0.9016023178102214 -0.7791252476192065
P 8.337795260696103 8.097936820024959 6.23111630967219 -0.29930571854971677 -1.1845452787311985 0.35946824697222607
P 2.945422168570756 4.544999394258212 10.006638420094669 -0.2938506089724165 -1.019402037130225 0.1280342525638182
P 2.9940720115707746 5.378051411873416 0.20482836021830292 -0.16738061557192463 -0.06767734874231571 0.6373103963315282
P 2.490720245013749 8.383950005605007 3.6604030370662257 -0.2008566358421831 0.5576385942314978 -0.27808409016677915
P 5.247310099809679 1.5261957510590225 7.069765389818527 -1.38119944645626 1.7470591987771267 -0.49666976785760913
P 3.350002781022727 4.3831287631529445 4.2720237816707485 -1.9564971485304177 -0.5285992695763542 -0.5922137611032059
P 4.7870239090963675 2.1133115249606234 10.69731538806306 -0.4965517542225061 0.27242329233657603 1.313687676757531
Ni 5.625093541554144 7.5233879321134065 1.5577793059068838 0.012036619449559915 0.022552174268903095 0.9511873278272005
Ni 6.274376558004333 2.3827547001407026 9.070405413836086 1.3955557151779319 1.4665916959798355 0.6634392322080961
Ni 7.747096781843157 5.657676049593797 0.7720290471582204 -0.6637721900674827 1.6091195141741386 0.6924286774619107
Ni 4.255120177569952 7.160922381946629 3.6351742137302776 1.4616145544802182 0.8362122224401857 0.8441926695425009
Ni 7.102209890601125 1.7590075960222922 3.967638265750922 0.15553502908724826 -0.7900210685961039 -1.6459094293089784
Ni 3.128560540547908 5.046706041194722 7.782273095151155 1.4373801074128858 0.42652133186698155 1.129720360471519
Ni 6.505278236297115 2.360810632313717 1.6176397251653705 -0.06980390816701526 1.9164786991559508 -0.18248070443815673
Ni 6.7559853269102135 6.136140812113803 3.2147328202258487 0.2500806629753177 0.2249555857729158 0.15444051047148885
Ni 1.0504271568059715 3.8126286974185493 7.815006405822688 0.5449792535962744 -1.4395645166587145 -0.7965971791517248
Ni 5.7501134931598665 4.313604180079275 0.3330882835210959 -0.4096590088940042 0.7238570711745211 -0.10917649642736682
Ni 7.237191955464412 2.36983137156621 6.032593327377185 -1.0840375137224234 0.8347065844289367 1.6045241814939721
Ni 6.199596731698461 7.303965532950443 5.688264307071246 1.3379923149411668 0.36896744471191295 -0.865221208078026
Ni 3.796963502809864 7.294679746647978 5.952934807441141 -1.1333970379921576 -0.16722789204414426 1.1036699432413701
Ni 3.1351227399230748 2.0781151046350415 3.9283774860073226 1.4461948774910383 2.7905326750342585 0.032891608521698194
Ni 1.7423279109809557 5.311067624658098 5.959034545411874 0.5097566829485544 0.4824536242582272 -0.48950538889868606
Ni 4.037964387661921 3.103527303655732 1.7900107892262496 0.60292317710091 0.3800771814718293 -0.2428322089430205
Ni 7.067762913658222 0.8090524642179193 11.067888636092944 -0.3623825924055436 0.8685834396820397 0.7867678517661288
Ni 3.1273084217256266 7.679537202760659 12.51635339903796 0.5927068986895405 -0.08131987922641479 -0.5170277626886708
Ni 2.4882342864760814 6.681296896138814 9.718585286185183 1.1997728943142305 0.09016550254250279 -0.8502715287467292
Ni 6.4124752105931515 7.384960255600483 10.905188133534661 -1.2148572994511788 1.4030437960248612 -0.9228414296946558
Ni 8.152938652670857 8.053061612598677 0.021916649166643928 0.16972828986849478 0.5452618178336996 -0.09469681475395304
Ni 3.378637001973142 0.34741544750509545 7.540329922338681 0.5763626530035623 -0.9199975324879575 -0.47407568460717714
Ni 0.5151399625933633 8.931162489155662 7.815393922888854 1.3117228397216765 -0.6842237730536151 -0.5039755574904029
Ni 7.8190890443476 4.076469326335428 8.332816945933354 -0.977087335522414 1.6821882091353544 1.008103067177638
P 0.11987895279161179 1.480050145703566 3.578162593281317 0.35236043228285124 0.0499598768578946 0.10570987803500505
P 2.2935892167087686 7.171697915461006 7.6336054629558685 -0.1732411881177597 0.49084004854970953 -1.0325676279779055
P 4.156211930163188 9.021251067485775 0.6198454287517546 -1.4402790262272356 1.025768345667885 0.8302189809712283
P 8.932368910210707 6.450495752933953 2.589748220570673 -0.10366533680115052 0.02890742706296957 0.6660386175041562
P 8.466242544844565 2.998486415885824 10.392781811377388 -0.8969910442904552 0.8187094376697319 0.32150308058236243
P 4.177333438179916 7.996277567030556 10.639795608442428 0.8963120159455596 -0.14799244085329996 -0.3651390721047582
P 7.577649460930072 5.998727626033532 9.864136330654938 2.6131496968339833 -2.0255050431586987 -0.7457194184652512
P 0.729127983276558 7.642933291204192 12.105917988647642 0.5299776379811195 1.1436786224238238 -0.3418898717688305
