# total energy = -340858.183378413 ev
CRYSTAL
PRIMVEC
9.39993560576968 0.00000000000000 0.00000000000000
0.00000000000000 9.39993560576968 0.00000000000000
0.00000000000000 0.00000000000000 13.75775591909776
PRIMCOORD
 96 1
Ni 0.7644084047306458 0.40733117027610427 12.710570388027238 -0.278449701036314 1.765404534053534 2.3332486080631236
Ni 6.916312831655555 6.306623607286399 6.4737948823661595 1.3421266488245143 -0.3314594204641259 -0.63343908630158
Ni 7.510717760703574 2.2204809924015234 5.933279784238237 1.1811856182303462 -0.751391529149364 -0.71624094939016
Ni 8.125558149793507 2.5485293456686513 12.493307796012171 -0.2207376910368263 -0.9642019949193135 1.6974883298275345
Ni 2.057598907946015 2.0995226208194895 3.507649896857532 -1.6250917212326788 0.28820266665801975 -0.4835784818912897
Ni 8.934197011599231 7.78236650023957 0.6970146262961919 0.4789214427352526 -0.11622080486865789 -1.2084539670279961
Ni 2.6791602510055745 1.915979477867143 13.798204039057437 0.5472066002648962 0.4384473938806062 0.12439099938427609
Ni 8.674504990174235 4.467093805831804 5.1379305514146925 -1.7383490725976383 0.006417216380253464 0.18274629939471754
Ni 6.176528498279922 3.958604288367542 12.110910894966603 0.8533820493512528 -0.3663400343913949 -0.9916459500628793
Ni 6.422562413246362 2.22811374012647 3.161711586114889 -0.22708625896267343 -2.6172446928389634 1.085272671681105
Ni 3.176134847333064 5.891945447328252 11.329250788389164 1.650501419555035 -0.007905113779689612 -1.5446095074162107
Ni 1.52356036546155 9.318005782975206 1.7627953069927025 0.16845713646555505 1.4796868386008966 -0.5145237653198945
Ni 5.196933007319516 6.70865885383315 2.243449735093527 -1.0128223270301782 -0.362187445675602 -1.244086114409309
Ni 2.7709600222886133 9.183577303647052 10.158025389860931 0.45109902120634565 -1.6389905907019582 0.6208252541923115
Ni 9.145610963670379 8.243799939980825 11.44788361589835 0.44667338133482426 -2.3538588281143076 -0.39378733196907023
Ni 3.8119746926022215 3.7075226079721655 4.396112071970489 -2.130393967954305 -0.17029059012986802 -0.8903036049679506
Ni 5.75356899503892 4.430471656649057 5.0833808450139415 0.19791503671535593 0.9641168914046749 0.018653096324813035
Ni 7.298316815392131 7.405476081481282 2.869523987245139 3.4000358193455313 -0.32344323502786876 -1.111661188976963
Ni 4.851598172443795 4.39360510914014 0.18673536108952857 -0.2845828105172454 0.5582777704773934 0.8992793261039995
Ni 9.024370594019688 1.2636427455816293 7.680281319399098 -0.2961558600668255 -0.9284991422010654 0.35659889584423105
Ni 1.2444668769130445 6.301989439024824 12.499141396059095 -3.8410602299246945 -2.8984907256734918 1.275271795983494
Ni 3.6083908869040795 8.60041469760277 2.703660243210378 -1.0652934003457009 -1.8571013856388983 1.1076798357317115
Ni 2.1979963463940457 1.8973112057221384 11.227127067812642 -0.04840641632784566 0.6635101946553477 0.3231956377934369
Ni 0.8975904525953403 3.885237790838962 11.796628747417682 -3.107233192021655 -0.3106016031785102 -1.5903185794175514
P 4.575155465740653 6.856510441229311 13.69038395749407 0.7516545530027635 -1.0684679414189404 1.1985431356721876
P 8.481383312823217 5.79120633726883 12.112919661208993 0.7146296390389821 -0.5681022127669829 -0.024202051167500252
P 6.670081518041055 3.0032888311183887 0.9861087063527894 -0.3600701422222831 1.049164355994322 -0.6750233375012697
P 4.5975931120700215 8.215336934917847 8.12519343229138 -1.2880041559484978 -0.16240373118262352 -0.6082399613281331
P 3.087728452809515 2.6121293100861247 6.10054693866134 1.682122903115058 -0.08547786725884633 1.577480804222935
P 6.908604884445634 0.1304645264764162 5.192217999611592 -3.083009286477284 1.2868011367793322 1.1626248245090236
P 8.504995951105318 8.445625957717679 9.188254711612487 -0.4949890377210765 -0.3021982096061634 0.8078794369337635
P 9.19162364853936 2.2887621247586805 4.0621285993517215 -2.504232110494958 0.9361641149454908 -1.7043161513826453
Ni 5.794599714028318 8.80813447497453 3.2705628406159732 -0.18222487967360873 3.9545379248305763 0.49471547234471575
Ni 4.305433713007137 9.184188299462473 0.6530342075086555 1.934112353077314 2.0814715312219896 -0.6395544551706985
Ni 2.888421617819317 3.50949416422654 9.553317191377795 1.194602920077517 0.10372575772544072 -0.5199768180146658
Ni 4.659754886337351 6.135995975878481 7.0702066976694455 0.3809086762341891 -0.20045862907281606 -1.132477611501682
Ni 8.614928198202916 8.760730599633513 4.542164511688627 0.8813600226214177 -1.6822044070852706 1.039590596262958
Ni 7.1677611095401845 5.447601090547531 0.9081306004081267 0.020935721711402653 -0.5084017115825566 0.28304503371648027
Ni 2.8689637510820765 6.646976476282536 8.259730010879183 -1.169247986252496 0.28293473339086106 0.8711694552416609
Ni 1.3957494408111837 4.357951153326443 4.380868196372526 0.9174158878037103 0.6511750701287624 -1.2152635337506619
Ni 2.569021205324296 7.678252813291902 5.801907223980749 0.8521548618123712 0.018504229451774584 1.9279028818324926
Ni 6.721621365055688 8.38199779349334 7.945255164650014 -0.08531640198031758 -1.1399996309103397 0.581922920700159
Ni 7.840251303798955 3.7799867116810484 2.7235683668639052 0.9825571003877337 0.1990265246119798 -0.008979577790790987
Ni 5.714925859697473 0.9641043970555884 7.429669635784814 1.1604596985369047 0.8473222163104182 -0.4649600954591541
Ni 5.502656513484737 0.8699226820859715 12.537153795720316 1.0776907455687892 1.349655867322024 0.2156577054107576
Ni 8.753586648560903 8.105348288206518 6.860387914673327 0.29738356182633946 -0.1950318016302899 -0.266684847190902
Ni 3.9670454305559684 0.08308227098733022 5.3672579608004085 -0.09416973860588944 -0.5406078640014561 -0.5518849795771722
Ni 6.556633695020884 8.023982445463739 0.690179933105541 -0.5443830147731721 0.8841031325841935 -1.0272765547822953
Ni 6.9738028379188215 8.96448360417285 11.155160220698155 -0.5293945117841399 0.49126042391657976 -0.9246967377358398
Ni 4.739466340410684 3.498439839935238 7.536402144796732 0.04648143139099092 0.1729262279805022 -0.6514895160453876
Ni 2.1059709766560823 8.108910863807202 12.319038629544348 1.8526808879736993 2.925066162169175 -3.6632905578089616
Ni 1.1079234120699744 4.997156175548224 9.471237893521316 0.8200518106302392 0.28820240954770365 -0.6093331943923119
Ni 5.258013788990331 2.3692443735530055 9.630085525607926 -0.10230393767724962 2.714780262593292 0.48487200389173274
Ni 1.674260133351134 4.453567298471955 6.868944676069902 0.7972057592700011 0.7648905920770632 0.3036827645714899
Ni 5.223243427125089 1.9664853319633715 5.258214007619076 0.023411436945404842 0.18348806265674852 -0.29437382846573823
Ni 2.680175444052735 3.896188715838423 2.138491933927015 -0.19542312353143762 0.8978873308524793 -1.7122305211337157
P 7.866232725857763 0.18714707826976582 13.049740745122145 0.40656571468066105 -0.1891588877892807 -0.10655551386475197
P 5.213852891438854 5.083278385715663 9.96688897891325 -0.5640910347250608 -0.7267804154689032 -0.4091820692575856
P 1.624694272817091 5.9024357754822425 1.153480200061296 -0.08442345785240299 -1.115538155433866 -0.21194811776965433
P 0.07509420569587759 6.05938650056036 6.411595508356343 0.07965946080485635 -0.049858061172707684 0.030032027585716024
P 1.0694494755697206 2.073964195863665 1.3958622400386458 -0.7611396096750634 0.8593701486138877 -0.03399435466757371
P 3.3954447453265697 0.5534259097045414 12.287478345693968 0.5537418302802528 -1.1777092296459717 0.0771102120204414
P 4.222413481594911 3.606191301968565 11.367387267200593 -1.455937558700099 -0.3571712234079332 0.8599062236230158
P 7.243110993484977 1.5744140171757872 9.543645597616468 0.21764259705127034 -0.055375905667143344 -0.3042471217153921
Ni 5.1510425216136175 7.2075980367056065 4.698617980172349 -0.5740057227356115 -1.451042435391327 0.8191604091642216
Ni 5.023983591813 0.2505035843546327 9.707005198801566 0.8031419222487781 -2.3132464539095836 0.687932332253454
Ni 0.9188399470621065 6.918540616397935 4.459962074675503 -1.0898942296135166 -2.1852291706266302 0.1326874350651134
Ni 2.647040670985695 7.880783826200395 0.5544664825778809 -0.6821545492294123 -3.834048831603868 1.6802046030464226
Ni 1.798264084074649 1.2882235772327808 8.817070993770228 -2.481359319661843 1.9174798867269556 1.0768605363580097
Ni 1.1479295380765904 8.47394796374633 8.42425896405564 0.2134275305286582 -0.06360549266578723 -0.1350191685220836
Ni 0.21041943888235518 4.080822251322905 0.3339947525415137 0.16250888930192012 -0.09588774973826067 0.8677917970186797
Ni 2.4904565433968293 4.4573648724631845 12.976631805829603 3.1770653823234443 -1.1065896879913266 2.9315939359853638
Ni 1.5291815269634195 9.07681283485402 4.197298733600438 1.4167094664374118 1.5775106290196057 -0.65221790957098
Ni 9.10341465266387 1.1025748487011386 10.76677838064215 -0.7557701178330339 0.5534597802634598 -1.5473425900766578
Ni 4.712864522600833 8.137505467968886 12.023081656490234 -0.32956580298583893 -0.3957118026852927 -1.2544111504844009
Ni 3.4383460515047175 0.8626555918567151 7.637907349609336 1.4222975020481503 -0.7335627284980593 -1.3303237426523153
Ni 8.910198975956634 0.5629264246375506 2.7213800618511375 -1.0633573596652526 2.5094645625384913 -1.4730299954060118
Ni 9.22323563203566 5.462725586963096 2.50424154898628 1.3811040585289762 2.2801064768225054 -0.1197864107327292
Ni 5.349559762011579 4.3653113029183555 2.721201463074322 0.29340066591919145 1.0336534048429165 -0.6764785818905575
Ni 9.064639918223717 3.7090641974141496 7.967694690966508 -0.34333714573831836 -0.08674079313166998 -0.8317066212603482
Ni 7.019176327165518 4.848308194976147 8.75494023929045 -1.2694706159206848 0.41841078694470524 -0.9313067868531897
Ni 6.478454430453914 6.3727333545149065 12.49398177139626 -0.3156620484205531 0.3218236971465748 0.006318743129176214
Ni 8.215111336462924 3.6489422091767634 10.283234412331167 -0.7281793526989588 -0.3113852754220702 0.9212005516571231
Ni 8.673630796161403 6.2050009032785205 9.944119514856428 -0.5048985835253047 1.0678711883752061 0.3955475091932865
Ni 6.280961783038734 6.8234038679691364 10.096115533868266 0.032887237646324 1.474710468432228 -0.20205502702565845
Ni 2.933184111250592 6.206674091819211 3.2446293582288366 0.05197536462602662 -0.09857532387275281 -1.2156731104842546
Ni 1.0643359105914314 2.322912090872881 5.615282782131558 -0.7124300602845021 -0.8550265269332112 3.2579044652586986
Ni 4.568998507908338 2.321802898469502 1.849977829898286 -0.5817223746535788 -0.13451086142709737 -1.7082483965575161
P 0.19351835463425934 7.902977074203596 2.685266449185532 -0.2814936300689604 -0.8779607671318815 0.40731981923786625
P 1.0537609830168442 0.07360713588050008 6.230708787210733 -0.07624195048287513 -0.016690059061171256 1.1355053425844122
P 7.004465427917314 5.685532261007932 3.8863046835320425 -0.08457412449765435 -1.3620539838760606 0.04064168478076226
P 3.0283114597437675 5.639528976074572 5.2838720718924925 0.8286390380786182 -0.3460000372824622 1.162465416113024
P 1.6971113768478645 7.011167582015697 10.129216467167069 -0.0944582163805857 0.7868012761072256 0.5162685159251431
P 3.8256327990607772 1.110931391468968 3.38995236294272 2.2673977710065856 -0.48816198749691414 0.9345923995829968
P 0.7268575419084582 2.8708061384639603 9.846742761768944 0.39919153370377697 -0.0110094637366262 -0.9207467519491561
P 6.946665223778526 4.092769569498283 6.674354728774751 0.5299174741671454 -0.15760091047734148 3.1663940186525275
