# total energy = -340895.4796679487 ev
CRYSTAL
PRIMVEC
9.01062969077242 0.00000000000000 0.00000000000000
0.00000000000000 9.01062969077242 0.00000000000000
0.00000000000000 0.00000000000000 13.18796736085946
PRIMCOORD
 96 1
Ni 6.503638078587128 1.9535134807789807 11.22454293895818 -0.9232404649052872 -0.46893810627029564 0.8817734560097523
Ni 4.748097138000282 0.27119111317894673 5.756007228736152 -1.2277819779326469 0.3383672033275527 0.17380580237197807
Ni 2.8111632154550428 1.7283558714611955 4.805537197713669 0.08164255267315618 -0.3556175057675682 -0.29896401893958185
Ni 3.267254247583998 4.516875375045917 4.874245950648313 0.8781101482255522 -0.41150223275033004 -0.28963220001569473
Ni 5.027399619832497 4.60184561099384 2.660210843051567 0.8137091562416633 1.0750785047569227 0.3779483080542846
Ni 7.350952621255527 6.0762459013356 2.6233636759400243 -0.28073566885701334 -0.05795703613075825 0.19720335536031197
Ni 5.105602873044802 4.488969455562278 11.454606836025027 0.6724702320621128 0.5922397292451348 0.08896428314555001
Ni 5.702079512392065 7.595546158350584 12.452882761726375 -0.7108318625594467 1.0693068923804683 -0.19027988876760132
Ni 1.8229494596882687 6.444861742522621 0.3947529741047454 0.3390583158573064 0.48143675295793864 -1.1065207824266041
Ni 2.819236739464517 1.6517565102954161 0.28878526829155704 0.35899259288738816 -1.055734295902356 0.7844309761028361
Ni 0.7348609857592063 -0.18591091157708792 4.606029246259017 -0.6609041244910683 0.9841239306542212 -0.28458461028945825
Ni 8.392815664915613 2.308730515936886 1.3024189108698567 0.7100340492484998 -0.12887011820155225 0.31785237120365256
Ni 7.015586002830737 0.6533931814881605 4.889240539157427 0.1574276181242708 -0.2892300794812696 -1.0319510774398293
Ni 0.8790292552310608 7.2830575281624625 2.5249946339629847 -0.7575626909570824 0.9744923211017281 -0.1926509601029392
Ni 7.381868090983769 3.9074234292548553 3.9479757672064597 0.9955036332460725 -0.12470030309457877 -0.8653574765455742
Ni 7.689418896219669 3.6204168592216353 12.550184044110646 0.12976974719768616 1.1966096660949004 -0.12614243485774404
Ni 7.755394725234589 8.567198377142565 7.041701510237722 0.16266289838128115 0.80295783126243 0.46691901895773785
Ni 6.88084104966369 0.5359927889972707 0.19301939716980449 -1.0010772706791082 0.8623875952839728 0.907134046261728
Ni 1.872724176907392 6.447817228990375 9.28159892655321 -0.5137519201508766 -0.6240239636352672 -0.33461236427081076
Ni 0.13239498100000333 4.712099673248219 1.4145282617331092 -0.4164222957597667 -0.5011026068179821 0.1693166562523729
Ni 6.288058768401119 1.993790994531602 6.727682875164769 -0.3264046316490379 -0.0024870280879118463 1.3190345428917412
Ni 3.6388706283861474 4.252476474365119 0.606274797838226 -0.39433729093526926 1.2221227227643405 -1.012727710433843
Ni 5.938491397923951 5.601421770528412 4.974488302493175 -0.6277068118034931 1.1329170130319457 -1.0914086093755138
Ni 5.221434514944118 2.938519452452705 9.219035422920419 0.11511805872278238 -0.8459615885174657 -0.3963255250098916
P 0.21969086041538816 5.410396425661395 12.47093736000515 0.08406298918919071 0.2535796772675117 -0.34365133454462754
P 4.015046387702575 6.121055761714076 12.746697763390799 -0.3440097463253108 -0.21878570951677806 -1.1930839123298291
P 2.39655712142834 8.48598557368566 1.2835218187351818 -0.8223501197461127 1.2680505956447063 0.16952363005685642
P 6.2382119661461966 7.733751193235977 5.797707520882853 -0.019776411295978843 -1.3657710277163317 0.17179211437605896
P 4.777003237355631 1.0111277865213413 12.52370270514698 0.5256702688550172 -0.43010853499760765 0.30455822519790776
P 3.8559817455828833 6.210630429323652 8.28146320692825 0.577259968006851 1.1631616708491002 -0.12987567664793118
P 4.656684301977834 1.057154081878923 3.614900551857126 0.22609561291462996 0.3252095828996721 1.9398333147214912
P 0.32571893744605807 5.533553709323772 3.676634176515283 -1.0712570741283034 -0.264409420893164 -1.596977736605282
Ni 1.392574764080562 1.36866956408376 2.48027397881631 0.8415626881188217 -1.1146596094836545 -0.26559778477431034
Ni 1.8458634904428362 6.583958829726025 4.778080007577877 0.8078228726642152 0.05200956029807172 0.2433160905579745
Ni 5.982183940247544 5.452214757054216 9.310638383224788 -0.08906635594105305 0.5107015633603269 -0.07373589623156979
Ni 8.635904426888368 2.2966472618110996 10.00324402206164 0.3727487661312161 -0.5532396938328537 0.2402791035038636
Ni 2.2896550133386087 5.3859235560076755 6.9868132607916165 -1.0060281869264802 -0.845114667136138 0.5464344979855622
Ni 0.582578644445241 9.024595950545375 9.11119711042825 -1.2766000278766143 0.5803578902058845 -0.43278659605040304
Ni 1.3614700711333476 1.2190390510242457 11.347006404150994 1.1026006214365913 -1.3226235457945803 -0.7157303283023287
Ni 3.906333143088397 6.9140362086490725 1.5972214775247249 1.4565407395017367 0.2693222848137491 -0.07272493846855217
Ni 5.481472270959085 7.877605892802105 7.991499348301381 -0.8366004590175398 -0.3170180482278153 0.11325143782768882
Ni 5.120028890834051 2.987555298054889 4.643100778044484 0.38337384994523005 -0.2998867878641674 0.6452440493563082
Ni 0.6771370912173624 7.338707175799193 6.909017288031575 -0.006772028616510918 -0.6654562626381249 0.07125606723250955
Ni 4.9768950416259115 4.771750040371788 7.069766016800119 -0.7272642970838572 -1.3322140176964927 0.1213486130135265
Ni 8.091049683802574 7.174533506767256 9.174974345851304 0.5582978250820514 -0.527815083112162 0.1170345590192049
Ni 4.753161111765154 0.27320408780363026 10.447823975036462 -1.0927772075882665 -0.2603054260271194 -0.330517882486463
Ni 8.10607941376664 7.101457301726147 4.849558628013094 -0.2211200140769095 0.396568237148317 -0.33924266395397057
Ni 7.029894882436814 6.012693931649418 7.2621258358923635 1.4263819565301692 -0.14576020908867157 -1.0737682705859313
Ni 2.2621725934402876 5.336707497815994 2.4238295936598964 0.42438217403679174 -1.2891282422506123 1.4512432385482235
Ni 2.305766018839657 5.173588072432616 11.407024404957136 0.366532095797543 0.015026812426135412 0.6891903730302711
Ni 1.0707150792385862 3.39496189913118 3.7786164809117406 -0.23353741390465588 0.509204152879194 -0.09737230470358714
Ni 3.78478876210202 2.754062856472859 2.537866318167821 -0.7679810580769291 -1.1492818275432144 0.18637309751402742
Ni 1.2181019455588604 3.3532877378099553 8.312257033158582 -0.35554680043063286 0.2136463314076837 -0.9103119297690774
Ni 3.600719623189593 2.6957190306231453 7.141785275003826 0.0447734475609487 0.03826804234226313 -0.2915592418350785
Ni 3.955116691065286 6.815441900935161 6.084202287161901 0.8126092383092649 1.0362183373566154 -0.43096599790189655
Ni 0.7391509464521869 7.356971721744733 11.284469031343681 -0.44204436720324514 -0.5791492146097639 0.26753613944760374
P 0.15886821039714008 5.397988788874512 8.140404505688169 -0.16424926903179454 1.0087476427401725 -0.3658895771175376
P 8.407935501174427 1.5389344186407024 7.781019153335194 0.18465997147766264 0.01183710184424413 0.4219015737067831
P 1.9157319113908955 3.177355197313327 10.388306965229122 -0.22330776575684766 -0.13099050697866474 -0.0644369874281471
P 3.9294273864324616 6.19380758409409 3.681605340796563 0.18053283668316653 0.6093997859641892 0.8873460650015234
P 7.000258922094002 3.8189210265527866 10.355838062979414 -0.5083073520965374 1.153268322994788 0.36042726845138573
P 6.26972213741978 7.737733891463864 10.106809494056831 -0.019884397628752853 -0.6769586068507696 1.1802944738746446
P 2.5082618950281708 8.554412293917741 5.816553252429521 -0.21049981535890203 0.36548514259026726 -0.8405406746122105
P 6.847943241450979 3.9350680404837237 1.6396597402254176 0.7455687518199998 0.1713056616579437 -0.16700034941437047
Ni 5.367271552994717 2.919038471528059 0.19429800549228704 1.3535536597145335 -0.9401616661406582 0.6320434915056341
Ni 1.3821134232602503 1.2141913323667717 6.782030486842382 -0.3242844999822415 0.3555678834765554 0.5653848138358198
Ni 6.703511861598458 0.7777948330810162 9.100725857915515 0.6022289792473627 -0.15811050312390834 -0.5761086280112272
Ni 2.6857803063123753 1.4052887622695884 9.137151327567635 0.662341114047911 0.49207032141238477 0.44269254231020533
Ni 6.460405078366753 1.9805093266856593 2.660896551954604 -0.37386616756511093 -0.35042104916829325 -0.014864061596026015
Ni 4.165010294052659 6.559395853777558 10.547432879629243 0.14335957006697891 1.5240825911074525 -0.13367705267189237
Ni 8.251610090415094 6.957764793490565 0.5386148821744547 -1.021751254088692 -0.2692729196330524 -0.334964605403907
Ni 7.562900647763169 3.574264415051406 8.268354543168224 0.2788518215707391 0.6956993777933824 -1.3246434044380864
Ni 3.094637618734118 8.514296971495668 12.273948780551672 0.22055282871952983 -0.7079254875459292 0.1583413881877918
Ni 0.10097852027295874 4.754810056959053 10.33870705422181 -0.014222828467601312 -0.2862180321278232 -0.45335567845100627
Ni 8.510728762223623 2.53622187828866 5.686848845390712 0.7654325806234623 0.12222587341215724 0.9886297889443748
Ni 3.795205049774957 2.645295548081832 11.421056658238335 -0.810101898506379 -0.4718066860673423 -0.5896035771738684
Ni 1.241511560934545 3.2386815415192194 12.540899491499749 -0.957550551041067 1.1679930307994724 0.6393495382487441
Ni 2.554594551787898 8.33797697393162 7.938048294256515 2.061488146121527 -0.43675946465522203 -0.12544977966609364
Ni 5.7030887028932495 7.784219728924664 3.6103907318049595 -0.9721739573811965 0.31591787318510106 0.21057951955690185
Ni 2.946358700095833 8.369928666049471 3.5090409735976364 1.0130593827416488 0.3489300664450636 -0.094694757871424
Ni 3.434482520007913 4.42861625933967 9.294655328662282 -0.17662244588516676 -0.9491723542797007 0.1267291605991495
Ni 7.294852442145054 6.069569024894729 11.419500522528027 0.20592376595244535 -0.22739299156981485 0.02424241748713244
Ni 0.502371427237728 8.750600729473852 0.0502117327486537 1.1661426078542947 1.3128207007715456 0.779937973328489
Ni 4.698259346374836 0.2861902070027976 1.69218720474911 -0.5969494760159784 0.05413586261245515 -1.7273082414024443
Ni 6.043870709632431 5.537968917766453 0.4123056803217714 -0.10516069039975437 -0.08600674317912284 0.39605658761922113
Ni 7.870451452999068 8.933083997598706 11.348350790068642 0.16999697014884915 -1.833600731413797 -1.9110433870729926
Ni 9.091725140133077 5.1161453095303875 5.727322790865884 -0.3298856482191028 -1.4342559599616074 1.4216567831403581
Ni 8.125641490356559 8.94814977008067 2.3074726320621957 0.32843940269087957 0.014084246007208003 0.6865981868230626
P 8.612584917807434 1.6010717194993325 3.7096824622402242 -0.3514466622193302 0.23360683369001056 -0.5973672802796873
P 1.9727511747078055 3.31200103355615 1.4797030457877143 -1.7718042669322904 -0.5250226079686894 0.8071700695715647
P 4.649493819656897 0.9309602160835176 8.107698623883271 -0.1716069949484464 1.0806930227302225 -0.14466209092848634
P 8.578074206918721 1.586222202124764 12.398864939087542 -0.18980089224865376 1.0045855409426827 0.47466472434142765
P 6.384760843925309 7.926353398261095 1.5472386147647326 0.45814538653016584 -1.8955769160062772 -0.7538356198144823
P 1.770525617403537 3.457847082236223 5.9931525795072895 -0.43663245215905444 -1.3335257945293808 0.18668162989338172
P 6.828804664446378 4.000304997881706 6.061585607180003 -0.1701180691077457 0.044598098325349 0.4003863253428266
P 2.3124158633921037 8.370126899897917 10.184289193722304 1.088223526779313 0.809611846243838 0.9847944743586846
