# total energy = -340891.6034976112 ev
CRYSTAL
PRIMVEC
9.03897084139762 0.00000000000000 0.00000000000000
0.00000000000000 9.03897084139762 0.00000000000000
0.00000000000000 0.00000000000000 13.22944749956302
PRIMCOORD
 96 1
Ni 6.379606033936111 1.7762390772918693 11.575898730660878 0.5823142426013067 0.6640059033448436 -1.0458404338274117
Ni 4.447914739945436 0.03291450761059602 5.968107800421083 1.2863913029354233 1.2177742159876574 -0.7238683840284308
Ni 2.8835220170418623 1.749510841172648 4.927823518690331 -0.010028330770279504 -0.6104408256341938 0.10054607444587846
Ni 3.339122292102136 4.229560326711743 4.96961519934546 -0.7325749106634932 0.7537566869474309 -0.0011428553551915803
Ni 5.282356351572772 4.645127000902207 2.479582170758113 -1.7897793633534722 0.47492929085672403 0.775717250378922
Ni 7.427710833046082 6.247148958491042 2.546814034219313 -0.04953024551964373 -0.20656757018403135 -0.12980882796573773
Ni 5.428977493977198 4.636142264107311 11.571307837483685 -1.4906484798187232 -0.7288740647731382 0.07375312262275041
Ni 5.803199916558153 7.8360463307416595 12.35064155694056 -0.9620921476651623 0.650052526488545 -0.09416331084798621
Ni 1.6196389113245009 6.713189244615807 0.7357315329868369 0.12894108064880375 -0.7792491747915805 -1.2384962790263574
Ni 2.7734002379953715 1.8301926929143353 0.3186237143059015 0.5721815250426792 -1.648096152547652 0.6694964941457695
Ni 0.3418999675458767 0.20568629591171467 4.711429658183813 1.0530258958322576 0.7890661608820024 0.6975770544320696
Ni 8.602496805375834 2.1720646396512944 1.3054379653422838 -0.36335524073145814 1.13430540873904 -0.2671576730622625
Ni 6.66092591649902 0.909058314083938 4.763051219386679 1.3350741128531072 0.7000687105056717 0.6922209323264789
Ni 0.9601013811672127 7.478112133215436 2.8092072162039217 -0.6892317677911679 0.33515255304499697 0.23340680186406254
Ni 7.470085527306113 3.8029932252784358 3.71728932146105 0.7839920887932046 0.4181418495540347 0.2835114318299375
Ni 7.582286269594883 3.8407670834935947 12.69555963677599 0.579433321509086 -0.30083706759257867 -2.3859770488050907
Ni 7.8643383087779 -0.33472935215413563 6.975874385351396 0.05467322317316391 -0.00028616378185112006 -0.8576418530688712
Ni 7.095356922370517 0.5586888310684265 0.4264830390065548 -0.6095656221180921 0.16710705019556382 -0.6255982501009226
Ni 1.9350447520901781 6.616915168557022 9.381437329610797 0.41259880824861844 0.09710002487880696 -0.6671686173435413
Ni 8.947631820506109 4.700400306234989 1.2808013470242083 0.7766929840286302 0.8106477437075199 0.9880170950610402
Ni 6.234883075361592 1.7737262434598964 7.037629536514782 0.016635808784468124 0.44920643216932316 0.07640315865108778
Ni 3.3708581179440658 4.126841464601892 0.3900424289576402 -0.14185624604857505 1.7016753713256887 -0.04657861909048752
Ni 6.162724972913251 5.709474830213814 4.583103392311448 -1.2228608864819457 0.030592270964560214 0.24146232517868735
Ni 5.401101308589414 2.6893830060954182 9.336140336149771 -0.2535665646413891 0.6333431841536641 0.22494170181584489
P 0.3180208149656404 5.635310076288143 12.47745921861668 -1.0183468563928333 -0.32215768344722584 -0.4210906477697135
P 3.984884431036667 6.111555360241316 12.605810793606778 0.043557315765660465 -0.5813323383040117 1.2288158185137998
P 2.5687217873076316 8.729114705801281 1.37369304027751 -1.6041557424109598 0.49825742405970325 1.258360879160768
P 6.22386457017751 7.706300946482173 5.632423932969623 0.5249403326675282 0.14844444078905403 0.1735054975227399
P 4.7335462114934215 0.8599902620808293 12.603972266982952 0.08730052228988192 1.414056859305913 -1.4161433095212965
P 3.8196520481285283 6.217962122363559 8.22866305853148 0.5259024394704814 0.1517529363369967 0.6624017920825173
P 4.75678540495386 1.0579934329667278 3.620251452384993 -0.8848744635325793 0.47040414929286084 1.2606712724615
P 0.11239056067176112 5.613444806361732 3.7448202181712036 0.7108498602815758 -0.6091681295693574 -0.987512644620796
Ni 1.2665857579323248 1.0805456646601526 2.5025619457617982 1.5525495881988938 0.292217958465 0.3522974402553997
Ni 1.9100519983297295 6.323944052866728 4.880700653164346 0.370805012141284 0.12649236199799507 -0.6930436853380902
Ni 6.0007375804571925 5.45303923376393 9.232050262197077 -0.06526951063177146 1.090547032706167 0.12407603924701857
Ni 8.642720224628635 2.2881340613648287 10.106689080062422 -0.23971500347027747 1.1750627931620603 0.9583280526370398
Ni 2.323530670307294 5.026797535272893 7.054920183411116 -1.0426784911596623 0.9305416265523909 0.1562852769897115
Ni 0.52742574338985 0.23727117094431355 9.572099952457327 0.23248326160852864 -1.0259107847830202 -0.24236195417482131
Ni 1.6318324826890018 1.2741784932519546 11.523100295483468 0.0191284932993348 -0.07026619251541447 -0.5278500501151554
Ni 3.9040760337063194 7.085350781895718 1.5290069607258507 1.5470703102518777 -1.779837164539096 -0.11094027319600894
Ni 5.762072600243489 7.743080517929285 7.720784993001429 -1.5787437300957585 0.3522588737079804 1.7804652850413982
Ni 5.14323755478179 2.8945224442847066 4.905413198835617 0.5302730577343513 -0.4307497681260324 -0.22402227532536903
Ni 0.826402351159147 7.413926402852707 6.60316147086375 -0.19423090299554938 -0.784536648442765 0.88362850694062
Ni 5.043727527241543 4.670508430399255 7.263046097492792 0.07964557684778542 -1.0147637670272653 -0.8889501762638496
Ni 8.638065154760053 7.231727872093443 8.934626549580058 -1.529737732510701 0.49964247733268785 0.5057074525798452
Ni 4.743118481378526 0.07426327870541435 10.35960942083873 -0.3281370409591123 1.4271154922620841 -0.28094341399244516
Ni 8.176598587768302 7.35958411149364 4.683435966177987 -0.4881223925082303 -0.6852347308166328 0.3605964470393983
Ni 7.144791052683679 6.0094330701922924 6.791601410835162 0.46256845529852597 -0.1883127377389015 0.9706942875118766
Ni 2.174215914658523 5.148227066563261 2.6598463618049952 -0.10715509512196385 -0.3254350686469169 -0.29281496861905054
Ni 2.1491870050156 5.328084503932305 11.462045664543025 1.6009655176084363 0.12133884282151361 -0.08813484526571917
Ni 1.0576951469363138 3.230473865266478 3.9337762833649386 0.08026007050333274 0.6842397138932151 0.11538725322376901
Ni 3.4792353756611654 2.7370093422848587 2.908097170359731 -0.10373064282144716 0.6922263316431175 -1.6257666358125162
Ni 1.002955140870029 3.2212360372942617 8.229245168239316 -0.3019585827915316 0.29161709165620747 0.6781086612948127
Ni 3.4882653073091534 2.849427019868476 7.350823541170087 0.8016493968636517 -1.3635933033387226 -1.155217476301359
Ni 4.138736749935979 6.603374790570349 6.031688823649427 0.17423851903402252 0.08569306859344597 -0.6387656407208161
Ni 0.9407399061021562 7.5809756188551845 11.593202936013139 -0.2793642424307834 -0.2110207208593785 -0.792852367397312
P 0.07254316259669343 5.499870140538934 7.931675024298276 1.0165979920225265 -0.5186611845270358 -0.6032543351880837
P 8.47324856450037 1.4259156930265127 7.992848065753823 -0.6964411410554134 1.1142996550410746 0.22579659361697238
P 1.868780058485169 3.357109843633164 10.444318133991006 -0.497171390084376 -0.49659392031435123 -0.17547907630934295
P 3.9430611139843714 6.019972509933589 3.8183097609916654 0.27876440406325537 -0.08411929634842287 -0.7244036877066106
P 7.046130688381583 3.861375936504019 10.371066316097814 0.07059529372005907 0.18423753922826333 -0.04300838524072593
P 6.58753851404655 7.660862041182435 9.856374674515457 -0.7577642654449273 -1.818445106719281 0.6481887338069289
P 2.3523830645218884 8.826563848040484 5.606812009721799 -0.557397167644653 -2.2386752062609125 -0.9157541838305712
P 6.909199322480303 3.949035873563271 1.3886028223129026 0.5125183048540916 0.9567509379579071 1.3649104794882492
Ni 5.386928202659438 2.9247668399745663 0.3026147934432864 -1.070864466675575 -0.4394164426620949 -1.5858322615114238
Ni 1.2925637594902015 0.6515018852773464 7.189265499818411 -0.8842476285818578 2.1310375150755747 0.3418358786024435
Ni 6.870828892204315 0.6076203946151943 9.229140617554947 -0.1178079468501197 0.7393538812585396 -0.6671225945969543
Ni 2.5844676741252446 1.569987845716492 9.236443201917721 0.9532835482345968 -0.590688582707931 0.2898617995279976
Ni 6.02865896069807 2.258847796560542 2.3502109998822367 1.3867139485165858 -0.9139868075175033 1.8401418749664242
Ni 4.276834143047059 6.860714284082094 10.614501161106956 -0.41120732721773057 -1.031145036598766 -1.194179459386853
Ni 8.14325382515626 7.081635764971471 0.2629590215453332 0.5979573484552024 1.0998647105626669 0.08041767912711957
Ni 7.607279023355332 3.648372593876542 8.183444704114835 -0.18395986008684445 0.1953084523304443 -0.7338126397253362
Ni 3.1794217592125853 8.269690946169337 12.619080002474892 0.3565140494399086 0.04008118429160194 -1.448759552894421
Ni 0.12685833704390367 4.926600545965632 10.036718408503784 -0.24862567569634597 -0.763074364803931 0.6484065062446898
Ni 8.632641772388888 2.3954899154020253 5.90055866909117 -0.849923144268375 -0.06685510995133648 0.22271486936785514
Ni 3.7799800060834614 2.7152796569177275 11.345865063490882 0.38802137601957043 -0.17660624793525068 0.3409501335633805
Ni 0.9759195797497751 3.4772287241838344 12.574827914017378 0.13974691301505607 -0.48316350584105827 -0.46997014707923573
Ni 3.046024630823181 8.24618058359034 7.685118118837467 0.49495072828397346 -0.3234303795120623 1.514143991837502
Ni 5.863390421907457 8.231663996776856 3.553257313851063 -1.1053416745168383 -1.7719875865876902 -1.5340376454376354
Ni 3.171160140067178 8.138002183226849 3.554845460988752 0.3070611941254196 0.8689166546517423 0.9883433680522076
Ni 3.4122294864654306 4.247141124564934 9.15734407393135 0.24189787005420918 0.7796348402657735 1.6212561495366722
Ni 7.305052001751584 6.069289133628709 11.334011357421641 0.9427147715798152 0.4964280841604482 -0.3417070663340631
Ni 0.6552919256577284 9.057048559844349 0.2097294274694176 -0.1760035813542453 0.2319235324503167 0.9021463632391495
Ni 4.797659630091202 0.4586726211735386 1.444206050073264 -0.6346991839609263 -1.107030632183487 0.7288820351929383
Ni 6.083787642500956 5.847906665237784 0.3896618882945968 -0.9291696859055288 -0.9800057947207896 0.37515454735923137
Ni 7.76712417977478 8.751332495581819 11.301559645106718 1.109974031082527 -0.24502381727770065 0.5863045947076225
Ni 9.057048559844349 4.938215623210542 5.817556513591686 0.11058134719469342 -1.0149139194518844 -0.2334379122123141
Ni 8.050739960874816 9.036737992864339 2.578088872559694 -0.42885357954458403 -0.8158385438798401 -0.15223604662100232
P 8.446303393086302 1.8538205621113744 3.5884740472782175 -0.7670919706037563 -0.6971127132011414 0.3670707419098323
P 1.5902712957846463 3.237587535143322 1.4947158178900408 0.9975402040601273 0.10619607364280421 1.090580457047264
P 4.5015519915962505 1.0255164115340725 8.243983209832956 0.601315466294158 -0.6811803582416011 -0.7756668567569609
P 8.601375973019126 1.565007372905639 12.250878438222994 -0.3160579983073912 0.17849806564132484 0.5715721735934544
P 6.352001017666884 7.7932106489800805 1.3749892286642182 -0.13769054470665965 -0.19730491393518276 0.5044980056527762
P 1.6622576577912334 2.9912846247568963 6.2505828634290515 0.4475969215903582 0.6928817058389294 -1.9289315802073235
P 6.673472007717647 3.923771950684264 5.9941698644057135 1.1759482810908068 -0.1558947264195122 -0.02029603124487472
P 2.531363721740928 8.553550779476076 10.285128302941406 -0.20480765007013116 -0.016423692773662037 0.2381810833242543
