# total energy = -340887.73660907673 ev
CRYSTAL
PRIMVEC
9.10990264431490 0.00000000000000 0.00000000000000
0.00000000000000 9.10990264431490 0.00000000000000
0.00000000000000 0.00000000000000 13.33326336303044
PRIMCOORD
 96 1
Ni 6.626980419267958 2.230268132271094 11.429606279927118 -0.653262034564778 -0.19374136495364053 0.6719567827608041
Ni 4.870181254305336 0.685148485869516 6.103394233851028 0.024441935092448228 -0.05815243997101598 -0.737105194433679
Ni 3.108344313210461 1.9644502845983811 4.805974660851232 0.217028103395723 -1.2761781098478473 -0.9547629609936008
Ni 3.5209318015101685 4.450551811303582 4.782788136779242 0.49818646161245167 0.16621770561207505 -1.7217348610797252
Ni 3.9982087081012483 2.6563564962091366 2.4488802867031043 -0.49281954087358354 1.356670350966644 -0.25885943760921226
Ni 5.498463906227746 4.740483571131944 2.810625408648194 -0.7502201345490821 -1.7377942285354329 -0.8199978174638524
Ni 5.497753333825728 3.0076798895913006 0.4931919064157557 1.1087257604977228 -0.70577964484752 -0.10377383735455675
Ni 5.588342205180382 8.15539432630005 12.519867579021271 0.2704769672434826 -0.5363935688097924 0.16085721263111005
Ni 1.9480251302286664 6.733502510252468 0.31941960352183313 2.4689899994632123 -0.17928585164994285 0.8282196911530122
Ni 0.7929432302458453 0.4240204160501192 13.299209724700292 0.01810005203482044 -1.0693351745152422 0.9024332983519491
Ni 8.515199038993476 0.07674090842764204 6.195074471535961 0.5953461360846005 0.22800388568093635 2.8420370135611375
Ni 9.014658558391131 2.454216867640308 1.3565264429840345 -0.6467046930622347 -0.1383628881833359 -0.021515248363956494
Ni 7.045307146199346 0.9431573250421074 4.744162149797773 -0.8761077730835428 -0.1776442022814618 -1.1979378979880209
Ni 1.366412509274669 7.438554311300549 2.5806932892578875 -0.27708495947830347 0.4790466554592072 -0.6149114598110377
Ni 7.750131199682677 3.884252936603323 3.659020615959182 1.1754291753625434 1.1862542910025053 0.0711701923869226
Ni 7.85619779553769 4.033054085507881 12.7263863377651 0.5496028684112148 -0.11722764886661746 -0.9704145514879287
Ni 8.51418783980599 7.3924399843901245 8.997379806148736 0.009237202327551833 -0.22554848216190831 -0.35963562578802577
Ni 7.584604269622936 0.16198682191327937 13.342063617473768 -1.1777387973323263 1.1685473606410455 -0.8579660691775095
Ni 1.7689699948228206 6.6703708853039805 9.167591959110498 1.5011907741109438 0.44417452617237047 -0.56986367554278
Ni 0.20146185181613419 4.964559845137417 1.4092190305546757 0.09094737501384982 0.10794956599880119 0.22283751098864846
Ni 6.938092702617998 2.230933155160162 6.873603702183605 -1.8652749225886265 -0.8169816563453479 0.3332738479650454
Ni 3.663993711783046 4.173774750815136 -0.0009337650154718491 -0.8283171359628251 1.0092140408536296 -0.21005064363662534
Ni 6.1780353097316825 5.750352712840396 4.997640634412373 -0.07531892444797351 1.0855531790360013 -0.5902692357823254
Ni 5.569940201948644 3.39311075827031 9.414350979574737 -0.6624465292775237 -0.616599389036422 -0.6187323762190248
P 0.3910106840153656 5.698471817590521 12.5262545317271 -0.792858280934583 -0.6287529936798204 -0.5708653773344169
P 4.087494863385537 6.3693250443158576 12.575053546930787 -0.12642705597769838 0.4593162669098155 1.1933327951158414
P 2.4915765781617725 8.746581454876106 1.081639687283007 0.7138187131019126 0.035725735536383633 0.8579840668996385
P 6.638695753998658 7.984638312153667 5.837382345253149 -1.2951739342240598 0.6583219655861888 -0.39498083805653916
P 4.823447454018793 1.2402859079165447 12.531854388849153 0.8522415079889065 0.7565635602686067 -0.7834729830649411
P 4.056284337112302 6.667145979787132 8.028090725527303 0.34989911522655226 -0.23313683603212754 1.5564777196087063
P 4.855869597336493 1.1030907749116077 3.555781733868096 1.0552892379451373 0.19736687752136978 1.136868798590842
P 0.1375977906994137 5.950315074690221 3.447941439978817 0.2684987604711892 -0.41892835001107204 -0.17630928552012215
Ni 1.0704773236395178 0.053689210913983834 4.583322264620571 0.05850133867000247 -0.4936147830813692 -0.3341873609182503
Ni 2.0288572959094635 6.590859655498729 4.758401838536154 0.4783586282532472 -0.17068396891354476 -1.1977733473856984
Ni 6.183674339434874 6.222364095734473 9.087885777389822 0.4667231008968478 0.9094148718761047 1.4226597704835755
Ni 8.652467051219134 2.908955875223804 10.166839865389305 1.0601257401018322 -0.3623669086762598 0.28958334905563027
Ni 2.877763568755749 5.265031762262373 6.761524570619214 -1.6078231639602183 0.10772845112693061 1.968174841978662
Ni 0.8807781780475518 0.2382330626302861 8.53442184444857 0.6189856298804113 -1.29340270125625 0.9974119060123791
Ni 1.6502588541729313 1.2114439563167019 11.290754055641065 0.4622936043705845 0.9442682321098641 -1.4332064356511705
Ni 4.272116149273854 7.1281617102551165 1.7503639297730675 -0.25525115143266364 0.33053793709112106 -1.4365864078669968
Ni 5.879130295852201 8.412849283395172 7.839425553879297 0.005453052694771254 -0.21246053862969863 0.6703197613780133
Ni 5.5496068993678325 3.276941280443022 4.828054331758541 0.07944888745594704 -1.5094702405109164 -0.2944766725921896
Ni 1.3755224118646383 7.564252747236945 6.789231428356346 -0.3388945365859325 0.8757030814459564 0.32212194511328396
Ni 5.296770662885827 4.970007566886219 7.407614349134237 0.3613803763932744 -0.9439219045140388 -1.1711079222793703
Ni 1.1595812808720072 7.5627951628225505 11.536165721512248 -0.9833996508936872 1.21235278786177 -1.036559779856434
Ni 4.721270786569698 0.508825410250402 10.360479043851434 0.5325343429647023 -0.2571951625329119 -0.5820707591319331
Ni 8.251977513558904 7.5962831647432765 4.533709735115599 0.5069402965456817 -1.0024718370337897 -1.0121294147282118
Ni 7.549813551631844 6.354585221925287 6.972990006469393 0.005554868379958175 -0.4461555611581413 -0.39287947544282015
Ni 3.045458655631903 5.1218696430610064 2.2666412403420644 -0.9763717975126281 -0.36646344734313663 0.2730997495783103
Ni 2.3330278334859473 5.424710134859354 11.649965713675883 1.5618130157786907 -0.27166764511747404 -1.922049251265193
Ni 1.4958551151755424 3.3921633284009536 3.634540485719416 -1.094647685138102 0.6843219891943763 -1.259159978023296
Ni 1.9035688055896165 1.3149871091542926 2.4657873549198284 -0.3694456698999122 0.005842831934022195 -0.5558539915272492
Ni 1.148084583803466 3.881237558846043 8.343342548614224 -0.02901875582985325 -0.24443143510934034 -0.9927276131628323
Ni 4.030712840542258 3.034344574472141 6.711911130123982 -0.2728146142377237 -0.39021966922246987 1.4720038681343424
Ni 4.205786948516288 7.110078553614027 5.898355834278072 0.6108159495854255 1.3319304250178028 -0.6808589703464403
Ni 8.769201343007 7.290964779440457 0.3350713271616593 -0.9662591345586584 -0.1307907322630328 0.8441487036784429
P 0.4668788637748885 5.817975519765737 7.517426936934244 -0.24189144229630596 -0.5734351949441221 1.1735484134000629
P 8.721173936552681 1.7165060658071878 7.802345517367345 1.1685566166124262 0.9832633824261389 0.4244320534381207
P 1.9767395431922494 3.4394801624532536 10.284452351786845 0.059281925589768865 0.15665371607272377 0.6632512845670061
P 4.308400891289701 6.216287790706963 3.75259389140231 -0.7680396792290064 1.6834300519622556 0.5442585733801658
P 7.007291522691404 4.56960912825189 10.571864312558821 1.4964458032267907 0.02082722115799639 0.22238216861878476
P 6.762207813313461 8.454918813555649 9.940094389924969 -1.7350868569065987 -1.3151904865553026 0.10334369179567364
P 2.7383000700059097 8.98501493536337 5.812622541003872 1.282875833582997 0.07997622071432678 -0.2540483893738141
P 7.1739571905748925 4.054334817958049 1.4507920710240003 -0.14302815486948917 -0.2507938869922584 0.6840432816116929
Ni 2.8657293874343996 1.7191934870712287 0.22441060743052577 0.6789764086117468 0.14648191774604452 -0.3222016493112838
Ni 1.6673125918213536 1.6540303538451786 6.767190930030175 0.053528053825127174 -0.268484362293486 0.5435898294479155
Ni 7.074905219714156 1.2870379280082669 9.16989858644628 -1.5668955725079208 0.8599959551233447 -0.8264484581852025
Ni 2.8386547569370113 1.7986682772661204 8.981379173239715 -0.5332190277365527 0.8775591608180887 0.7029982254476409
Ni 6.573395972233759 2.135497815627644 2.761665148168663 0.2666822760877407 -0.22792855235831067 -1.6749340986761023
Ni 4.367660807637452 7.143457236703675 10.419398249842319 -0.40539766251448894 0.15096797854185615 -0.2129768161444848
Ni 7.697803919205894 7.267342802024667 11.40900696819068 -0.10845144533588419 -1.293808678445417 0.6162708020524096
Ni 7.529033863824123 4.302506784313992 8.449288893755048 1.2322677816181422 -0.15108522084601078 -1.2567536825746484
Ni 3.3141461226204565 8.682821246648912 12.253028511268223 -0.7853856267066216 -0.22163217782663766 0.8391149979092773
Ni 0.26423819056361236 5.313660422287629 10.29734559692243 -1.3055663332019776 -0.582060731829604 0.5885494248777413
Ni 8.939055476796975 2.526595043717614 5.392971234235902 -0.5574120800429884 -0.4722987952124124 -0.2882324914546907
Ni 3.947074824863751 2.766968933456543 11.068021492267611 -0.5065759712277276 0.048475321892568125 0.865031203554407
Ni 1.2786203780151355 3.564121849689213 12.546347332879535 -1.1154134569305436 -1.0831443124841929 -0.47842264872196316
Ni 3.376913351465345 8.86084696306209 7.9332785033319375 0.0708115234959232 -0.8933426489045905 0.446392873979928
Ni 5.817037199798971 8.194794655001667 3.3881823009691368 -0.10203937116195332 -0.28191966186278544 0.8603070586058604
Ni 3.27475490382143 8.755636698050534 3.4405022935238483 0.43532273220869544 -0.9979461812492942 0.5615438428231748
Ni 3.623946579997541 4.870946486122893 9.405937073542642 -0.7017856931967785 -0.05384352818301695 -0.7597429864378529
Ni 5.083134337248457 4.9703355233794575 11.31144719937418 0.28544001631121807 -0.48401145566365034 0.2765427138215882
Ni 8.065525137250003 8.629054601562911 2.252855224752664 1.0755526161798639 0.9863713319275013 1.3624381066883569
Ni 4.987197953073491 0.5762605531823903 1.2533759269480715 -0.0349924569147849 -0.9155824341393974 0.3635501303510836
Ni 6.216196691681064 5.744258188007706 0.12129470902440469 -0.6295688047128963 0.20822721727464139 0.3598611115352705
Ni 8.559354736847057 0.2266789731754281 10.61251725286656 1.5093221449688263 0.310915020653871 1.1042682389470013
Ni 0.2653741954165815 4.977650775159203 5.340145642087447 -1.4272677015692323 0.7652114657515918 1.1469616640504698
Ni 7.2511271754145215 6.214912195415878 2.4984272249094293 1.1187646327909635 -0.6068546509448323 0.42596648780477603
P 9.033169880453949 1.3028253891966837 3.3442762144465212 -1.9619216619800983 1.2483415472515533 -0.164074176906511
P 1.926553089824109 3.441766748003336 1.2818088439216246 1.180171060922903 -0.28146637637545074 1.1909270138878263
P 4.8602241307745 1.5831370918900378 8.30555649465155 1.035009661760495 -0.19787904127109793 -1.1967780733519646
P 8.710014305879968 1.8530361759230571 12.181135892998963 -0.34081540775772917 0.2602007821284551 0.49560584536946906
P 6.421661434695231 7.670829497636995 1.2548717729533445 -0.501082295103008 1.502994917199218 -1.5266837761757255
P 1.7688242363813813 3.551787041582395 5.7674893506023865 1.4516196480510355 -0.4871870251781545 1.0045145784954312
P 7.123542989642002 4.08058955722234 6.002341728381536 1.0267142545209222 1.5524043208702814 -0.2569619634761832
P 2.6462718340420404 8.500541205726215 10.144626278913925 -1.1182054178533838 1.2817311784555925 -0.5536194457697755
