# total energy = -340874.86257288774 ev
CRYSTAL
PRIMVEC
9.18067269723312 0.00000000000000 0.00000000000000
0.00000000000000 9.18067269723312 0.00000000000000
0.00000000000000 0.00000000000000 13.43684248901727
PRIMCOORD
 96 1
Ni 8.650920280157534 6.262540752637205 7.172976122787867 0.5943806868475376 -0.5898434610988165 2.0707423177299433
Ni 5.007744778489594 6.615950745648607 9.323892044249337 0.43545154447707585 0.7202770671327466 0.3532366642402175
Ni 6.395559518418272 6.152666462564198 7.2848912763872145 -0.14745456607195898 0.5789697516091061 -0.6745204297229223
Ni 8.532406977136773 5.341636661483013 0.275266861760196 -2.2020192456007757 0.2654718007194073 0.6582108939296213
Ni 5.412952126496977 9.157454712016504 10.542465674523031 0.21527486815004215 -0.876889902665206 -0.471716183236065
Ni 4.471281353846701 4.945903767632995 7.341809610577943 -1.1448711000700285 -0.4890053093338159 0.6588552123818395
Ni 5.936305550619797 4.159918841494923 9.318289079741355 -2.5260638616580686 -1.0177310771857053 -0.3835512560633588
Ni 7.336688631383197 8.270252870098442 6.091565413921826 -1.1280722833451347 -2.5307754082011256 -1.166071388296727
Ni 1.0664728364247154 0.9050123468262866 9.856071767041627 -0.553892239815188 -0.36909857097313853 -1.3155026184790828
Ni 5.124981968014353 5.495036520509575 2.2464114420565098 -1.6797168647767262 -0.8737027631864759 3.2920471725786786
Ni 3.9176684327251645 2.9618869662378042 3.566540754930353 -0.15686248964942018 1.0349824080669852 0.004776852563353064
Ni 6.076769841906313 1.8889050329162167 2.887806282626748 0.6420872488948813 0.7029354905305056 1.5370867166766045
Ni 2.0158737354320677 5.815588886167091 7.449237251394228 0.7765322900810497 0.32570554869948426 -1.114962485436054
Ni 3.6444148924734083 3.0584309196475425 6.099990517197227 0.4207245226795464 0.9802950438264343 -0.722347319398214
Ni 1.1237602336552943 3.7260218915090846 3.1953615700375764 0.16076388158635538 -0.6721300751138747 -1.3735167331000215
Ni 1.2808415424077317 8.40126106857286 11.593912504049143 -1.358535429199841 -1.6435363010911113 -0.2457216146756736
Ni 3.2345713047863076 5.905623742679958 4.7746337293260925 0.5796708914411888 -0.31717102886591186 -0.18009549203543176
Ni 7.610162507778147 5.3824814740277 5.313357435571257 0.4731490590278497 0.5510380581958446 -0.04126517729737409
Ni 7.019900341505254 2.680031135728828 -0.4176040102638656 0.2456269980793383 0.08996084273086442 -0.035449599056861535
Ni 8.362068777102131 5.125367556264944 2.729600341476755 -0.12483631445181083 -0.15146548700356494 0.473471732474591
Ni 3.2474334271452885 6.541458767903587 11.319706928045333 -0.4042434943053877 1.674523493501245 -0.667196128147367
Ni 2.563822181538977 4.201204326325999 10.850666363219968 1.4683040506852518 -0.2040813134270679 1.72495953866461
Ni 3.736542942346624 1.9213678913468781 10.43910966201953 2.36049793069738 0.035153922193313654 -2.565101435176505
Ni 0.9133539059807263 4.966238957515324 9.551874769679987 -2.077419986860435 1.6092676097162284 -1.165358935610735
P -0.03541536274946827 2.6811879004805994 1.3067668438563587 0.6285408776690142 -0.009526194322880368 0.11339284850155955
P 0.7753794131123085 2.980037156033454 10.675276039035328 -1.7977988912238394 -0.13191687544767602 -1.2627680070895286
P 8.61481269469153 7.348247098228277 3.754872155258619 -0.7571382018251541 -1.4564579499799433 0.5702794229239597
P 2.9850130806005972 -0.14811913612799957 10.503418437679908 1.2005588805506355 -0.3312280211796102 0.4354160632534501
P 6.982039247566327 3.6140176853851957 1.6178631167017758 -0.3536259292588361 0.6569780499637846 0.03573113485302234
P 3.5531314644824397 1.1598127350855 4.695410950973235 -0.8471885189460314 0.38867006534716286 0.7109791867705885
P 4.115236507789597 2.4906705819983914 8.12508348408746 0.8135309787925861 0.33132289488626165 0.06173578644690013
P 6.8410149352491905 8.317790392992663 0.2813362044379421 0.15569418037293187 -0.019736302086662785 -0.694200681760669
Ni 8.534656241931884 2.484749048150038 8.823046875221104 0.40441524399656154 0.46701106445091184 0.7611920601795535
Ni 4.025412806747292 8.819569236427684 8.58443568508311 -0.12222304519867984 -0.040012792947511734 -0.6185925082070508
Ni 5.571474800852813 0.6410202691268077 1.2014186253914716 -1.224251339071569 -1.369482158019332 -0.3635023078322836
Ni 6.393034833444169 3.9995324905945675 3.739943463489926 -1.1199653379672843 0.9073847288199535 -0.0715003220328317
Ni 6.130697112953175 1.7875045036835648 8.639096491873357 -2.0639875155046132 1.1663575520785785 2.5196898398109253
Ni 7.507761285228487 0.9593343867963726 7.185190089658952 2.809340551769381 0.5039477895762611 0.13997162743135247
Ni 8.074245509381637 0.7138927762193468 1.392419765321444 -0.0001259840549030088 0.2778382927045602 -2.9475643432716914
Ni 2.0350888832531577 1.6607469566382758 11.853095745423403 -0.24263937620592405 0.21086388356654007 2.018783408164149
Ni 7.72149652479982 8.042829247631149 11.48634990734515 0.8143323916479587 -0.9114761252805077 0.44023739590149347
Ni 8.895961613407756 0.8401426320680255 12.396521792191242 -1.255695159403147 0.7028917817767637 -0.7608138509045285
Ni 7.249536506077125 9.04026342585491 3.2584346271615385 0.4147227965701567 -0.8397279489029279 1.4996046605707465
Ni 6.1277317556926825 2.9668078067691486 6.1361889913223 0.7269089706269675 1.1611847496283874 0.2485230886802107
Ni 5.146887052916943 0.8024734141871298 6.745281635232956 -0.6439397287225878 -0.028411461263157516 -0.687954443740641
Ni 0.5678971296713846 5.8178197896169355 11.843770018162694 -0.1702787630553261 -0.13644073145995858 -1.575783104805538
Ni 3.2407039941052216 8.725797846153144 12.842060753143123 1.5099263542117285 -0.2360519527963935 -0.5804118833722713
Ni 0.5423509900025049 8.81813705149692 2.6818186126904933 0.08020067802030705 -1.0950968568603785 -0.4563911228432204
Ni 7.789084636724743 0.21912613054149174 9.586045233220407 0.02166102991320141 -0.3200856314095455 -0.19511561959334783
Ni 2.082947729689537 2.9852609587616907 8.8978096828088 0.387730584252029 -0.814080680648469 -1.8677308403282866
Ni 0.11525967263958792 9.347301841396495 5.385915963659745 0.42874610743244224 0.6890224799938391 -0.34924451236168885
Ni 5.2849276466283195 -0.021242240338479802 4.495658793889385 -0.31245613988874577 -0.30840253864466244 -0.2990462942407431
Ni 0.2413699822642434 3.337192863479162 12.677190561728759 -0.11252972917031587 -0.22934060221448888 -0.050922754991796174
Ni 0.2804915825556964 8.431906153822165 7.730658836087659 0.0530706545727344 0.9535265174833385 0.0967063889848141
Ni 5.202696361853593 4.90926370315427 11.361427576759219 -0.4225371504082529 -0.5140833353483663 0.4386098876003995
Ni 2.8037590608051928 8.118413725419508 1.6424388592733363 -1.4907279269064067 0.3101454894776981 0.35690357156884345
P 1.3574817975488973 4.449284462217779 5.101579515405303 -0.07119127543284513 1.6213615647662851 2.240123508671665
P 0.5903062335015322 1.5413982124079024 7.327365658324279 -0.18104500043289465 0.42438114559552725 -0.4149688511426918
P 2.2578303626775664 8.008475170638068 6.80178316688614 1.130365964475318 -0.1954326366131344 -0.1405336705824096
P 7.381802456702277 4.0883922210103965 7.900419571813678 1.5650286945025114 0.8468216225249157 -1.8159441946742985
P 6.591952467385669 1.924397513315803 10.828993549334994 0.7180088399238601 -0.205987015090213 0.28943911016828217
P 1.8391090645542518 6.698292198494931 13.265482555654588 1.287970474497085 0.7790609700401744 0.8917866172713802
P 5.33571512763466 5.096650412268589 5.288324495502568 -0.4462856589781024 0.19235039814338487 0.5875505512995817
P 6.2569038196404785 8.316431653442963 8.10457936982868 -0.7239681428310887 -0.0880307155876871 0.11448736711731897
Ni 5.570721985696897 7.189641797818744 11.994948154412043 -0.5926763025619212 0.6451088093300245 0.6544969354131437
Ni 1.4238029766504525 0.6327567456897493 0.5140892073687525 -0.9478340950842516 0.4215326204031386 0.8854305931463654
Ni 7.377992477559539 5.944687504733823 9.372613873913231 1.4098505345340493 1.40510864897369 1.0493386767886572
Ni 4.667610038105664 3.277316516566047 1.3023628751942578 -0.40621990130546815 -0.6216770606696455 -1.2964342889937222
Ni 5.94622067706355 5.165780877195874 0.2452763584696298 1.3121905233867142 -0.33848881650708157 -1.6514956651475043
Ni 3.3995571726758484 5.13221633804924 13.077097907425049 1.2797311173064283 -0.7623583125735128 1.4982887699728002
Ni 1.3400936035817952 6.275990438044706 3.136373912235346 0.19160760644008934 -0.4223476601052662 -0.4075283357042465
Ni 4.84910275538953 7.263996065474267 0.9857884949886665 0.36012593516088304 1.350975614574712 -1.6578658303399063
Ni 9.128544773894854 7.7440167147688275 0.1272413684930541 -0.468485077893277 0.3903173711425988 0.632223468726924
Ni 5.155296549048868 1.1916421271044775 12.501799319476856 -0.8852773553979528 1.2046219948764159 -0.5181716464851269
Ni 2.0559932748387393 7.426640861842365 9.214637449579065 0.025026089730692383 0.719588011485522 0.14605408618000654
Ni 2.684906072897007 1.1344557172728624 7.087961258070783 -0.6616420310983573 -1.3700295458823695 -0.009447004345512763
Ni 2.2605937451401314 1.2712661008514026 2.7706765069717965 -0.30565711468904133 0.5722815409556532 0.910463110634961
Ni 1.4473605826270015 4.551970285619066 0.8672256163356871 0.24574295483191225 0.4396609545727331 0.9335055942767214
Ni 8.910669050965991 1.6676783644762705 3.3670575915546546 0.5726229834554719 -0.1624762362917718 -0.7114725814672391
Ni 0.8287751232137142 6.865031574857396 5.524679076307346 0.16489590147685795 -0.31376714539068545 -1.133589613618938
Ni 8.326034637017191 3.2663364320968524 4.6952897660944775 0.8963107303939789 0.7930459714653568 1.500199613842268
Ni 7.804113397825137 4.040533374574017 10.708544960523176 0.7560380267824399 -1.2959339523185358 1.2105005651443799
Ni 4.624185456551074 7.581105678894367 6.381129337173558 -0.7044596404845158 -0.3802067650711581 -0.15643800051749185
Ni 1.630267123496365 2.3156594195934987 5.137899174409133 -0.9053561284256989 -1.0949521037523982 0.211547539897126
Ni 2.254396791112785 8.428821447817443 4.215768545391158 1.544494064884269 0.017923674357956228 0.8609891722745494
Ni 6.241397663563164 6.9460877335350855 4.154604150107618 -0.8910222283015299 -0.5737894929597473 0.6557902003032706
Ni 7.0294298796984185 6.898164622390274 1.9563370734063776 1.1528011535503824 0.49400687631346535 -1.126135471333738
Ni 0.5420489458728758 4.048915328688042 7.19667878339202 -0.9499753097969704 -1.2507686686358073 -1.134155513424737
P 7.290179343823883 5.787082897641298 11.864947075725476 -0.08310396771003106 0.04764382713020827 0.5181703609335463
P 7.257863376155353 1.3510736880509897 5.1047101247731925 -0.3506102823609639 -0.48874074281851954 -1.4625514644721909
P 9.130426811784641 7.320493924858399 9.64665878814596 -0.7486417343183687 0.11994916156283858 0.6060689218187433
P 3.830139899841136 3.110430249441453 12.186490035960107 1.286198727308643 0.5729955363035422 1.8873838386725237
P 3.1988401268982605 5.541371375288859 9.30078061896276 -0.24717171685863887 -0.7486749015491493 -0.7786539644097429
P 3.37570578517504 1.4383635234465582 0.9919074132986313 1.143557266354611 -0.7984442596627925 -0.6284385477631951
P 4.275237270439362 7.648969210998285 3.110158501531513 0.5154532191126994 -0.52090498625589 0.6871520024440037
P 2.985095706654295 4.764447773039662 2.430039583794835 0.6318545154232795 -0.19446307361101348 -0.24439029745875973
