# total energy = -340872.5303996005 ev
CRYSTAL
PRIMVEC
9.23527770133928 0.00000000000000 0.00000000000000

0.00000000000000 9.23527770133928 0.00000000000000

0.00000000000000 0.00000000000000 13.51676243208912

PRIMCOORD
 96 1
Ni 8.242226938020941 5.6936042370534174 2.745200208709216 0.1716609881148334 0.5998393959692637 1.1892650528043711
Ni 0.9678294180924225 7.338407231053823 1.310618922020051 -0.1503488569006185 0.8021543615245281 -1.4424801476436124
Ni 1.3206355044304543 7.177537925312705 12.196080288983453 -0.4656928598601206 1.539991291917909 0.2123489527524988
Ni 6.6573886034256144 0.9616787230109836 11.955347070545999 0.1871994500700647 -0.012727217758681308 0.6338700031914115
Ni 6.439399103872636 4.5074620846815145 1.4864521485426334 1.440691945394938 0.311059002430903 1.1404094647542489
Ni 7.194475424981412 1.8329256048245952 0.7019753202390207 0.026868799366385983 -0.17713023875952075 0.5771254993115158
Ni 8.46329178511464 5.1409836780697225 9.202307034427424 -1.073647942957983 -0.5430408989229809 -0.46116489008278
Ni 2.159762089707663 3.1791520643161113 4.987184901088889 2.585775418586089 0.5167395420242906 0.9695180078155882
Ni 3.7007143837219107 8.55984661555975 1.7046125007367634 -0.13884728401892218 0.7944117414646319 0.006630360832324065
Ni 5.578107851635287 6.705892282956722 5.521043069490827 -1.3432571628845318 0.39388374833761847 -1.471147433671318
Ni 1.2723257657352487 7.2874284970455 5.81095137216272 -0.5603786188704801 1.4980774252929425 0.9495911869846743
Ni 7.354642849602125 4.799010572708458 4.904097876405434 1.3611612968584623 -0.23723363180932044 -0.42682472204001326
Ni 8.138477826091684 2.9733254257575092 2.828139468946271 -0.047457936371647295 0.47835477159850515 -0.7035348146774012
Ni 8.201582479982784 3.738181906162448 7.013848165700909 -0.8737829816051081 -0.27684661821525225 -0.4160482002497996
Ni 5.748646493337765 7.251771089073374 1.3296140416048912 -0.6718881343063977 -1.7390754092407017 0.09984544883442804
Ni 3.4297051537446963 4.587513473519221 8.749995446355213 0.6577892330111704 -1.1927026177310103 0.6413591124796051
Ni 4.349104774529212 2.0009060745487575 11.84787521809523 0.11387827277841032 -1.4192592294424589 -0.24710358262486473
Ni 8.555866210784824 1.8346341312361059 8.693346251716255 -1.5420540879842088 -1.09788676090069 -1.081109284332035
Ni 5.782133611003378 7.870229944206587 12.629143710856361 0.07879299903950301 0.057130940685037095 -0.4304006123167297
Ni 0.9765013440405773 4.3629392208235 2.885909826322296 0.9376836369138107 -0.23743340652495237 -1.0465860537441847
Ni 3.366166441792294 8.92817720404778 12.832895182470821 0.39429332507121123 0.1824421378907374 -0.15481383465050758
Ni 0.10932999036426162 4.997919988119917 11.486909763732497 1.6444166468135357 -1.5738228957553733 0.4706070093322863
Ni 1.349809747316739 4.844789845259048 0.336859531988001 0.21391141214361226 -0.593027515253753 -0.21287834289340757
Ni 7.627102018209649 1.826922674189557 4.792057331977505 0.5432584142504256 0.3009661369712752 -0.2895455538391594
P 5.125477646475523 0.7881940276583862 0.4550202950802985 -0.05941896538826541 -1.6976477382235342 -1.09616335045168
P 2.1005085467008877 0.5031130047448527 7.364662202595899 -2.7479559780143124 0.13423549627852366 -1.260803684274306
P 2.2570742129405783 9.04669352533923 11.018973008981176 -0.33414648037798583 0.1881834112498888 -0.4368232280136219
P 8.438550475620383 3.9251870483607307 0.7709730049581471 0.8693691688081286 -0.18912623477913235 -0.0007808440300825261
P 0.009147542760007867 3.177083362066498 10.094074703734965 0.960833849778029 0.7015051858418822 1.9004805239554818
P 2.3270960899788213 6.019434076645379 2.19251315572464 0.021379751227356726 -1.0044868105812894 0.6727399407837318
P 6.11926743074501 5.745995968580449 3.347791009354548 -1.346139112418017 0.8887599146299145 -0.3546741680176924
P 0.1516894395084596 3.4854123500378487 4.659336229747975 -2.950061141551616 0.24745839486112226 0.7913796395065275
Ni 3.3609208039450613 6.3877000181881085 0.33245522795746313 0.8203927389094258 0.45375342811005726 -0.9607176359151389
Ni 0.29748861877226196 9.228148265519577 4.856437377746602 -1.887238314233595 0.7490345988814132 0.4718725063082712
Ni 1.037611177905264 3.7024413806892214 8.217569669555575 1.2707736510028242 -0.42231012199911133 0.5580412289865551
Ni 4.978923021479497 5.197014109089376 11.132824591405306 0.5522331069452102 -0.7428294985119659 0.38230324258887066
Ni 3.5412118991100017 3.848857476516748 2.7627453896637473 -1.2922603601216907 0.09829764473133393 0.46231365897524246
Ni 5.4673029873903864 1.4561539723359118 8.839827918016871 0.501214449805498 -0.5999131866299926 -1.1556681906855324
Ni 1.1924313766218435 1.822508211353329 3.578251828183766 -0.8582537756212575 -1.5705781635658307 -1.8507001100982448
Ni 8.42860408132202 8.608193295366556 7.384869914169017 0.673680193209814 2.3751647886809355 0.15562681747010618
Ni 1.485420568001197 7.827932371424319 3.5045450752634 1.0325504015867248 -1.0554779569171757 0.5220056755192365
Ni 4.6158288355608 8.883737046792698 4.116705470868772 -0.08473841798966052 -0.12458948854832737 0.3292289884717104
Ni 7.0593540740256575 7.919906504031001 3.026214015235564 -0.37305729851057046 -0.24942091790413173 1.002384933746938
Ni 8.24211611468614 7.456323259281769 9.81203393430613 -0.48694379881909694 0.5550716048352698 -0.12095394867826911
Ni 0.6467991524251218 2.142445943645053 1.0776876663525674 0.5819355191056494 1.2077255735024042 0.844558794632668
Ni 0.6916705971581355 0.27017713143841915 13.336692521308068 0.02064313017164832 -1.7790056697767365 -0.3539606868904355
Ni 1.1668588921165814 8.225132438627933 9.014274929326655 0.7100211937326932 0.7227309279898778 -0.5946177425590082
Ni 5.044345730123511 9.048882286201543 10.31642602504014 0.256215572228462 -0.4971886164755566 2.495777551969702
Ni 3.5831770018878673 8.973697888817167 8.53309201548328 -0.04852237308041966 -1.3306585002839149 1.3014803360580618
Ni 6.2366570481326535 3.5551386981832898 8.360307354195507 0.35112013211784693 1.0126608617516497 -0.11195611605503299
Ni 5.713838730932446 3.5495236492200544 3.6097727551844554 0.5988304950887751 0.00215458444915758 -0.41691594756673356
Ni 2.6907628631273215 0.6041367861658017 5.11382364929344 -0.797069490802453 -0.23958310587810352 0.837132934482242
Ni 3.9252701658618316 6.787975432932441 3.383354217492093 2.1437855587698627 -0.5692484105562841 -0.26763332714710036
Ni 2.7362189009514095 6.495568064060792 7.712610532758499 -1.9309678939110615 0.8584100986934636 -1.216317428936473
Ni 3.349533706294289 2.106271360110524 7.7864253384302975 0.06959333481810595 1.915718166840843 0.13708247880901553
Ni 4.94297931989247 6.241570215975484 7.772260269187187 1.6849907115811562 -0.3035380114635095 0.2419480065658543
P 8.606577121734045 7.194586248316213 4.42456345966722 0.4993789392586561 0.09687608179345895 0.9242547651024147
P 0.37747074302571787 6.42907406318037 7.910428338322172 0.015418648547915382 1.1776351818749267 0.15665654428620115
P 2.847282352977512 2.9546793996772913 0.8209487877865234 -2.1292529123713266 -0.6166922058605444 0.7804501370782172
P 1.5680301288172194 0.15372489475763249 2.092206031868735 0.1162799402413675 0.820898989121883 -1.4591671213809903
P 3.458140574398976 7.553616911958884 5.740325507949813 0.6514008129863234 -0.018203153271588005 -0.5661600014389475
P 6.347138677651052 4.94474325797138 6.738592554945249 -1.0374540095359293 -1.0237567145544948 0.37861936597938023
P 4.167548446291964 2.0070475343522967 4.235680785471855 -0.9123369306189061 0.6083767440163136 0.8838596491148197
P 8.410050408020803 7.817108625725451 12.535837851176492 -0.3585717032998857 0.5699444081820443 -0.21830774143909498
Ni 3.690296990250645 4.046538599967499 12.800482127624985 -0.8579524423307547 1.1451464652186019 -0.5453746892624801
Ni 5.846651262413186 1.3243111450346776 3.1390515641462673 -0.8027590849880626 -0.5075681599376678 -1.4596016378152477
Ni 8.573708767687737 2.8271863882669845 12.38086804095793 0.3252666613898527 -0.8026043045777532 0.09826627727276625
Ni 6.789785547400852 8.680616344658814 5.247247556171164 1.1693886255954182 -0.012580407768171882 0.4178793399212674
Ni 8.383194219887432 6.107944980039539 0.5680490142435335 -0.8397572594789667 0.12883232298508138 -1.714356823448099
Ni 6.109007036998046 3.436927141062542 12.718381430621255 1.453663932174574 0.3782936072088453 -1.265990113571252
Ni 7.9285045477559555 8.694653967066902 0.9680473706508639 -0.04452970698125879 -0.6541536931411122 -1.0215944167958535
Ni 1.7431125272465269 2.1213618041992195 12.413173043052335 0.9955661110528919 0.051995676341000774 0.027989029013758247
Ni 0.7031639005047582 5.131692988502263 6.234431346158739 0.47624106768961205 -1.3900592108397352 -0.6012874412696999
Ni 4.552133123884096 4.525433935475028 5.324198662217821 0.007487052405664524 0.8475068215173985 -0.3405140744672264
Ni 1.6434454081490963 1.3056743542323597 9.483820469488165 0.11069730394726741 0.472930001038508 -0.19754556919107913
Ni -0.07819325092421466 0.2612420000701126 10.854839032502387 -0.036232757079789214 0.08065859149333206 1.1915736463328896
Ni 1.4542053286989993 6.0591642421714305 9.875657610815214 0.8645118407158273 -0.542073392803389 -0.5356466633414387
Ni 2.377012767028637 5.603375571969847 4.509584351542948 -0.2580623956292136 -0.622619884198889 0.40013924232902703
Ni 5.259980233811975 2.535102254121837 6.356717507888993 0.45778286098442444 0.22091638270653569 -0.732500605782132
Ni 7.099638356225713 3.653512878374712 10.66411761447712 0.14035806423649375 -0.06392405234747056 -0.7975651994919489
Ni 5.892883063580879 8.330525430023398 8.161340680061068 2.0181030942676728 -0.28998546959005544 0.852182629726513
Ni 0.4009948428927467 1.9787598781444178 6.3579199410715805 0.7904401584113936 -1.1260223427946416 0.30077099024133364
Ni 4.719919652772358 0.2120946216693717 6.568430712581092 -0.23090049050244105 -0.14043005512500975 -1.128334792977902
Ni 4.996313049765307 2.8231875129362596 1.0226823511798195 -1.862565236966947 -0.7896703701249046 1.7540315163299018
Ni 4.1257126374047 6.876615630217201 9.88771426611374 -1.903414152662509 1.124713651285547 -0.29500837672594354
Ni 7.561845544567836 6.703712757372307 6.767626421607453 1.2764917844335242 -1.2879995279628076 -0.3339261368370636
Ni 7.454605497592358 6.004860808119087 11.736456207869976 -2.3411696626824128 0.9183445702655668 -0.04830048687760069
Ni 2.6099264756681104 3.1594162754436863 10.52800347114711 0.3438161422572659 1.5836635359948787 -0.23846981820926672
P 6.893063660157206 1.091849965012307 6.588340124678038 0.39218090671389877 -0.40103707155294804 2.1982880606931174
P 2.971219782396296 4.232407802984074 6.610305309635537 -0.9099856567779102 0.6805941467208279 2.7258794578302474
P 4.961569934305286 3.166158028310729 10.032668417449687 -1.4469749501901725 0.27442823858174675 1.0904683569494316
P 7.7022679450382245 0.7272485817403206 2.6923633367874023 2.651318751704537 0.4612075703952573 0.08092187245704774
P 2.4233738620869305 5.4894214779610255 11.715722085456553 0.9439794972248515 -1.464661054616026 0.08431855684342253
P 5.443198912071234 5.343550263529603 13.435837847204144 -1.0268744342478702 2.523251074799622 -1.3029852027383624
P 7.205114465122279 0.4412597310092114 9.93836237717324 -0.691489453477093 -0.5205483742474196 -0.6982882215664813
P 6.218602079838039 6.512616387064298 9.809074027739163 0.5776952557720567 -0.0017511783631518228 -0.2602277787116486
