# total energy = -340868.86402495095 ev
CRYSTAL
PRIMVEC
9.24800448526905 0.00000000000000 0.00000000000000

0.00000000000000 9.24800448526905 0.00000000000000

0.00000000000000 0.00000000000000 13.53538936681097

PRIMCOORD
 96 1
Ni 2.0954498769871286 5.593960773671597 6.755080120714211 1.2659178655724197 -0.5134757836713544 -1.484003720808696
Ni 4.9440295055551315 5.61777438554729 10.407740457471995 0.1104371083073453 -0.6453985726563014 1.0173078736053578
Ni 2.063738469172857 6.700743469616879 2.477300912213739 -0.15061033809212127 -0.07945788631701155 1.0546076384970804
Ni 4.44383268011025 4.245278021092343 0.7344034670421987 0.41049616008331885 0.607227975123851 -0.9347752050177643
Ni 8.319884117071714 3.217778468685046 9.348649721310382 -0.4242209658685791 -0.09761630239359316 1.3398342532459118
Ni 6.133165682569554 6.4081735957141985 8.235769815924463 1.6313947806325713 1.1290320761552426 0.60403492210785
Ni 3.0558644039395624 0.17375705945150743 4.729413836927702 -1.6645064755848755 0.3873773146776683 0.6896721977626961
Ni 3.5858305562302113 7.801089554352264 10.443027143869235 -0.2853196886832699 -0.1950109756946835 -0.8680383658118469
Ni 0.12047098167808948 4.690005314874931 7.868297578268465 0.23810009357467382 2.0396381401259713 1.838427720488795
Ni 6.286257150915266 3.0327166483959282 4.3428028537273375 -0.9602394107271397 1.7438306645375001 -0.828309165543025
Ni 2.5963310547732914 1.903146869086878 3.283225672523138 -0.8220233325343134 0.2574638428132663 0.3832535223172819
Ni 4.686222880988656 7.886254428823428 4.447647482012667 1.6187266982465993 -1.0514320689825762 0.9862605173812499
Ni 4.759263621413595 6.221095710419682 6.007127402115088 -2.1387099440191686 -1.2339071169937783 1.893453184795055
Ni 4.223646938305063 5.53244304699311 2.8626939332067143 1.1707955332452737 2.7959391907618105 -1.3770630556903833
Ni 6.6150329628736095 4.623142241530754 6.608004479368551 1.1499266602160647 -0.42210520507715693 -0.5978917853245896
Ni 8.310543632413676 7.109264825343803 4.40652715430623 0.3282290864522864 1.034763864298276 0.6347156390211585
Ni 0.80664702946959 7.4673290679080955 6.376711884024449 -1.1030528784826614 0.5962555352727473 0.2457588956715122
Ni 5.642577533916458 5.810280849549002 12.982238822957468 -1.966851238071232 -1.5228343205226484 -0.30071725418526274
Ni -0.06674562368560535 3.5913331189743034 6.049019938206623 0.9377430293968367 -1.9234337903175451 -0.7106768250388212
Ni 1.785077594206504 7.016350123007849 8.601456263889899 -0.11865126868702146 -0.4303327351932718 0.626708966666598
Ni 2.594527693873967 0.9493446654319664 10.570177959278514 -0.42303003088427144 -0.6407543890160706 0.474513286365228
Ni 1.6120011878944338 2.005651752205392 8.404800220218819 0.437329221115763 2.7065799861706874 3.0121429984840256
Ni 2.5004107509384634 3.121626964734921 6.197543817074507 -0.6467746270682215 -0.22756808369509837 -0.5043542809860604
Ni 6.724344377386497 8.309979504132349 2.739792575916612 -0.3175579798916854 -0.4090121193386246 0.05465573967166716
P 7.014657738163868 5.106738898697239 9.618139350103096 0.7543462409023138 -1.25939214863876 1.162662105504862
P 2.3727790392893655 4.332440464559682 8.390493557084179 0.16748371680869223 -1.2419852660162223 0.016879549364158027
P 7.934140596703947 4.57532080968252 4.748621017706198 -0.41529332436164607 1.267871646864681 -0.9965935238761418
P 5.922514633519255 8.29052170242887 9.890349741852635 -0.6500751521963644 -0.41974313260288354 -0.9843386177681888
P 0.37286289954428575 4.770694155113928 1.562078609398371 1.1837832037541935 0.3980491925692177 -0.6801640011619446
P 8.362905834526362 5.989109514729687 12.708011441402068 0.8572214777020011 1.2703242221702316 0.5984646271089242
P 6.62510403989599 2.3716970227497707 1.8400819512368165 0.16964472901575298 -0.3959804829656471 1.4838695092236769
P 6.395392853340526 9.315515045586338 4.893909944560834 0.7596398852010853 -0.28006281115970477 1.4915905320170182
Ni 6.278072666833718 5.987787050070183 4.282664929336949 0.19540229759583122 -1.3522879056282324 -2.4162682435894642
Ni 0.6654401718506552 4.783308433404585 11.512660605288437 -0.8324404141025793 0.1411815885790536 0.6563578998812826
Ni 2.2522867872006684 2.9238213940905786 12.0584352966627 1.7307681749265869 0.21988485611822775 1.153046693902285
Ni 2.2438803510084337 0.17800189356837842 1.475912176027735 1.4558295723673251 -1.4206388833988048 2.7667797955890348
Ni 2.530975406180857 3.3204868079050223 1.3558129641350445 -2.1746033154816677 -0.6187640007879085 0.4411393388904725
Ni 6.780285557283997 6.878295910161118 11.340449812208043 0.5802041382368394 0.44000188285191966 -1.1701265322027075
Ni 7.340464940641786 0.6517401778185578 8.752781363354735 -0.2563659817633972 0.6831115138260428 1.2951137704100857
Ni 8.069031991973402 9.144362224233546 6.4151789592077275 0.7126550318111146 0.0009145413944693927 -0.6292785271659872
Ni 6.987533340637109 4.532816980486139 1.1472491897256565 -0.021285648851653665 0.057477268280862304 0.3198627167654621
Ni 6.837197777665748 7.5105080014411465 0.16958528457107064 1.4498013638953742 0.9148895218374308 1.0859303598697618
Ni -0.07761665310691652 0.613508001952422 10.573521112945722 1.8294322018584042 -0.06390759728723833 -1.1755281628342529
Ni 5.164242991374155 0.8117759728273605 0.9590042062491162 -0.4815403684153385 -0.46630658218471954 -0.24663152808445268
Ni 7.734735121261743 1.3383157394092935 3.6536350764438814 0.15778500146368957 -1.0001349613704968 0.042456369391997845
Ni 4.038575870011334 6.291112353336524 8.390357611416384 -2.8387141198354917 -0.31601377533301706 -0.4751483488460656
Ni 2.474359121946687 5.354344974176767 10.256874983836372 0.08965796677846495 1.3240142554945198 0.6868259865631525
Ni 7.779439975555761 0.468301382338832 0.7017598603630458 0.15163775091537113 1.2018943115326075 1.519040657808171
Ni 5.671791980485511 9.044899934632353 7.41365734834236 -0.8436457959000954 -0.8731366062703608 -0.14949936441612963
Ni 8.707125814186611 3.207097023358279 0.1453240692721615 1.2011510056086798 -0.7496982006073412 0.3582755122157056
Ni 8.643407062410487 6.726452922438014 9.847185605126963 0.6640863788737917 -0.09791583591188299 -0.8647458111035042
Ni 5.046867316839674 0.8704647348950618 3.4284739081574815 0.5301403888112289 1.527388515552234 -0.16279042509808092
Ni 7.178079227661095 2.113936638206355 6.115248598434421 -0.043808769654834226 -0.5626712715593987 2.1367993572600166
Ni 2.73172184229179 4.381057224804542 3.8802306102455897 -3.388015140735572 -1.522395433213017 0.39288024677376854
Ni 8.795851170433366 8.118462576624111 12.179008006391522 0.20277570724176688 -0.025849099852619996 -0.37055484380369086
Ni 3.4988993128781694 3.333424766357097 10.072022168451483 0.7141429292105508 -1.2007249738148549 -0.6419664070463008
P 3.498973296915065 0.4160954715040862 7.704100181184299 0.9477235376483161 3.2968271104658253 2.0127940233499335
P 8.761393105249354 1.8769287760120867 7.734649114818852 1.1065063842489007 -0.4033166116157441 -0.9460307233269256
P 4.7687243301315885 3.7351673347034846 12.105862763514466 -1.4340746971887366 0.44159699525318136 -0.7747718557465173
P 5.8787068356725936 6.325940338705013 1.7258570718736173 0.055093084319401894 0.4656501795476432 0.5012555874560788
P 5.863521612099822 2.442305537961775 8.169838941445168 -0.2412700066622232 -0.14133816876157593 -0.6160532867249648
P 2.074799082688713 7.376892830808136 4.6527765475091885 1.0514266696659376 0.3430772072087124 -0.005005166524075251
P 4.519000461595931 4.499616643929348 4.815918747267135 1.473808525443249 -1.4752599131777948 1.1449328065458992
P 0.29619416691009093 2.6183413057496594 11.616612801128715 -1.0770898787599965 -0.38764625206833886 -0.30085326554249475
Ni 3.688344687353337 7.180548444892477 0.7726069740940373 0.9305169439620425 0.2666496230775924 0.6109488756188639
Ni 5.91101936378664 3.1701327489244377 10.313236023143254 0.375957759986817 0.3322027263880537 -0.8975003798267059
Ni 0.8669523427434548 5.673974509573924 4.671672070532263 -0.7970928878412208 -1.9089494806584415 -0.37788454469588467
Ni 4.527175697672868 3.30120471828917 2.7754861745167756 0.6119652326985202 -1.9662570561306587 0.023128358487347265
Ni 0.5522113025841596 8.905624985176848 4.223596074279698 -0.17694331955969528 1.4685447059411483 -0.517673880913102
Ni 0.9234077116973776 1.0470035941338345 13.508074816388435 -0.6440217469134328 0.6972343263806702 -3.9427926113691907
Ni 2.028651539675235 8.095166853006686 12.53530033127217 0.6478017827811553 -0.11128454390930512 -1.2767218981664592
Ni 7.459930664218559 4.29995222435801 11.914296821581788 -0.6017481829562024 0.16033219336557547 -1.0243385551998938
Ni 4.879136257193292 0.9251981253902452 9.60376517653479 -0.5527100465816287 0.06226800480128632 -1.0291981972850404
Ni 4.454134957247929 4.005699213615961 7.34288144424688 -0.43968358028055243 -0.13849170045171633 0.23438639216851248
Ni 4.878609120930413 8.379043602574162 12.379697104873859 -0.09091857865844342 -0.5865079689676803 0.1412417523930277
Ni 1.6092915225431415 0.7530640907481295 6.765380548250966 -0.5750717021062806 -1.7937982547048783 -4.373797175818507
Ni 4.799011545235625 1.4322107302341103 11.893370436745936 -0.6255439998242195 0.4422022329373481 0.21166992440760318
Ni 3.25191285370764 7.955762431486614 6.807190777101454 -0.4526388548896398 -2.5512915258766062 -1.7178005590223255
Ni 6.726471418447238 7.204371304772781 6.119985426396647 0.13798082225356884 1.5516414745623277 -0.6021616163445371
Ni 2.2363339792451074 5.271436612830911 0.031089017103889196 -0.7382840452331285 -0.3466883215987384 -0.11446834095392543
Ni 4.609353466654383 1.5419568009637568 6.080476101093605 0.24696320039225855 0.680956158045937 -0.18511917050226828
Ni 7.550718325493772 1.8428776230309998 11.417425578595353 -1.3896565760846775 0.516632069912149 0.7933437052114337
Ni 0.3097332456619408 1.6048524803294202 2.01001865998314 0.7996177111456035 -0.31900808207465065 1.504692873726931
Ni 6.175031399447712 2.7685936366795127 13.298492836671272 1.0086941637944178 -1.0365749493650858 0.40426689134415544
Ni 0.7111373370395321 7.14008842471533 0.5979352869864111 -1.2598071246889915 -1.1756104381354142 -0.05668151185244431
Ni 0.3650640572550542 8.778529657795241 8.273656116418113 -1.4377182074785948 0.3216707165084783 1.5357155473606907
Ni 8.177372366002038 6.33884130513864 2.274771460813628 0.396900166566439 -0.005405487286287465 -0.4062448410061326
Ni 8.657140349259187 3.398900639009486 2.9104469298208206 -0.8677066935040412 1.9510566942411367 0.7738976806716801
P 3.76482568549391 8.559490668561931 2.773942682547047 -0.8309957112362528 -0.03934019236051934 -2.472459446069051
P 9.40568309055255 8.697739089505514 1.9049705755963486 -1.1929119055283393 -0.2787044973595974 1.035347761826204
P 3.1405761261847434 0.5517341055461846 13.205247980570674 1.371912107617063 1.3898864327072966 -2.142870246044445
P 1.2356721362216008 8.074636282768225 10.390617776933025 -0.025643154489401 0.7918884608221459 0.4233619603023935
P 6.901314193640186 9.33021937291929 12.405576720979854 -1.1192138045132403 -0.16750917072998894 -0.8254737529767591
P 0.8221207907862536 1.926100416533662 4.820588064795693 0.9888609311185743 -0.583510576902253 -0.8566200966725763
P 3.539655269202898 6.342142842785095 12.219546634607868 0.4444455204455701 0.5883961871293286 -0.6678227059877725
P 8.20580998018369 6.909396949671002 7.526543116637753 2.085221485182725 0.16261584719342959 0.8855023269245653
