# total energy = -381172.5713697398 ev
CRYSTAL
PRIMVEC
9.17737391376997 0.00000000000000 0.00000000000000
0.00000000000000 9.17737391376997 0.00000000000000
0.00000000000000 0.00000000000000 13.43201438596963
PRIMCOORD
 96 1
Ni 3.277790805831567 3.863995553626648 7.324074698628535 -0.7183029741255114 0.10366842212494404 -1.1674363869650541
Ni 5.841095533696942 7.3561698100804165 9.600344214377461 -0.9901845350260043 -2.1220890476330356 -0.21971310642705383
Ni 3.1488854142459743 6.364224191760586 6.289836071154279 1.3736771699372858 -0.012704592050861989 2.356577255486735
Ni 8.600392255204772 2.060907757085788 4.349165676154398 0.899993578562205 1.8888768782782823 1.3123221638685723
Ni 8.307386243731525 3.907413708801889 6.185080020834409 0.8562061490636091 0.4888140192586162 -0.47544094038581997
Ni 1.7914233545142846 3.1313015661555577 5.078926574977421 -0.6867511674611592 0.899378056465393 -0.23959698983517444
Ni 9.215643390894513 6.266668708878993 12.927574450296651 -0.5992994643053937 -0.21876874023591358 -0.46878898228694105
Ni 3.80526036167536 2.2362139503128975 5.763059407028036 1.1356166713512958 -1.5086217764676921 0.09850667541834648
Ni 7.882528903701381 8.394103248223358 3.8866342991743728 0.37703659487329255 -1.121472775750746 0.32910043331364613
Ni 2.645212788516195 5.938953869912034 1.8411261752283137 -2.0785849537028134 0.1916870535277731 -1.6090755483100805
Ni 4.651450930218573 4.96597788311772 0.30082880485125785 1.118480011671009 1.460024584285279 -0.6978169383570176
Ni 8.385283792056923 8.115065199586027 6.696892977073687 0.4641486553014523 2.3045481548046376 0.22104339520270316
Ni 3.2186150999406444 3.7325388521406717 12.239398985112516 -0.14507680986840177 -0.5919484232569612 -0.4895722375808794
Ni 1.362307713067671 7.557503035240941 0.8787684098539441 -0.9631642976834187 0.2819392022468112 -0.3940323581003407
Ni 8.427619017130562 1.0755514931129921 11.643877367494161 1.1257420925500612 0.6345341191379716 -1.1799484033891356
Ni 1.6746779831373573 8.906953247695526 7.318137855554584 0.095356559825139 -0.11417600652448724 -0.4447237138076212
Ni 7.6300501746745235 6.107239372226216 8.598396176415802 1.2767141848569752 1.3025190617352214 -2.637529925450561
Ni 0.8263298140273091 0.6266641176757766 2.886392334991423 -0.21830285634308855 0.4834861792877996 0.38248193425857996
Ni 5.23867436649906 6.816962393220108 4.669693713743693 0.5672972003671842 0.7116003652943551 0.23382974833409406
Ni 1.1413073759772077 2.5943426058621344 9.94639269286959 -0.867088857414384 0.847729993271798 1.177070567620708
Ni 7.714555432094439 1.3145578374860225 7.084191915063106 1.5953916230650846 1.9798908448640096 1.2804127167544852
Ni 7.820535744071544 0.5134391868664296 1.7661892476722123 0.22885286394479293 -1.1044263617914207 -1.7057194594880751
Ni 0.1825783441805788 4.779484471298638 4.0479661054039475 0.45660992372224585 0.9313268414578476 0.86081845102464
Ni 8.47902148746168 7.117154288333643 10.617133901155313 1.0583041135120612 1.8282276400273418 0.9132378451666208
P 7.602352860719995 3.030387164484251 2.723461830255924 -0.3667555246622587 1.4140977398461776 -0.7878243180551013
Ni 4.568579245324803 7.646587802158309 11.629625823809604 -0.8386126043515622 -1.3586819820800342 -0.6487672320182182
P 2.126865542172336 1.6128775483561115 1.4971728911615707 0.5302548029019062 -0.3715984545768568 -1.0534940937179278
Ni 5.523943851907472 8.145010970107442 2.7309973718357994 0.9530246381462555 1.2291935135681928 0.687672393723848
P 7.056519380017682 1.2778666972639523 13.290024731141179 -1.3468122272256418 -0.9901886487910624 -0.5610540476709499
P 3.571044606395857 7.9079318742203135 8.182662063622965 -1.2005228851063776 -0.9129604231355181 2.3141049452551377
P 4.574599602499809 -0.07071992432147349 4.49055046055489 0.4583348768331526 1.2486295108056173 -2.2771900745066587
Ni 4.535017589548887 5.444504504793355 2.814571125820863 3.4734295017463346 1.2086588839499506 -0.6343289451057011
Ni 3.9249792021448218 5.413338143564202 10.69076855937737 -0.3994622708666604 1.6984584070502877 -0.18702975726141982
Ni 0.46858110175100764 0.42773261122363526 0.2468254668015455 0.4893832614985249 -0.2575965117363886 0.6428812055510864
Ni 2.8739037648027805 8.580146968729062 2.3461295201507393 0.7721251621522895 0.37179025887268874 0.4152578431380203
Ni 0.8135943724849962 3.2979902054385644 2.4165401669770947 0.9235425695267385 -1.4243428146129533 0.15128371001006205
Ni 6.152373696291284 -0.09062381249396621 8.349420450946415 -1.128294940878902 1.0610557081152694 -2.149756688751633
Ni 4.323066142968418 1.0539846648183786 1.1864481242038951 -0.5235866468531112 0.5412002461698163 0.5697875708892057
Ni 3.5715952488204006 3.3878458717502924 1.3481580382316563 -1.6152307692781989 -1.0658073638676417 0.46811123949362615
Ni 6.084874112416014 4.9818639170657955 9.55129023398702 -1.3190476555178638 -2.090993868890128 1.4118642225299685
Ni 2.9085667054277824 1.6608385035338349 8.54735437687276 -0.6668827106720063 -1.296212145680587 -2.069833946983061
Ni 3.917839205373243 3.362984366282162 9.553842461624779 1.4924274260960169 0.4175651511149583 1.463887666785111
Ni 1.4671316759532356 2.212820824643549 12.618463983380263 0.616561336709635 -0.4936831744254595 -0.7346809012629024
Ni 6.735412250145241 1.127697330717245 3.517736913275818 -3.685420299828466 1.0681581234880053 0.3334625669370837
Ni 5.086421736112831 1.766268173086397 12.026004855379743 0.44836413877368586 1.152814523286821 -0.25496164521670284
Ni 6.09530878636111 6.9727574898709 7.078980084514804 0.33829624088030125 -0.5522320785039457 0.16305242051021596
Ni 1.1993634422715589 8.237105915612313 11.751037889734537 -1.2082127975514676 -0.24072313301981765 1.3516471867204398
Ni 1.4527599086726546 5.1884190678857385 11.15873936577451 0.816052459662859 1.34127818478129 0.9658379878608399
Ni 2.950883575753937 6.479299281116398 12.784926859269207 -1.2226068614896106 -0.3592404472321361 -0.361379605062326
Ni 6.492055830618319 6.364031466911995 11.661701662776627 -0.3314249676817647 -0.013227554433867543 -0.05806579379448064
Ni 1.1192816789954747 6.959165799358421 5.723730689592403 -1.8762267936144397 -0.10244869078523001 -0.2861198159870621
Ni 0.9390288813212171 7.523418269161709 3.328775705657408 -0.9953221133628859 -1.0282921405310033 -0.11247367912139984
Ni 1.2988094641440835 0.25884966187882325 9.62646944420992 -0.26996428927312216 -0.543816857857057 0.6586384683853431
Ni 4.152458765097411 4.62020197262574 5.087469792194211 -0.3788296822179734 -1.0132419310661 0.030728796542424497
Ni 8.543822923456688 4.966143075845083 1.5420089505800112 -0.46862571723619934 0.3920292116273829 -0.05191648636363316
Ni 2.3928533653479893 7.29340575105622 10.131203892081693 0.970693001960296 -0.7143892408934018 -1.3427563119887134
P 2.7746779999000735 4.440949508689402 3.2541737522429033 -1.6921841440058019 -2.328688499496267 1.740397213375919
Ni 3.197415366595726 1.5215443248718583 3.6254352296174983 0.09625567460064068 0.28466817114220005 -0.7730857262933459
P 5.233764471546881 4.183551707336625 11.738707170374262 1.9968534408602772 -0.7762582104840566 -0.13270466145629403
Ni 6.618061172101316 6.4498399114033305 0.642678634856245 0.84811771562852 0.7976539025510133 1.1949844717866516
P 2.973193771321684 1.634545327761891 10.698035203906594 -0.47782486723696416 0.9276270240087573 1.5573891756793825
P 6.087397890195172 5.228395707907584 5.792301272983409 1.6074544677668896 -1.5521351263692946 0.24386836351701874
P 8.416101413083863 1.5674679030787717 9.340971442195324 -0.18459826500179174 -0.08310988124730202 -0.41874014525966596
Ni 7.212241057678534 5.5486493420219825 3.4727934785845913 -1.256178526797469 -0.07211712968122418 -0.42004318034180566
Ni 2.9009861947165696 6.649365193936605 4.103453424787804 0.32889808749485294 -0.8404920807624622 -0.9674832367737467
Ni 8.525514062840621 3.6993993555569062 8.523015981707944 -0.8852215624593528 -0.06942364200946109 0.38656381763743747
Ni 7.673073702778843 8.267721634416922 12.709385142783482 1.433609841737176 -0.6392250968557378 1.3164662679439327
Ni 3.201664490638452 0.23819047584733194 12.293046241061022 -0.8461418228490717 0.08685674988424397 1.1067393261953133
Ni 4.299847387400176 5.71933931625667 8.33817816811199 -0.5370731113753202 0.8248703150648052 0.023973994317094197
Ni 1.878663469309432 4.626029604952156 9.036481782958226 -0.1832540922690715 0.8804876473187933 -1.3482487025618521
Ni 7.983828755069868 6.445361353017045 5.513586267901812 -1.010652058851737 -2.3034544075198267 -1.0951243676642044
Ni 5.415715083363481 8.826743001187047 13.23639032351591 1.4615867865660763 0.1009926750649938 0.9806835375141045
Ni 6.2013441625806704 3.0067278949763727 0.9413801244740172 -0.5742846874286109 -0.26381086807721665 0.7995063823787198
Ni 7.262716613261672 4.509357652565168 12.752528894483824 0.4660885526366424 0.3490210834969731 1.0367477274975243
Ni 6.4977458023386 0.20100100423104997 5.718249961993449 -0.9466770986616729 -0.936856255916509 -1.2414782444728167
Ni 6.138855424768745 1.8799299468858817 9.5129691921883 -0.7723331643980377 -0.046627727160868084 -1.416468296960883
Ni 0.6508492506990937 6.751885636012829 8.296216462149665 0.9711506583230048 -0.28136610335216056 -0.10427365980911074
Ni 2.4368496950690006 8.732500550226458 4.922201810366525 -0.405583810383366 1.3705206265861751 0.3148866037071093
Ni 6.4402495558425334 9.023928053416013 10.95643976315891 0.481285572092055 0.9462410395655187 -0.3116734960864503
Ni 0.8379566288215413 2.366358287353713 7.4698389257788955 0.8331407826037135 -0.5132389850701999 -1.0704893427243434
Ni 4.23159525887803 0.06980218694723461 9.990947006914142 -0.22300823223855787 -0.25321766594240264 -1.0922997537312156
Ni 4.485909462653365 8.45558247492362 6.45646046882109 -0.6609707160629454 1.023784739578953 0.06436448231899883
Ni 8.329485359703197 5.0057526209172325 10.344933913693437 0.9204163651929309 -0.59039444850628 1.261561388375937
Ni 7.127350350561438 3.1958735678070047 10.892222008133919 0.25785696448662687 -0.8400174551188888 0.9694298189771562
Ni 8.341021318497381 8.543877987699142 8.906741250362076 -0.24770110699954762 1.3717483283456893 0.39346363008106433
Ni 4.359968362786564 7.221289948188528 1.167947456476614 -0.25837324200141304 -0.07546856265196034 -1.9503501550924154
Ni 1.5227373834583688 4.3742667110772055 0.39381762655863767 -0.7678864414805936 0.5746112175300941 -0.8987111123053555
Ni 8.590765190149007 2.7126756628964945 0.3645546526436569 0.38863381279258874 0.2991925900106202 0.3030299614788394
P 4.80453870161536 1.9351869141888043 7.641862372418352 1.345387064743341 0.03814694338336656 0.3448857211723609
Ni 6.221864770268652 2.8092491667876516 5.212897876868813 0.25822771756248436 0.3179729559419169 0.25262579799467466
P 8.396526074891348 7.308566772478645 1.9923977443614815 -0.615433907973411 -0.6315724654064865 -0.9483969095662569
Ni 6.261758813926815 3.625558206425646 7.4868565299094065 -0.731027106560399 0.4451188923635108 0.3496679730523526
P 0.09309069055592031 3.7698999406459364 11.805947952309996 -0.4618526601784239 -1.0990974933793394 1.6947786442058554
P 0.24733848199374503 0.32093918393295434 5.141546549233863 1.079614187843747 -1.5498843826619049 1.3020518922908155
P 1.2785182907996617 5.074794003581224 6.778909330734668 -0.13523179875352195 -1.15735920523471 0.3889608571147043
Ni 4.963472460086049 3.262565542792944 3.172265691592084 1.2955955951425107 -1.5949964445091949 0.6699533791775301
