# total energy = -340852.8121334201 ev
CRYSTAL
PRIMVEC
9.41190060934759 0.00000000000000 0.00000000000000
0.00000000000000 9.41190060934759 0.00000000000000
0.00000000000000 0.00000000000000 13.77526791126880
PRIMCOORD
 96 1
Ni 0.4474568001837191 0.767466116964108 13.564602035660123 0.24854905682213968 0.00864353460761092 -0.2282373418479811
Ni 1.6644945713331212 3.559731290875475 0.7562678379651137 2.0026250532367316 -5.121019918302161 -4.8083043541044415
Ni 9.29905163371692 3.891463129502601 8.637092919323601 0.8123729539287429 1.0916682907948039 -1.3832113346799662
Ni 5.270532411775794 2.4433952059942188 9.568493633655908 2.32639173304229 -1.2110245559686499 1.9744509047953611
Ni 1.2423049587445443 0.35615101400356786 3.6494125830606468 1.8592824524506173 2.6510798962208533 -0.1939740497897369
Ni 1.7637524720924036 2.0121042857976175 7.582885729635034 -0.7792478892399999 -0.9364826746271742 3.2091414369223825
Ni 5.395842452616785 4.856201735953195 10.071331937693957 0.2748581270303137 0.5091501597128071 0.12668262363193022
Ni 2.674899718129253 8.66322129579789 10.711220687030341 1.162961896133468 0.04920628652132171 -0.27276087818165284
Ni 8.010769541916325 4.641949237102038 13.44747093619594 -0.5826978511929706 0.7934015550325626 -0.1289829896303327
Ni 0.45586633311833114 2.3671399896134386 10.895396517223585 0.43864254061054775 -3.354615996449836 -0.2601197923788746
Ni 0.18590761985185378 5.311455354360789 3.8583972413035195 0.42335347566196124 2.004353605892064 -0.24551104132676424
Ni 6.730412270183939 7.776215574078086 9.335071917425989 -1.7260602279279562 -0.7465755958179594 1.342355991226501
Ni 1.8340876031728244 7.504475188081309 13.235056581476993 -1.0387629581553401 2.4560383243985506 1.2026121635352385
Ni 8.917323780597728 1.8838012606553325 1.9359620122206598 -0.2354084056751236 -1.722287905369718 0.14237972265221285
Ni 7.397565412363057 7.775189676943365 7.1997404443278725 -0.45213697555255683 0.34348344150819554 -1.6746877869932515
Ni 8.961164412281471 2.12807772152262 6.160203583665807 0.8853961403640042 -0.21520750524721644 -0.4766354749145533
Ni 7.6226698322814865 3.267981204801491 10.175156492487794 -0.7439116758325511 -0.3086588776298426 -0.3126782832018809
Ni 2.3942556744311414 5.023677090221227 7.437143394392533 0.19504542847704473 0.6442055807894647 -1.713382889570604
Ni 8.010788365716962 7.274984822614441 3.3160233087874267 -0.07971551085377239 0.07577323837657274 1.6343952580217918
Ni 8.201473466170505 8.135364278333107 13.281892079842093 0.34417815358237497 0.03531410192026176 -0.8958772424009861
Ni 7.633860581760225 1.2096644884398609 12.801135976331393 3.331041037343373 1.3871286674565015 2.120812237803141
Ni 9.012374561914626 8.371038262309252 5.3457269069906745 -3.329126079708847 2.06332957020564 3.0693934954660627
Ni 1.4441431610755524 3.2486491615472177 3.2988870618774686 0.31329534796058944 -0.5372389475292232 0.2229239000548677
Ni 7.044713269421136 4.624706635718479 4.483271186061741 1.6883110342036407 1.2248907724277809 -2.086168936697659
P 6.662091285771686 5.471740016785461 1.984492593833128 0.06363506035214202 -0.9820513643959087 0.05124465710758916
P 3.273562461690383 1.3903353269544811 9.221714989989538 -1.42800303707336 -0.04164621478587666 0.3153951679124117
P 1.7969105969146066 5.18298291501277 9.3478278659277 -1.1304695799327176 0.10281790119919067 2.4885154710906496
P 7.999503497235037 0.3505594040243255 6.953961844169747 -0.40640450651244847 0.6570749805529651 -0.4654727734295145
P 8.18704502298219 6.432356210896536 5.493314915885641 0.5858801055756943 0.5882907718997159 -1.076964408925726
P 4.329747091635875 5.288415022381013 12.043633297044485 0.8311168101951493 -0.8252348974930755 -1.320871081879848
P 6.343893759802614 8.658600052741487 2.946088566767363 -0.5192430251724347 0.12614294907837628 0.9980659946566102
P 6.496752432875961 1.4536303565966369 11.107273452434342 -2.7891370802383126 3.260880002947255 -1.4285720222029525
Ni 7.147444161397958 2.597769195018849 7.409730293524765 -1.0319212526431583 0.2811182490074126 0.7593511503160728
Ni 0.03969939554358556 8.491491762585879 11.41859464403069 2.7645357367498646 0.10606057650620443 -0.3982633654625528
Ni 6.240296972996487 0.8638223288551857 5.608573047186435 0.15351131378900015 -0.45234086403324675 0.02445479060825466
Ni 4.121038202072335 1.204224410055747 11.461008431626142 0.13501993985303196 -0.2836273885825116 -0.8342111328497569
Ni 5.3295073791717416 9.192094798497074 1.100443150003376 0.10455442427432315 -0.8544040628578641 0.37714920919175693
Ni 2.0823735335758085 1.2301259597323586 1.4358239823839982 0.22684097572108675 0.0698995532046151 0.973763927576136
Ni 7.12036612418153 7.391551208059512 1.203638989855934 -0.8577192432740262 -0.16496583548284494 -0.4154604460671297
Ni 2.7434089405478774 7.4617451606351555 8.929100891466314 -0.4040414055969106 -3.875976839296222 0.6442724294716582
Ni 2.699361247057128 3.1103318744660102 10.595067484009254 -0.16573253844554037 0.7692365277505849 -0.17037466520324207
Ni 4.62321955546815 9.291710351468462 9.39230756564307 1.7205148726296948 -0.8699996033032759 -0.20230288137040645
Ni 2.34089961152536 5.471758840586098 12.67310871986844 0.5292055357017854 -3.106925430973249 1.2232761196424933
Ni 4.265463812460273 4.322782285400158 2.4519562705239593 0.8717772640289889 -1.1105566430588745 -0.21968893805733777
Ni 6.0524636783394605 6.745151306082767 5.164568532039555 -0.7122287429069734 0.6913431577072159 0.08924710449329147
Ni 3.895820839350083 1.067987152944936 4.813381354263983 1.0308858694001084 2.6823869338642514 0.19176495795356005
Ni 6.849369278309918 0.851083321774047 8.93280635662172 1.2409269999550372 -0.9855218394430123 -0.17928173788488477
Ni 5.050877482141797 6.947488339130658 2.141723094604434 -0.9078745239721784 -0.3647611199400492 1.2450443645575202
Ni 7.660289197854675 4.853246399253175 6.719052106499466 -1.3925832628131694 -2.13737091349277 0.28508340430274776
Ni 0.17474604726410176 4.504573140052684 11.032350019948636 0.4452998980260654 2.856951725889441 1.0426561225621591
Ni 6.751871402910202 3.309948868321844 1.9600828303570044 0.7967990107498857 1.842162762051195 -0.030563474609153818
Ni 3.2920944934175806 8.581460117730765 4.286312112855862 0.5913457566759558 -2.848448059293804 -0.4151498568052463
Ni 6.40577700439699 6.300702549240852 12.063180872816053 1.1812923190115399 0.02949415280437501 0.19445150364678768
Ni 8.46055484623885 0.8401099871926657 4.122993053768495 -1.566604266519747 0.6480653208551871 -0.5502088774263298
Ni 8.72539630930214 6.575050031625863 9.83335109694974 0.06373353360321928 -1.6980886824156949 2.2865535179994296
Ni 5.498008630574494 4.864663034339559 13.781742105529005 -0.053853041264713714 -0.6629360673194324 2.3965139437806724
P 5.328632072442118 3.6265651950374007 4.688783794277105 -1.242132590227364 -2.3175800482879314 -0.48573255211981503
P -0.20697521752486517 3.017907013337985 12.784936213503128 0.16311592675829972 -0.5584988853492638 1.3172471119740154
P 8.803825674656501 3.397018358168622 4.207490271258217 0.15181181459939017 -2.8116350042305127 -0.18324380785642636
P 2.2025352649425596 6.129500082446679 5.472500498331198 -1.5991207510902137 0.7429161446885012 -0.36881394985318416
P 5.6511496606573965 8.29627953807912 12.816715494928664 0.9491019060530815 0.5871440598897824 -0.6932799697186125
P 3.8550014276685918 2.4869723044690413 1.1862241506965465 -0.49582258936596546 0.20200977561001984 -0.857847027101142
P 4.808530460839809 8.4256461079574 6.044160499878449 0.9642066229050039 0.4040005250566462 -0.5526002604766418
P 1.7886940079365243 0.5304819964636222 11.895177510940151 -1.123146049688111 2.0315815883700816 1.8460808661586785
Ni 6.218706073665764 3.3555024658635584 12.21955771422847 0.008293350357043781 0.6822170270362315 -1.6359638880604923
Ni 3.774746153652434 3.269684758759146 8.469089557447699 -2.153687648374923 3.650322427684068 -2.8231208933829253
Ni 4.846441595322873 7.51320943157691 10.806545354646506 -0.6817969087796774 -0.653095941300559 0.7312315092617213
Ni 5.564626061029094 1.599910111347326 13.458064030004453 -4.296202310852163 0.7339105987557811 -1.19479729547651
Ni 3.422006953514335 4.500563670516987 4.886114637545567 -0.2507697186225423 -0.44049733443109945 0.31078877948865186
Ni 2.1269482934843955 2.4530047562194444 5.578542496840082 0.98427742551295 -0.7862096652698137 -2.9226225857246892
Ni 1.3194731294562225 7.8980526237015365 7.0457871672474806 -0.3737365839657822 -0.8765903691469161 -0.02947435531003311
Ni 9.186212360797988 4.074872831009915 1.6113898061658445 -2.4612178117169616 1.729580068155757 1.1148717254944605
Ni 7.422855188518963 9.163915568943375 11.159482204691294 -1.0620952051233774 -4.242678370792094 -1.2390740059066983
Ni 1.5872981649204876 6.679333887155243 11.041386385444461 -0.9747327192473084 -0.3712241019565735 -2.382776282479606
Ni 9.406460240152054 6.617987120879024 1.5354875360470095 1.1808380050829406 0.33718295321146446 -0.970365443417548
Ni 3.44171547278135 2.98649950197503 12.811866483884556 0.5936237540768551 0.9522759329056888 1.1602789499846664
Ni 3.3849146543589845 9.47270119459391 13.507063324252782 -0.15824111516450165 0.4365324362460804 -1.667245728892909
Ni 3.3339398022337923 8.857548801674705 7.505950032861224 -0.6691229128564347 0.29944558656169074 -1.6893099077818006
Ni -0.3070999543034848 6.262923181362248 7.6283160312825755 2.590834064055919 0.22188028928170175 -0.3327639982081624
Ni 0.7700826252526611 4.149320962529536 5.895814833007839 -0.6595129005704964 1.481767118168693 0.31005550086705314
Ni 5.187500627165668 1.794425855230513 2.7192382393398447 -0.7560655375862657 -0.672372530141984 1.108546040386749
Ni 1.1686097792504062 7.6978144444246785 4.3293602625327825 2.9396803125379245 -4.125936917533275 -2.558391370146181
Ni 3.031337795092536 8.434088582543128 1.6581980100200207 -0.5260479639094102 -1.2534284748561573 1.5547044297583676
Ni 4.399668099102279 1.2498438908996918 7.135230338354594 1.6348652556796746 2.1213827655946305 0.08567918463637503
Ni 4.284889974717731 6.918236152940647 13.600390786621356 -0.9606757269336101 0.42997380919195627 0.27413101905630205
Ni 3.0097186600608588 6.126911809859081 3.04050498600279 -0.9217188860544384 1.9487570995736823 1.3989012346113971
Ni 8.829209569815593 8.567982276474622 9.001820056897419 1.185266216057623 2.621738724054575 -1.145970503781794
Ni 5.593379416502223 6.350312675819856 7.743848990072672 -0.8096496414603089 -0.47616033505034766 -0.1110379751161378
P 4.53121822985446 4.6238030932879 6.906780929062956 0.29766895427724216 -0.3014441050489583 -0.08206935579792962
P 1.7406462568103973 5.017540531213542 1.8885476819859703 -0.3459223899669913 4.318810792280298 2.9495137536885787
P 7.302279333538197 5.226635308690142 8.831337600477614 -0.3975411425845476 -0.11248010687930306 0.8180748894095267
P -0.0800726831499783 8.948693644359409 2.2567327517368185 -0.19915765087320542 -0.4371451301294148 -0.6261042432030637
P 6.862047108038986 1.359473705810001 1.1457190964856943 2.5748464303784107 -0.26030285492395816 2.1685265131599687
P -0.012279706345594138 6.265436158747296 12.747935209780866 -0.14244142912808372 0.622583888754631 -0.3405521267940135
P 1.7310272946848533 0.2807033386701182 5.896778611600459 0.20135080186978224 0.30435973603385647 -0.3327442007138205
P 9.165204999287017 1.7760726496093675 8.851628716374346 -0.469520718246643 -0.7947187311820894 -0.16676303659258376
