# total energy = -340896.663294166 ev
CRYSTAL
PRIMVEC
9.03546355290489 0.00000000000000 0.00000000000000

0.00000000000000 9.03546355290489 0.00000000000000

0.00000000000000 0.00000000000000 13.22431422833541

PRIMCOORD
 96 1
Ni 6.409830275938979 1.8336570157075427 11.31398273878631 -0.22301363155519657 0.4286108674061586 0.8657444275713478
Ni 4.635491079824025 0.38500020732037454 5.954287492395418 -0.04839613191520053 -0.7876083453895533 0.31668663303032557
Ni 2.6732142374751264 1.3922836464343695 4.776913255068693 0.1701448085806231 0.5609424617937501 -0.12215028297921543
Ni 3.3136027315535337 4.304738893379803 4.7725364764227445 0.3012402165682683 0.13981067637345598 0.144745394670912
Ni 5.082656181368158 4.65030020492871 2.7455657135433147 0.14296773394519896 -0.03473586081928856 -0.0011359133766561081
Ni 7.256850790773353 6.133164375569583 2.7737202186233616 -0.23188882255763935 -0.4816938632740672 -1.3075486537393288
Ni 4.9300381629769285 4.605854758687134 11.349781246208371 -0.03760778305044491 0.2337032500585588 0.45088202009953315
Ni 5.598147459874843 7.649595294083492 12.41444439793817 -0.23181914566196848 1.272598105806073 0.3199416496325135
Ni 1.8406956419775544 6.491700613079641 0.44644858926786574 0.9478160973621226 0.27955887494009274 -0.6148204427591282
Ni 2.914967105871061 1.5556538667014832 0.38082491951630215 -0.37181648412493384 -0.8036219472089902 0.3800717821551906
Ni 0.6089920646008253 -0.12024304818830395 4.420624137396058 0.581010950408851 0.9063439462602648 0.8104510543156817
Ni 8.872617597878415 2.3760920471502676 1.300069510379831 -0.6055053360057895 0.3674821184156381 0.6393662504192924
Ni 6.836394520107468 0.7034713914203086 4.729808671842182 -0.400327189970117 0.49513944725601183 -0.1661649979972687
Ni 0.7264341190231427 7.364607731589989 2.463187592984059 0.14600986320563242 -0.26742069691566206 0.12329776632009734
Ni 7.488529117075497 3.86589545395978 3.7625161953354684 0.6277916582078156 -0.12434111998294715 0.357574629493939
Ni 7.827160227919526 3.7156537625377584 12.652190941702367 -0.23774219601462282 0.5948553124911111 -0.6988739188666222
Ni 8.058820483294147 8.92698398332984 6.872371929712003 -0.5371181056806427 0.12405007110508959 -0.2694410697798005
Ni 6.984630338574492 0.8418314479962896 0.44332412589922643 -0.5034199420972492 -0.916191528478306 -0.5822857033562165
Ni 1.8566703419074397 6.5150392159749435 9.135052642823846 0.4303926418969297 -0.45955666505539566 -0.5098484713314122
Ni 0.21115878810035116 4.933354178177306 1.4411727337537268 -0.9094842916614594 -0.8524189141070352 -0.03862542568168187
Ni 6.264865295353526 2.10114288489551 7.092993559009508 0.6386337431286421 0.021647145956130463 -0.045923244894675745
Ni 3.642990562969807 4.094131268568889 0.4537609900898432 -0.8331927188875715 1.3317823294757127 0.10158274324050892
Ni 5.817745371128199 5.690390509413418 5.047985299823499 0.09197427361646741 0.18617820789440195 -0.9178133803524451
Ni 5.148488570332606 2.7510637932420337 9.405846395294805 0.9951413648106473 0.29167288459480734 0.13637851076345545
P 0.30596881289349603 5.526170955552746 12.463281983114086 -0.03805206967671511 -0.07213641295493384 -0.6981354980387009
P 3.888872638304632 6.152165955859488 12.766647678897966 0.6985093364383519 -0.2709287100689205 -0.45764504985497956
P 2.3866183624321207 8.47315974499367 1.2914722666110041 0.3514080956719109 0.450461901842979 0.36887488499810667
P 6.300609589993021 7.891971609478953 5.771950026600694 -0.22601153784125594 -0.9532190135452486 1.433789047627518
P 4.834497169165499 1.0455477245965015 12.671300044011028 0.1879728379009795 -0.7532586642650898 -0.6149662243083731
P 4.112906962264761 6.000686405902175 8.270816858885167 -0.9134556176043817 0.8254482990554622 -0.015493981870541058
P 4.789401169533113 0.943627693369631 3.7279871705718612 -0.05295315515826364 0.5103066419147534 1.2646271717854543
P 0.13830403670066135 5.572559026502991 3.658691488347727 0.6863235930054373 0.10224557363548843 -0.3360007599779052
Ni 1.484120100103688 1.122340131103343 2.449857573297091 0.2683774044019765 -0.10867564553154832 0.41398309019065477
Ni 1.8476890909287598 6.6646574603974384 4.760316915232035 -0.9182280992923605 -1.195407161146367 -0.36105796005684915
Ni 6.051357286675251 5.720144291579206 9.33559927873661 0.12212277217538968 -0.6422834240660874 -0.4510761383882102
Ni 8.522529518985124 2.3471243503317085 10.30617072504228 0.8968426916380489 0.8741305947525138 -0.25989996305858465
Ni 2.4502370627750634 5.056661152127049 7.0264220691093895 -1.8128501291300072 -0.46612043431584244 -0.11145732204174354
Ni 0.37470610345718547 0.29019289316635816 9.236800096692875 0.9074556912672048 0.10314134597688043 0.033020420790078615
Ni 1.5605149462050343 1.153792580456245 11.23831344042499 -1.1418677944673303 -0.47280118877012767 1.8735099089039091
Ni 4.120261829766417 6.868569806561269 1.78347043579207 0.18302732097024607 -0.1636226911913892 -1.1447132343359254
Ni 5.5756672260368605 7.701115508450125 8.025876278874263 -0.41635493285694103 1.239051380198879 -0.4959508874137137
Ni 5.2838849947948985 2.889216034151506 4.8929042140109535 -0.017432593654150622 -0.26805550228618347 -0.4346514171732837
Ni 0.7372613152482455 7.325438996184982 6.749412821117067 -0.1256158729303127 -0.2896517403997205 0.7893042450347374
Ni 4.858685105654358 4.477930662755393 6.941574546659396 1.18733518277151 0.041040977101709966 0.46110626893070267
Ni 8.289035064466969 7.378983154434134 8.887677908875661 -0.6607650278100426 -0.6299817238805988 0.9004831166041136
Ni 4.6202934297776075 0.21073412130357255 10.3996534402089 0.16094540146954217 0.4369718377763442 0.2417088939718547
Ni 8.0789063192354 7.335531609206295 4.703478426895531 -0.1266733676605496 -0.8980349121739373 0.4090432296868762
Ni 7.268849886648289 6.2466226940195675 7.046113055284276 0.13739461073279566 -1.225552831491812 -0.8105513273389718
Ni 2.312057715474307 5.179986197004315 2.610135857865106 0.7784583034591689 0.7601985859180327 -0.014976418804174206
Ni 2.4367561508432822 5.225506863433479 11.362449869948017 -0.8836295353818846 -0.015746207090663204 0.20841876446015717
Ni 1.201237800666555 3.421675913601814 3.757702100243476 -1.2063109525430644 -0.7702567414849831 0.3290245857703882
Ni 3.753440071987295 2.5530154630592525 2.701713897270853 0.13661093848923567 0.5074632589286874 0.021501364406885548
Ni 0.8841391035119543 3.400514857472973 8.146178057577016 0.602153388814421 0.27627480487218226 0.2606170437302673
Ni 3.7219334098518253 2.483686349619201 7.064759541848362 -1.0126246091970754 -0.11338050720638539 -0.12328208259081348
Ni 3.797921660083916 6.755861431603469 6.182142010433801 1.0637299125133228 1.2081914573952288 -0.30479939467443634
Ni 0.6724725223482211 7.342037143114393 11.10435094406161 0.2171828838060324 -0.15530003025830671 0.8687168799361102
P 0.18040478009619348 5.574266729153867 7.999136727419228 0.3789654364648893 -0.3728318127633256 -0.2077993857086034
P 8.311967071493015 1.779552658705193 7.900893226396809 0.6391158249713831 0.10112071600242585 1.0747987687329748
P 1.7764986719538918 3.2761145924081188 10.443135706013527 -0.5078921189359898 0.1344237010299298 -1.130808451329375
P 3.8285880240895898 6.314677807069282 3.927501956523093 0.9383359257858291 -1.3440328647082915 -0.41219694482450947
P 6.8348223494130105 4.063880535896232 10.577851760054596 0.4607823099323806 -0.7503422619492431 0.24870075190865557
P 6.327273243552461 7.684743248114744 10.182127360795999 -0.28051275421292976 -0.02929360675779471 0.3106882493550456
P 2.302651797698849 8.573823846757724 5.862642590557837 0.38966842470469015 0.23637359780187034 0.020180074492300727
P 6.9881270630500945 4.001843041711508 1.5128881131731233 0.3121540352672946 0.7223054104166851 0.7769439236971717
Ni 5.572432530010333 2.9520215427559364 0.2361635305132272 -0.026250191945780595 -0.12177078815260962 -0.40945383486173353
Ni 1.413408560708166 1.2325095407442321 7.189636879399809 -0.09750368807512885 -0.5061864490987927 -1.1355002003780894
Ni 6.941964878693882 0.577008329978762 9.243200819221343 -0.8905504308714339 0.3470642168809184 -0.900351733232572
Ni 2.79428041641208 1.5806730658563775 9.36887147049103 0.3825415838519218 -0.03456668223127595 -1.765770916254017
Ni 6.364038545596976 2.125683204471058 2.4596303309012564 0.3010131881591268 -0.5329552325522047 0.8268109837309437
Ni 4.078445703479363 6.892875204079025 10.341136162705558 0.020544914030887197 -0.22057416887576853 0.0990059836522682
Ni 8.194316297857814 7.059922858096966 0.41523196551913216 -0.44546496284901993 -0.021801669256123743 0.3159980916037332
Ni 7.607038259768017 3.9360467946021047 8.547059899550534 -0.8981781226200208 -0.2708610900557787 -1.5859150510332172
Ni 3.1978674762357167 8.320108024341899 12.303347046168998 -0.4997350370464942 0.2634761104456172 0.5438754790091342
Ni -0.03677524105465295 5.043451304108106 10.219036326714315 0.7786951020603234 -0.8065702312040366 0.2327311159532766
Ni 8.399665282759683 2.4021051473188986 5.682779034740943 0.69563047222866 0.043510778798441195 0.9208236279336787
Ni 3.5561236143691746 2.6657599798720972 11.544389775337246 0.8821429235340291 -0.1281764345686373 -0.17137533855361453
Ni 1.2609622161284 3.2914929517297615 12.619038018069597 -0.2673301940843848 0.40143379277073443 0.27561146025657046
Ni 3.0692928269131663 8.392527266388296 7.9251597714203905 0.2525028992635651 0.32536950551630417 0.7934534913164206
Ni 5.633566477818933 7.765303443010026 3.6448328940307255 -0.5957423430817547 0.5393850473379485 -0.07894829367044467
Ni 3.012288086043456 8.320324875472169 3.4832047111767803 0.4307248284253679 0.9495654759530614 -0.16608735068179784
Ni 3.3849286824848206 4.160008834852143 9.11333771276644 -0.747678599074151 0.14524316024293696 0.5224121669290358
Ni 7.320144214420891 6.188217456266864 11.542538408812566 0.0029143454333175616 -0.9279232150929374 -0.3803929129400352
Ni 0.5198852245337799 -0.11833204760280014 0.191976498535223 0.47206636748663217 0.7178250060478283 -0.1192667907838333
Ni 4.761255699916827 0.27886332515613005 1.716105632173714 -0.310922991073671 -0.24495028372728783 -1.3907981458882888
Ni 6.0185766241494445 5.617121933773462 0.36360422913374074 -0.45105454112165544 -0.31070136198116816 0.7583491914141198
Ni 7.797325126579887 8.675581239636893 11.339783505556552 0.7002330039976778 1.0545760139281968 1.1851667143652815
Ni 0.04033159959107992 4.824612371810694 5.670110411001298 0.1968626841914416 0.07782035071358856 1.1823688399051702
Ni 7.918562979328304 8.862037069813994 2.5467520795799556 0.4138146829335905 0.592344116033483 0.05090450015935104
P 8.542687638636467 1.664151715546542 3.665951483479889 0.18109796515801713 0.283838219041737 -1.5313567561713626
P 2.003921294824488 3.2432797170997456 1.6000098618518226 -1.042034172707444 -0.3538087346936036 -0.05587495679074894
P 4.775278739674283 0.9571537826202183 8.280774843496438 -0.194258156689059 -0.5424760275584464 -0.43928557351118536
P 8.615170128929194 1.6214681847384091 12.40243626659947 0.012667311055023346 -0.6061483689064271 -0.1188566998296082
P 6.410959708909134 7.80133687248988 1.4678725291682129 -0.7997454949727195 -0.7526845369291746 -0.698907600318035
P 1.8000541259794636 3.067955578276502 5.950385979143311 -0.1049747996411934 0.6972564378678572 0.44924217050326504
P 6.877885369699116 4.032852753340109 6.104568036311613 -0.09671204541176892 0.5865771316427189 -0.3770769611929248
P 2.3270927271730226 8.435111407095055 10.160399781089327 0.4792490012780005 0.28184638542268886 -0.12720558601493576
