# total energy = -381162.0041192971 ev
CRYSTAL
PRIMVEC
9.30060800132429 0.00000000000000 0.00000000000000

0.00000000000000 9.30060800132429 0.00000000000000

0.00000000000000 0.00000000000000 13.61237992980191

PRIMCOORD
 96 1
Ni 3.0295149461502926 8.349295312060216 9.28659663553867 0.1531744992748717 -0.5567939868430153 0.13693849703198352
Ni 8.44090630087492 6.537639180057411 7.467139153544213 -1.462149601048082 2.571676003070229 -0.3039247053789669
Ni 3.8850592749916233 2.401379783553465 12.143454164688446 0.5363182354871666 -1.475816557012213 0.14230644621211622
Ni 6.008313676868444 0.21194969562442184 4.277581205025831 0.4744531225512538 1.3730909584165127 0.07496668331487735
Ni 0.23900423423996456 2.273031393132863 6.892587583826387 -0.4433723419860493 0.8792817999361502 -0.24484846804210086
Ni 5.7551232252438025 5.308805648468161 3.737224250686293 0.4405269021174542 -0.0576454184276104 1.6449203259228315
Ni 2.87836146491003 6.519112368918437 3.125987362767378 -0.3777786152456397 1.3563219664882897 0.6993847970647696
Ni 8.967609032607466 0.09490898441203463 6.476089616425131 -2.129250084157849 -2.0522375740575365 -0.7477300211373767
Ni 5.9781611057276045 3.0869648017755145 11.25739733117662 -0.9798368732430931 1.0010569589641338 -0.3024167533748727
Ni 3.9328457989032937 1.8277368832373853 5.479759194082802 -0.6148757214770959 0.3941879098415985 -0.7334933087127045
Ni 9.103063087541209 5.199086375874549 9.270167111504032 -2.043865290833441 -2.962014200148434 0.5047422604530983
Ni 4.537701539672384 0.09107899403701986 0.15517134389690784 1.1920457008733019 -0.04030512737694994 1.048100433506182
Ni 5.924496597558991 5.948008534586765 13.658525998314046 1.1202895540759221 0.9726406126049701 -1.5605832571366478
Ni 8.853695185805181 6.062080491725075 4.615223037425628 1.7264718615440784 -3.0995466220106747 -0.1501747932165994
Ni 2.8691073599485444 9.135001375418335 12.417988581615715 -0.5517667088317529 -0.10508355730491578 -1.6916012749191383
Ni 0.838520495955398 9.208801699910182 11.105251475062596 0.903383320970044 -1.1344146806233946 -0.09701286448163937
Ni 5.423138022630513 7.195573490691022 7.45416666550373 -0.5236198140838918 -0.9579020208432147 -2.0100547700418994
Ni 0.35376722655278614 7.746355496539433 13.414197165993224 -0.8258694457532809 0.9770587962773237 -0.29849967770865365
Ni 4.83851110426467 6.000417460675177 11.211483019655649 0.10312746201980948 0.2873020092206213 -0.8843566433558964
Ni 8.116603400470863 8.520435799895687 9.416295474241087 0.5860932500277648 -0.5826310025107773 0.7352727692106306
Ni 3.139373727863927 8.471700613967863 4.66937303733192 1.147375611659437 1.2585326288519423 0.4184820065022728
Ni 1.7273182186452662 2.0670880301558054 11.886697859956033 0.16068057784392972 -0.35894965546459473 -0.22118120633214813
Ni 7.424424251175757 4.490119629136747 5.970226757041531 -1.139415990492728 -0.39989010243269835 -0.5157177856279956
Ni 0.9292851294419673 0.15597491642823685 8.53783444728408 0.6610550482466357 0.27226876903658265 0.18613347069939556
P 7.705618833492893 2.094469020112201 4.179722067755722 -1.8699309333033989 -1.3853034413223044 0.890274551502228
Ni 3.6969637787694305 4.863883162892742 1.6820679705356028 1.8966369818396756 0.2994432725688456 -2.1130169101284384
P 1.7677386610197545 3.272790949645343 9.8667834436446 -0.26583278360325185 -0.21652031052136902 -0.39483659916919095
Ni 1.0183886743394701 2.091325414607696 2.169772322857088 -0.03698094809972341 -0.08243162423335482 1.2544412323913878
P 1.5797361708775768 6.116851772245867 5.48385611190746 -0.008088433435089297 -0.8625624302989404 0.7313492657865082
P 5.193013078849574 4.712432062196432 5.8391393375644896 0.6248372035651819 0.8823434695806095 -1.4945344451366906
P 4.809093281155948 2.0774210056454643 7.497141054835429 -0.019110238466889667 -0.10248211512632671 0.15846171581574
Ni 7.867477314542875 1.1772244577889661 0.3849251934185876 0.38427142205883497 1.241284897515088 1.3293516085470332
Ni 0.6205849290212152 7.358213222813128 2.182473233143927 -0.6409153400739671 -0.9906352494101778 0.6927834896981682
Ni 5.354508836187497 2.737336345783393 3.916635769217492 1.440597843019235 0.20575921535012304 -0.4551186838887
Ni 2.523617674517087 7.556744001212996 0.9311164191574612 1.7968972053451762 1.2257896300929663 -0.6678587014320305
Ni 7.832051298665188 2.9053611299383637 2.2207917381100777 0.21652570983800776 -0.3652056636766356 -0.07538577313016694
Ni 6.077352090063527 1.4726024673083797 12.8004016808131 -0.6692944054372926 -0.7137382375729643 -1.5588716737621797
Ni 7.055543536620545 0.9893428755508077 10.305007631337343 -2.6326941946248144 0.4988405502566828 2.356136054184258
Ni 1.4616184492586164 7.747387864027598 7.119751214019651 0.6608637581714359 0.376419530114584 -1.4672280440122536
Ni 4.939404099864865 7.345834113563142 1.504793731723147 -0.9959384067906459 0.3644425602583659 -0.9807604134986272
Ni 1.6644089061231682 4.3619944533081805 2.3010913274733675 -1.9482403078382642 0.15737413917851606 0.8564861421978734
Ni 0.34075753608029785 0.8500802216404534 4.385445936383944 -0.3165192542145258 1.3827197397555284 -0.5780806641359334
Ni 7.782339548897209 1.1595161001541237 8.28770668587433 0.14610705090512902 1.0632146634398012 -1.5042277611650545
Ni 1.2449700864718405 5.791990835361721 0.32288548774462905 0.49345897422979534 -1.9977800664396046 0.3531176221638499
Ni 7.315225812630228 6.841787662922232 2.1450792086131245 -0.08977315220009055 -0.5319602156287871 0.4233462765731096
Ni 0.59525844337235 7.12759534680811 9.369578520249588 1.2726351296915954 4.562698953291658 -3.1220563730774167
Ni 1.9633304472911506 9.307025421013948 2.85331771774441 0.08580465447064577 -0.24578409248249286 -1.1628595662276489
Ni 2.172268606044689 5.715883960085504 7.8916003015163465 0.06375307398724506 0.21697591000154892 0.7189321230690779
Ni 6.2783847320157955 7.766389006174649 11.728861891866698 0.6205401188517249 0.3513044802145111 -0.12921078937042263
Ni 3.6598543528434737 6.615764287269951 5.886959343664965 0.6263119883384956 -1.239149339229324 -0.23463270385136364
Ni 8.266798919086973 5.6211107645502905 13.356820785171216 -0.117552636306204 0.4550904017539259 0.07286506359084226
Ni 0.895200261238096 7.9749830424321315 4.5031386202172365 -0.2965934618248763 -0.6238642981289515 0.45771729785381177
Ni 6.590866559649955 6.864425342797866 9.39668049196594 -0.19531796541214105 -0.6984663990155584 0.6563980090905986
Ni 1.9599915290186147 3.3904064384322226 5.548732503021874 -0.5707699894071332 0.00268860257575666 -0.5666775645053144
Ni 2.4401354170956866 2.263405263851318 7.9173276433700766 -0.6967884970925032 -0.5016566795492392 0.1318762520177277
Ni 8.06064164212588 9.26778615585565 12.059956096233444 0.5568785761370216 -1.0047629470608115 0.048356536926516716
P 3.058049211498873 2.4860990218390646 3.338327683927863 -0.5588729808592311 -1.3736332040732278 -0.826563386496512
Ni 7.293294978962708 7.414453999398156 4.565483385833644 -1.0511785582108735 1.9662364873053684 0.9535357734547191
P 4.449345763658202 7.391062970274401 12.882225639827833 -1.1161343942569681 0.07715314944323487 -0.1026654347817264
Ni 0.5748733707546777 4.048991791625937 11.809311221018811 0.08722570318788848 2.7164759051281604 -0.6147361105754381
P 1.6561499662178425 0.7140337179770155 6.258250775814164 2.1582307876609153 -0.37452179887123893 -0.02293655419151534
P 7.195396779138993 8.486349071570215 7.366775362539302 0.0596436798045618 -0.5172023405933222 -0.1938974309155306
P 4.784883798528061 1.007274447777686 10.56029350994472 0.27880811281699724 0.19900415601447663 0.3663073813812466
Ni 6.220293134438471 4.438612862024479 1.7618643970060115 -0.17534177940053028 0.1933248462415122 0.11788379439337762
Ni 6.910454051797254 1.8225657451885553 6.196028778223376 -0.7030609603647763 0.21779249236557333 -0.6275715717772096
Ni 3.551176748346029 4.407874352579545 3.920474130139708 0.19084938811782615 0.510145947967173 1.912451580274429
Ni 0.12314935054776772 1.7051362685617057 9.919396053048246 1.3448322206811356 0.8436362828183985 -0.49328131100135036
Ni 4.208236801827499 0.4745198104185691 2.5099048580796857 -0.21844452412727539 -0.8874527657827168 1.8061539480567539
Ni 0.18608470477227002 3.429431789606487 0.5094714952881796 0.8800757565923554 0.20115951179458258 -0.47742866023981
Ni 2.9885550685117175 1.9308713253659404 0.9925766969529268 -0.7788797072673038 0.6215755020947746 -1.022915449600122
Ni 2.3226966398608355 6.787100087873454 11.89104031383193 1.2615259071523113 2.0272533933083734 2.6465748092616486
Ni 5.183312544704017 2.121301274196508 1.3439146046957229 2.764132073553543 1.347526736794163 -0.06885105733544271
Ni 9.069450690223812 9.513126894327032 1.8883368547927128 -0.776282893074405 -1.4587621726330877 1.72564756587057
Ni 5.420645459686113 -0.0795946032767764 8.454962309747575 0.8574675322745362 1.6702570049154075 2.2450314874962434
Ni 1.7044666247855982 5.667651006989762 10.300188056270969 0.11719062498109493 -2.534085960631597 -1.633743740480722
Ni 5.284670570704287 7.465309723950319 3.582792305125504 -1.6110560690752191 0.5587958477643925 2.014169563541221
Ni 7.260073207181375 3.438685894567972 13.526063948974382 -0.4414406721809752 0.42584281774271826 -1.1040018726594922
Ni 7.171708130559191 5.30394143048338 11.015981449281867 0.2579775492248912 0.12299386192643334 1.1228969097917822
Ni 8.746998610812053 2.1842012861106044 12.059043706588497 -1.7826139559532848 -0.8535972506858525 0.6787262402741536
Ni 4.994677613217737 4.01549100160456 13.392430953087331 -1.4995146719601014 -1.079103823866232 -0.6357008857525632
Ni 9.075616993328804 7.060537963117346 11.335695429697987 -1.5444423857107272 -1.15120475559754 1.314973228338174
Ni 4.096564401553574 2.8846765777430434 9.472691570979741 1.0258925299505752 -0.6372767148801154 -0.29351019491386227
Ni 3.5629048150359117 4.141793258264834 7.009286962725119 0.9909831196678998 -0.6078208715128436 0.1670728545235187
Ni 7.121875472887191 8.281893805873397 0.36712568982533045 -0.33242872635593074 -0.43192553360168834 -0.615581746405185
Ni 9.383011388386146 3.2303057722945234 4.076622037876772 0.8179288507499656 2.3362038340367057 0.49033045590314256
Ni 3.3094074433472205 4.418765364549293 10.958932449861509 0.6447673668302056 -1.198022744392343 2.1343418968584595
Ni 0.1450150799592776 4.664998961388818 7.04561792776135 2.2044445672128163 -1.4959876326434494 -1.4876534017461411
Ni 1.0594415580580598 0.5825845048487155 13.620819473354391 -0.2860593950627719 0.9993644017530596 0.521550847370005
P 7.813850008806266 3.367508341532547 7.925399641054572 -0.06778327819256068 0.5665091572482501 -0.31486886309529644
Ni 5.826337980711234 4.741347652473074 7.97939990117204 0.22503323308838666 -0.004669637561527442 0.5942516174688411
P 2.413145052675354 4.073312881549842 13.252387048104852 0.5411058866837971 -0.6523127832776314 0.07553026912783121
Ni 3.75738982895513 9.464670726639254 7.011001994840595 -1.9354588398028796 -1.430542258555446 -0.2052421665043885
P 6.371725633918778 9.322650442456457 2.0789509556617096 -0.2569658201309252 0.025541595914530202 0.007883259402818681
P 8.848533348364352 5.409587036772338 2.440862724641403 0.5864105241578675 -1.318534206216555 -0.1647362359705421
P 4.099363884562023 6.33877357976949 8.934118473254891 -0.034914295378681806 -0.24964511809979584 0.8799178908582523
Ni 7.844467610347181 3.25339918196223 10.119606521253184 0.24737560533932884 1.3452322843330318 -1.3255337774628397
