# total energy = -340867.7405537154 ev
CRYSTAL
PRIMVEC
9.28589263642137 0.00000000000000 0.00000000000000

0.00000000000000 9.28589263642137 0.00000000000000

0.00000000000000 0.00000000000000 13.59084250581434

PRIMCOORD
 96 1
Ni 3.812546085466365 9.068175602806122 8.42708314635991 0.2255986186735534 0.28832813649229055 1.899003425189323
Ni 4.490954830082443 6.447854559498081 12.099532969541205 -0.23493069470775668 0.37585157342625597 0.3552454671401301
Ni 2.635122756178883 1.0010656562366382 2.711944017414262 -0.58667534778348 0.6454235123569658 -0.25526632094131524
Ni 4.979792076418562 6.570874065215098 5.396366506217104 -0.05196199488958793 -0.4501160884677861 -0.5378848086433382
Ni 5.456845524992386 1.2131554441726784 10.973612915201553 -0.23795611179764176 1.9341087535328885 -0.4469029808471271
Ni 0.2867585792570776 3.986415139289238 1.521862159277638 -0.20584174776160033 1.796358559232887 -0.22358364512605367
Ni 7.366805067104316 0.7457769671422244 13.615169866391858 0.07712640997035748 -0.5604935471817895 -0.026796551367553847
Ni 3.2931303946611834 1.6374185930785339 4.89982475475618 2.1951158336127223 -1.0137520379332992 -0.3517135427274717
Ni 2.9435165367018175 5.531346241656609 1.7496711062775192 -0.6686817115539581 -0.041613047555096074 -0.3164606330624486
Ni 4.384622073442531 8.749493053236202 6.186985977515281 0.5362704129683667 1.0761545114299207 -0.952474164959424
Ni 1.8638272274680494 8.324022738286928 0.32063630138172977 0.6185266879661219 -0.37837819650285154 0.04923868242115391
Ni 7.630710135980948 2.9526167114906667 1.0266083611261156 -2.080425349345662 -0.05947372988560079 0.8280242873127547
Ni 2.2923433152037958 3.1838911536244248 1.1372107712026738 1.5015946944175818 -1.9540697700358474 -0.5228695661814285
Ni 4.36618957654879 5.927454564072882 9.413846670749829 0.3644551586638562 -0.5447085164333909 0.7764975801883723
Ni 7.480761541603051 0.5976641937395877 5.022971477202389 0.04257849679215892 0.40593450885456545 -0.2200388651975888
Ni 6.531176874171903 2.789352147064596 4.038070702876392 -0.010639739102033289 -1.0594603386036916 -0.8046750710638528
Ni 5.453929754702898 8.713408074430621 12.305556283814433 0.6699024713349366 -1.017228169407358 1.541235191627339
Ni 1.5378366803891252 1.8292837068409886 11.352349189663766 2.7333397707630347 -0.1797663908307872 -0.21822546613793384
Ni 1.7482735794349458 2.933877780139751 5.714011821578948 0.3468572430764349 1.9685350535315582 0.8361865114085728
Ni 6.992778597389966 -0.02099168890578864 9.804841252088327 -0.14785822926828085 -0.7182775202042146 -0.6359533680830016
Ni 6.177226504348872 4.467201516705018 5.2918119980180744 -0.8148877499307966 2.403436124821803 0.017921103254794943
Ni 0.4173535161911793 9.326100556821508 12.39170893856544 0.2660636686671353 -1.3421726715711015 2.086157109623117
Ni 0.5488463989437317 8.927522186962548 3.0725904444212118 1.2075409682954235 -0.022970749863560437 -0.5878403146258585
Ni 2.961001872546107 8.125917504669262 2.2779065379137715 0.2770350800769745 -2.285040423789013 2.266319193230426
P 4.624095958778895 8.123038877950341 3.9549898214112544 -0.755448215717241 -2.8918320827063937 -0.2015976277732657
P 1.2241313692751477 0.86774252404441 4.800489846811041 -0.2869446258812026 -0.5734182256632576 -0.3702062022150205
P 7.142170038209363 2.6393942667940573 12.499674155131759 0.9098807557689298 -0.5936234969665388 -0.9551506833503227
P 2.06571181939088 1.159027975964308 13.515522023864694 -0.6363660301403878 0.5799058902701302 -0.12563978418971267
P 2.9092051633907987 3.050740739035332 3.198659437281757 0.7154341372181485 0.32365792214183614 0.23264884065211547
P 8.56514022662087 8.565437375185402 1.412849494021336 -0.031968839597112685 -0.44813865302644107 -0.35773403788993874
P 5.528792621180146 4.982457127606725 7.300959730971407 -0.22755882772371777 -0.1046402991199101 1.208817263904686
P 4.464601466765346 3.814412549887343 10.737663026122707 -1.558476752316606 -0.30442581338510155 -0.6210173155984595
Ni 9.221132826399923 8.164611819307154 5.111258030082454 0.24688940973152965 0.30369870541108984 0.4993524568960948
Ni 5.088455592111537 6.294637330910311 2.5055130524540634 0.30844496184682363 0.4517322839149704 0.4627011242216483
Ni 8.867600321745769 1.0124780182932667 10.7416308880485 -2.1631400520370745 1.7842332367242626 -2.9809295489956984
Ni 7.094821271629422 4.2502737787026605 9.326878714624883 -0.5596671946257523 -0.08468391060264124 0.021742790993730297
Ni 6.663807278773062 6.875079908156634 10.365545735935488 -0.036333287213395495 -0.3817689673519554 0.2018611658472975
Ni 6.000701685230478 4.422861379340981 12.067567212711475 0.1512711116045717 0.26583484048578093 -0.23499754338995013
Ni 0.1297508492929727 5.618596488917863 8.85099528852391 -0.15582093575878325 -0.2408573446048368 -0.3313858869137132
Ni 3.8368379806170076 4.164453558908226 13.268318561493393 0.8031738039279781 2.094654605571167 -0.2521943668842108
Ni 7.8408684582475185 5.302616134106673 6.963607894245384 -0.12026257903819934 2.3503816681989846 1.905183071637474
Ni 2.580122414062194 4.636390480636483 8.503572901227983 -1.1630061191078422 -0.8941566601654536 0.5746952926034683
Ni 2.120870021682477 7.126746170531527 9.25343380395402 0.06365794317027747 -0.01013117489673094 0.7737521562327513
Ni 0.42713620408919234 1.5285136441768754 1.4737092343949263 0.029034953779769352 -0.5945616925100922 -0.30020251933237335
Ni 9.207993288311943 7.689331976227893 10.131878319267969 -0.5293752285104302 0.5689157098072137 0.535862893117303
Ni 2.314610885758552 7.858168076238974 11.515887687922765 0.6944174257571654 0.575428571225067 -0.5369383855696688
Ni 2.5481882292674465 8.046541694368155 4.788134966651281 -1.1856102296606033 -0.5379061487995768 0.3625006060406467
Ni 4.356550819986723 2.999371180941541 6.645079490493315 0.14076918363198337 0.35289882128482447 0.11340056181104341
Ni 5.241384958027415 0.6842179990527151 3.7238230956321408 1.0479376826760727 2.289281458453554 -0.9623808825501747
Ni 1.3948246478145652 5.396106501223137 5.809039003927611 -1.6213988457621238 0.9394260735262143 0.25304103115522225
Ni 3.9331698308818273 4.526454797651597 4.316220331065365 -0.09938779247171915 -0.13331092758172525 -0.9130105596471632
Ni 1.2093110846190218 4.223651124498955 3.8444551983509805 0.26827790270963475 0.4447203713735115 -1.664670254856249
Ni 0.6967372395122321 7.376453109559026 7.020404127998973 0.6308065337747394 -0.8176457722919079 1.266036136317839
Ni 8.472485589842156 3.949995868348557 5.307088220002907 2.308602270269353 -2.1992085156248575 -0.06565106234090629
Ni 0.19879146108388596 2.8110161345976428 12.861612249805168 0.17416807080740326 -0.7770783923925069 0.2786206793965395
Ni 3.349226472109591 1.7607445332527263 9.671121612280299 1.1488557957493892 1.2639566280809909 1.0416310237317545
P 5.814770256866058 5.023212910411072 0.760236030574589 0.03539072079446808 0.1609096631356003 -1.5958287106025033
P 0.49816492549468994 3.7439511965222527 7.439980686888572 0.11093847342379602 1.593104883913437 -0.5041861308393123
P 1.7373905132588934 6.425884137507859 3.3581205000817946 -0.23975305579706455 0.20035578494636463 -0.0011084025728303492
P 4.286154467870125 7.690446283344895 0.7088544008203643 0.5263202437341903 -1.634171829157076 -1.7561881576615883
P 7.6655322333872595 7.493204637742906 8.370083551557467 0.8118849585487309 0.28405573436918174 -0.45845211913730727
P 1.7287174895315613 0.2895666331919225 9.728393283737143 -0.3843498407052542 -1.8452815101858349 0.49851067772108987
P 8.044517369772269 6.16899920346834 4.973460026226199 0.7128964583979593 -0.31711472170667965 -0.5285640454630445
P 2.897634941159262 7.397912807453955 7.359536070344407 0.2783129183481336 -0.5057943558666966 -2.6580478428982546
Ni 7.01541760365039 6.556044494666331 12.880449611618085 -1.3941945731643473 0.3524056836984899 -0.586325420643229
Ni 4.013966382757111 0.5321392209028156 0.7845325686715526 0.5306911191083763 0.26829487199049923 -0.5187889683541518
Ni 7.554677247030847 1.0760028098550203 2.7550677028422386 0.17833454348026703 -1.2042412144982293 -1.5839425006878785
Ni 7.0994642179502625 3.1010517053679703 6.9863184018791475 -0.6420975333075264 -1.6789817863829148 0.911018983138431
Ni 3.7397446871555697 2.080179240126622 12.44256591538541 0.23827390014837677 -0.5511630138094831 -0.6812572342261235
Ni 7.008768904518945 7.648492620389771 5.95948903650816 0.11944265424006525 1.2664076607246448 1.0988552954615463
Ni 9.305021580524889 1.73737194147361 6.494751103106373 -1.6683312486476043 -0.482833119084833 0.07646512223727477
Ni 7.708145194719943 7.806259936371966 3.3635564616342357 -0.706239358092758 -0.6087981478244482 0.6600821428104051
Ni 3.457685698164448 5.139676575923061 6.430588370720137 0.49977103249075217 1.0667057073121953 1.2734596824754199
Ni 8.229000198884586 4.894584725538479 3.2850832400979013 -1.2738720874224898 1.9625454116070262 -1.296336072852961
Ni 0.07973145998928292 9.315793215989242 8.127296459726553 0.0712756076165353 -0.4818740976056733 1.6666088666398589
Ni 0.804816672558045 3.63000400791616 10.095454405380968 -1.0393157453350164 2.0305958274180447 1.5580046977761943
Ni 8.200966088999344 4.6326761235798095 13.05040280451396 0.4362380449341132 0.9917099705315954 -0.19777388315180133
Ni 5.477692353972965 7.39082767136835 7.875308905466256 0.8348335969251042 -0.3605961899290822 0.4637426781122852
Ni 1.3289876689850324 2.103802551007064 8.667383476141385 -0.015764461923108333 -0.528157039832613 -1.9608220011580166
Ni 7.2724789696501 0.5850576658892388 7.32352073573364 -1.5161270837058018 -0.554234196535639 0.5038038077992292
Ni 5.464209237857241 2.048542203896408 8.60448455374368 0.22777891415432383 -0.2441506706441279 0.27065025959655326
Ni 6.298444546893402 8.3126103762303 1.590332617260352 -1.3623236925976796 1.2358855808763878 -0.7359865074482034
Ni 2.523274179309811 5.206952868112054 11.10630089233709 -0.030610782907321474 -0.4215683587370804 0.19163948811928933
Ni 4.956911636949456 3.6381198780849915 2.061214661584513 -0.7278973026821658 -0.46311815715440885 0.7500530128435986
Ni 0.4710993342119764 6.606457605818027 12.337808046137527 -0.509907863814438 -0.7428963471941593 0.09076919756477271
Ni 2.1402496796256694 0.5775704506522498 6.716241000163589 0.07725547934905405 -1.0267034558876447 0.925105028917852
Ni 7.39893425564454 6.214435076164095 1.5472906476876227 0.7086597946087925 -0.22532196797339904 0.1410185806386281
Ni 0.5192671165229146 6.422940509540446 1.2191132728915823 0.051445974485117854 0.31007735524392405 0.7321776752250745
P 1.6165067628494636 4.712005504417708 13.212609705768143 -0.4525606933535367 0.7260306817870721 -0.016316220661520286
P 5.593654581282302 1.4149471771690922 5.925186020500518 0.440864487962531 -0.20852366546913761 0.03201949032939002
P 4.484231843809865 8.106909282431737 10.460898853115873 0.12283625330264653 -0.5730973519887291 -0.46919598791737255
P 5.7457760745383535 1.6713771024691688 1.4384683432304752 0.5806553668416451 -0.4178559428824997 0.8540171118320905
P 8.47156628647063 5.11931261335985 10.829958298856187 0.028198573921403052 0.6242301661088023 0.4622090150765782
P 7.675681714044619 2.037510563438089 9.01907365969543 -0.32744078622303613 -0.3560895603079803 0.2514117230819154
P 8.668408638689026 2.8521990684635066 3.1969471186786307 0.4013399475053475 -0.526505620272119 0.5882879436862384
P 7.812082191058301 8.32663207411924 12.173780181336308 -0.2658577233039163 0.6178085788531746 -1.8640739603019898
