# total energy = -340869.02688494726 ev
CRYSTAL
PRIMVEC
9.20937546720015 0.00000000000000 0.00000000000000

0.00000000000000 9.20937546720015 0.00000000000000

0.00000000000000 0.00000000000000 13.47885189418574

PRIMCOORD
 96 1
Ni 1.0352719136573412 1.9225491677721525 12.490406676631883 0.4489529213976204 -0.9583789604796333 -0.35187500800600047
Ni 8.067477145107205 7.554275502439688 9.1813621273885 1.6973219794529995 1.0302256101082903 0.43047106054334894
Ni 8.520228448929846 5.384205957285794 12.170298003885224 0.07284526609650034 0.11788662260685503 1.8312101196944335
Ni 4.594888827225362 3.4777547773717834 9.982086910515225 -0.8199142566111106 -0.11881556217902763 1.1133923127354566
Ni 3.054372171077526 3.242998594024016 12.064799085288124 1.7487905796459364 1.492049731041624 2.394659921291069
Ni 2.93455819966195 2.948510403097353 0.916705812582027 -0.18609953213766658 -1.689589386695432 1.244014380631109
Ni 8.261297655669251 5.588663296209484 1.235153114041723 -0.7710666389807882 -0.5935211670607197 -0.379958653616094
Ni 4.281263554622945 0.5219358141118322 1.4067200903586807 -0.41166395513917486 0.49148822365666966 -0.112028106943549
Ni 0.7170078787642223 7.377372614129018 4.811113905785857 0.9203371752155634 -0.6178227199205618 -0.14474745155344104
Ni 6.486015606798442 6.641000182121481 7.943060327964226 -1.1040622935837823 -0.8073356486151516 1.1101532369728688
Ni 3.4836303587525013 1.3739466868170502 3.6310411439070407 2.3471245947142676 0.6902995469340498 0.1351729204911285
Ni 2.982271972598468 5.936961866458301 8.487969849462168 0.7334897091682786 -0.3580240583265318 0.3579626089609771
Ni 5.098632441557461 1.501763605285673 8.633001853001286 -1.1102424542525655 -0.5234426650760792 0.3569105135473789
Ni 2.397651625217054 9.06576420794172 8.767655811622017 -0.9227462988776882 -0.4278649903790696 1.1164017889857418
Ni 7.519878486049435 4.623428680985307 6.307024032191304 -0.1939470532065434 -0.25328194352143474 -0.1437642617045653
Ni 2.3988304252432795 2.043652451716413 10.428816203891389 -0.5867056868007832 -2.533728834402494 -2.1633056310806613
Ni 2.355923946163712 4.3906985601826145 10.135449714864682 -0.12310724757584605 0.2967991500777792 -0.3019331288702348
Ni 5.52802876986051 5.046700774777106 1.2727835420664106 -0.1656615759982889 -1.3125263094595783 0.762192733529926
Ni 2.685177528488822 8.190007882208223 2.4614946978874106 0.24813896586791456 -0.3660330446739374 0.6589757971201038
Ni 8.244702361550045 7.75082198806238 11.540983637696973 -0.04025370531372422 0.36595334047593747 1.1650923122129098
Ni 1.5798867351487274 3.5389694943586654 3.3450734669199393 -1.8960769955711474 -1.0292311074055047 -1.0821264127426395
Ni 0.7154441268544326 6.4120827426536104 7.755084086907201 -0.342478654392765 0.3485379732129675 -0.6462647773113387
Ni 5.247658551122939 2.6029562266595936 0.3582032532816716 1.128946972640604 1.2655815652789237 0.28566627338941125
Ni 5.864659061724734 4.059253146558741 8.215588763714836 0.9702124627794516 -0.03407148776241229 -0.7775373343067964
P 8.817820199300556 9.147792112891647 5.193940265552834 0.05421608103108727 0.5969772439301203 1.1966096660949004
P 0.22646866660088993 6.884440806287456 2.4704305546487118 0.6831523943663074 1.1245670984053535 -0.03330092814497491
P 3.826071766371009 0.3212184024588465 10.260722082964197 0.8590790997360302 0.028217857195112692 0.3194893925864434
P 6.762545516075575 6.495832800766851 12.99731923697198 0.2080179294773127 1.5547126572884837 0.36764564057669585
P 1.0754616270514668 7.443661696853793 9.588060108624063 1.044203155334305 1.2667048802500895 1.2836939586089182
P 0.18941014077642576 3.6138509241495993 5.0197532219900864 -0.4194189164942454 0.15033985803955396 -0.6714263641786308
P 6.717962930708718 3.307924689218467 10.506508334994855 0.0924967217788407 -0.9062087062339812 0.6173969452370528
P 8.630685695137256 0.5326251359121442 12.277158068137606 -0.8956381298069866 0.049011911122328486 0.7800693567000307
Ni 0.6941723120061852 7.007496477775152 0.19322374304876933 0.10772433736187255 -0.361551611863816 0.12392665815334784
Ni 3.6648340252838527 4.10284111940347 3.1140866808435317 1.5179541096122116 1.1103324428632102 0.11349903506212065
Ni 4.82278402604549 8.492093807678916 3.633710020841417 1.1464875526275289 0.49760693495989783 -1.5405733896736244
Ni 5.66867434798954 8.41745182164331 9.998437235253979 0.6743854468069547 -0.35526603596542045 0.1875216092961738
Ni 4.435216679923037 8.163098087859543 7.913675974497994 -0.31736643270616954 0.15624413933913092 -0.3074535444678318
Ni 7.389639501901927 8.179518403849857 3.9418897898851855 -0.3432867521163572 0.5962046274301539 0.022344172023155067
Ni 5.487553565835033 7.850937105914703 5.758502593738005 1.1786821350822023 0.13590954154683688 0.6738522000113041
Ni 6.443422246475841 0.5768715790840224 0.14499700791333905 1.6743602284505037 1.7916027897154563 2.2216658161871092
Ni 1.5522954470348869 1.305751263424864 4.694656751632461 -2.4208509778641405 -1.0071584438761816 -1.1805194454012573
Ni 2.071510811711195 5.884450009040036 12.054245141303323 -0.532469808275354 -1.3413514612213866 -0.4375235965147562
Ni 0.2688400809810532 8.996233425144826 7.414459689016617 -0.5374767745716421 0.03211205004319631 0.2602131234236293
Ni 8.030786994290935 8.33127048847598 0.9665727374414476 0.4783074633003376 -2.0638982982249163 0.18376728446006416
Ni 6.729336509086754 2.034047073377716 6.99997149729524 -0.4866512072793425 -0.43521911675129565 -0.2820857551270045
Ni 7.851692274681504 2.9392733997668516 12.661183488556262 -0.43188311039952715 -0.94928265460532 -1.1730295647821152
Ni 6.471059581465705 2.0349127546469754 4.506492639321257 -0.5874775319698012 -1.197164767267422 -0.04251704742660419
Ni 3.2496201347963294 7.291301793464147 13.383084308366838 0.21421145988253432 0.06320182946946536 1.6908199166684235
Ni 8.831026443344363 1.8593544351162197 6.082870602516923 -0.32932900438468443 -0.5267627305882475 0.04930578821366347
Ni 5.174434808868884 8.413104996546604 12.626745029977586 -1.7507428182763007 -1.156083938066712 -3.510518179068515
Ni 8.72731045978693 5.411171007885702 3.9886752578010505 0.3040964550701408 0.7388054649542373 0.07623218029086226
Ni 6.747856562623781 6.042906518815317 10.70272052029761 0.4216784019523835 -0.05095566511226063 -0.2528543690657129
Ni 6.559828749065609 6.427793936753147 2.7093567430892525 0.5855489474885206 -0.2301139900454037 1.947694719747439
Ni 2.3032186918661455 0.9677579840303165 6.7928959330008 1.1310570770050714 0.22283828231959685 -0.5004991689060284
Ni 6.985016392900024 4.047723008802223 3.4583497028775665 -0.04939937636873428 -0.5690344947732651 -1.5502867603066461
Ni 0.35714141232054814 9.020113335051096 3.1423788024104646 0.05576388513418138 -0.32565001287120043 -1.2876112913854534
P 5.008969964562684 5.692277976639664 9.643767619238423 -2.1395172704118126 0.43051579773835535 -1.064531839589328
P 4.108412791402427 5.192982490531526 13.226985398644008 -2.7916354211801337 -0.5247577843430768 -1.2438472589256255
P 3.9929180169579417 1.2055532611956965 12.76683159903168 -0.35077251897044104 0.157082061859394 -0.16528208117168305
P 4.66502742878578 0.626383942998055 5.644889294647879 -0.3976941232226441 0.8220883814442939 -0.23043434949929992
P 6.554708336451692 6.048487400189479 4.862873357249882 -0.2944311640662349 0.014602837514839366 0.055416786207407795
P 2.9360409090699364 6.955095132859347 6.630597271890041 -0.20650329260499917 0.45513359628703554 -1.222778096960152
P 8.159313034650335 5.319224605840113 8.467333481503058 -0.6648692797864033 -1.1436158875066884 -1.4949797602042254
P 3.860385898384417 6.4010499111581565 2.368477245505493 2.7653039823744567 0.23362020342644926 -1.29517059178995
Ni 7.453838056455192 1.437141419472983 9.34360737412307 -0.8995438926192959 -0.9860129201468181 -0.7216513217724538
Ni 1.7470829419934457 8.405175724495196 11.960377663589995 -0.6464864064038415 0.5433486599713868 -0.7656529241643846
Ni 6.3883409733754135 0.8868545437929071 11.507420990700284 0.9101705190952066 1.7310268279046122 -2.2308299991848806
Ni 8.81294843981717 1.299507307035951 0.9914408133072032 -1.2276133135652665 -0.42927575468366713 -1.9996777976829498
Ni 8.818078061806292 2.088456062088187 2.988719456179409 -0.7488294248491426 1.6184883569835478 2.333681324725168
Ni 7.941621823557223 7.21748865119698 6.213291932293487 0.35782865448627404 0.3026491811006529 0.08534931210078205
Ni 2.0263204075808163 5.023916780520215 1.0165059698023433 0.7416552756982066 1.163861782239918 -1.5411678287245134
Ni 0.3878905951921444 3.773081021442091 7.162958098733804 0.007179034246942475 0.511013695284107 2.272239415369603
Ni 2.8828199297608963 8.397274080569403 4.974949611618312 -0.029355827454297826 0.5254920914059402 0.8969267667114231
Ni 6.036938843682551 4.5550122325882025 12.482184546448957 -0.2540255065556786 -1.1035550149300608 -1.357356064179759
Ni 0.4279771635839753 3.4138325040746644 0.7363484876320049 0.7570140175424639 1.342150045863282 0.38093001639042784
Ni 0.24165676818878912 0.3293686995151712 10.195875188396506 0.44508109714704 -0.1122888168041034 -0.04088722513266507
Ni 1.4705898702171316 5.384519076042761 5.850724356102219 0.6496709747794103 0.7188087101173363 -1.1566138424282533
Ni 4.873711870928513 5.779702575459654 6.753093013365279 -1.395609708344319 -0.5815074304292953 -0.552082697410275
Ni 2.373292827800128 3.227057165544357 5.503954542137415 1.4223329832717764 0.04854037080254866 0.8071189046186551
Ni 2.436017882320612 2.9731086442696055 8.152965933259127 1.3226220031326834 0.7599802992596395 0.08642351900156728
Ni 5.430925117700185 7.555030671206487 1.152817615959954 -0.4050503064773992 -0.6168163901432344 0.3338461755287476
Ni 8.835796899700494 3.196389946112084 9.653499166017427 0.31435258558051027 1.4977290408145882 0.5749068943936422
Ni 3.419459432324851 7.265708939769766 10.485737510157755 -0.18938874441189965 0.2731696835842973 0.03906688409447465
Ni 0.2612506348747061 5.5054473818581275 10.090173663544897 0.5116670125973898 0.8052669390115809 0.22068266942917475
Ni 1.4058848000275974 9.118312902860804 0.8855523381389362 0.5685914936985756 0.5193026747657766 -1.6701374486184075
Ni 5.3124741338149315 4.189878924464854 5.027678810291412 -0.7160008083548959 -1.0393810513553132 0.47386048327257746
Ni 4.095620969242838 6.297020808843756 4.479979769043909 -0.029749977568922954 -0.35358993381457815 0.547084215754419
Ni 2.0919832527916586 5.800580229049133 3.0807533472894444 -3.04575811543531 1.1704324934789003 2.397667340658826
P 5.158318402260332 2.806814956194966 2.6323525523135918 1.0200419847070692 -1.2129153452334593 0.2455228684013062
P 3.9452502908974485 3.8299120758314467 6.814489155043698 0.9265715861610493 -0.1569365374204652 0.5629736332911659
P 0.7286991805868259 1.7335451604422623 8.517825722938891 -0.2591324887649408 -1.0885467144466865 -0.9295954605890377
P 6.426348064845981 9.222636705181761 2.1882506936833805 -0.018696547968238768 0.1170201608415017 1.4860392631814858
P 1.801031461943672 1.4519593041776457 2.3262338414406774 -0.856461459607525 0.5758276064356986 -0.2907370030440993
P 6.6854998831114925 8.8678455254135 8.006963261573414 -0.3185154587089482 0.7798032475228376 -0.36262993252965936
P 7.550066817971054 3.465285283344367 1.2740332542817137 -0.6207586626204341 -0.41050258784122207 0.8077796781311056
P 0.8161127281565698 3.950352284760956 11.742559363119055 0.814750453021984 -0.47209336406982566 -0.4757566718540258
