# total energy = -340873.25248931826 ev
CRYSTAL
PRIMVEC
9.19869867078265 0.00000000000000 0.00000000000000
0.00000000000000 9.19869867078265 0.00000000000000
0.00000000000000 0.00000000000000 13.46322532340156
PRIMCOORD
 96 1
Ni 4.195075661266931 4.232808722618659 0.14980264522797718 -0.6012745857538936 1.0420624548422184 -0.21763848328621227
Ni 8.019296592778554 1.7828181586302112 8.629980710361359 0.619106985949624 -1.7824190663336594 1.6103078780552849
Ni 0.5063800750018077 6.333276338732507 1.82939668848409 -2.713246085336953 0.4623092880998683 1.9220780476205994
Ni 7.201504697763274 8.56344560405634 8.096231747636539 -0.3494412017535272 0.38290796605240507 -0.6707139114926385
Ni 0.35414713362338524 8.498907535201214 5.247386535450919 0.49844100082541903 -0.0041199357056445176 0.026646913163567012
Ni 0.6280337828718074 2.086283222987478 10.943057845495803 0.5809140198196705 0.78822155349352 -1.402939666346829
Ni 7.758430701293022 2.688991149078794 6.519499391032618 1.6153099592555666 0.2713326303755585 -0.6867923051117397
Ni 0.08054104467999164 8.48885335771281 8.841327248074402 1.8805562742277289 1.4329783788007644 1.1691849942250443
Ni 8.779771397281252 4.918120961469243 0.09379636925528179 -0.8619466510918123 -1.0368122621868725 0.19036730627508505
Ni 1.763068552895896 9.001441634349497 7.0695263706682185 -0.7378613558734131 -0.6835560575626293 1.5178720914213666
Ni 1.0503165963436534 2.1312924548729013 6.556011785090008 -0.1756744801496007 0.17687389977434054 0.7138367108240415
Ni 3.166854338781603 8.126829378542013 12.07824991326468 -0.4911771201741541 -0.31516171174536695 -0.906399996309181
Ni 5.482212751150379 2.3179248492573996 1.9382200516506791 0.14754455468260397 -0.32378544885863597 1.0875465553169466
Ni 7.844576512984619 5.957049569038289 11.57776804375744 -0.5133307734530578 -0.7195741275284512 -0.19215705118565615
Ni 6.145245742172127 6.4862414965135615 7.1160819037757825 2.378393322920562 0.8399662901659792 -0.8601134545378154
Ni 5.957159953420595 1.4053587633335727 7.052468304122473 -0.0013894241483588974 -1.6374307024140056 0.606358170924388
Ni 8.806686789166957 9.010989883418999 0.6725002915442243 -0.001144912237720609 -0.8817639429280556 1.4300298376954017
Ni 3.6628757593738106 6.978500649408826 9.814206440620575 -0.45055394733615306 0.4120051405286775 0.9968514055232187
Ni 4.850712898674152 6.780489464948246 0.2660116434407152 -2.121621621078314 -0.7008778366705284 -0.4654694309954048
Ni 3.1514833135454405 1.227290357276344 10.290683386455587 0.08630499114583201 -0.15993264393431167 0.3908259353479011
Ni 0.9085076201343626 1.7271752312492743 1.8503724807318582 -0.4130559503906951 -0.017448277383434466 -0.798544789796399
Ni 5.642454079465129 7.8049577184351575 11.612475653164122 -1.3231105127333278 -0.9675863380105142 -1.12625554185137
Ni 7.650980703816294 3.288001198362846 10.68309618607533 0.36299991427456835 -0.06986304353972485 0.8878649136194708
Ni 4.629097853797059 5.502045145171424 8.262314249515 -0.678369114045051 -1.587078475213699 3.249222878324301
P 6.531821047707567 4.519541354357985 12.692832439282602 0.28822554947615525 -0.18113884569828156 -0.02496438325482152
P 0.2849278470886171 4.694988131335438 3.5321852500723288 -1.8603234921206218 -0.13673306588939677 -0.04008375539476323
P 8.231547362556656 5.098093498121257 6.789706560870828 -2.9901109583846504 -1.4012640784166188 1.0189150701914775
P 5.697453097949279 6.149247176030733 5.016061344410277 1.0267613057087734 1.3658653872023507 -0.7463426538715469
P 6.468396021374031 2.613543423772389 4.015877655030767 0.4563641262600269 0.24155617044407432 -0.1553303692756099
P 1.3379323031414305 1.875844596818906 12.936422255067335 1.3449276086084192 -1.1830758932745238 1.338454599289566
P 7.923657724208609 0.9411096474485494 11.117568194963356 -1.149797590837368 2.30018936361531 -0.7637762759669621
P 4.448095062910187 9.126286370738004 5.897942411792637 0.8383961174653819 1.1437462424369658 0.020524602315913038
Ni 4.586323905653341 4.774299310022566 3.894143918483595 -0.7322730631523582 -2.340144820962325 -0.00213632961671245
Ni 4.670869143801496 2.1272634249187186 5.176246560664021 0.27476273910303 -0.4175278701191196 -0.8992628710437675
Ni 6.6218487101769385 0.020690632593476845 12.98984461662421 1.2226500560227203 0.5447123730881329 -0.009900546943163594
Ni 8.336302141365405 2.197044751933397 12.916160281825148 1.1468166538321733 0.8366865909734429 -0.26360235161083634
Ni 7.227923359928599 4.9265377706201035 3.426754366921956 -0.775033079827704 -0.4796665484313932 0.8539633757760197
Ni 3.620506553965215 0.9882437786933702 7.886582369801457 -0.5485217195318941 1.1927851501424878 -0.5064949814781471
Ni 4.57245226827684 3.3018728357393465 7.34825521482048 -0.48241660037270456 -0.2191261235753323 0.697655730188805
Ni 5.938100250075696 1.2573884988518813 10.032350816543985 0.18178753502587403 -0.9022216965617752 0.8115507151377637
Ni 5.852313187626593 2.2254687303772878 12.76565485602982 2.278975705652172 1.8483496075881973 -0.783636762336315
Ni 2.4283276289608224 4.503002094409081 7.526629017668757 0.2038267742141006 -2.243931055343213 1.1893540129737517
Ni 2.1834030820200345 9.109977078252237 0.5011791308554725 -0.2606486682991511 0.41145672422437524 0.19351485076513125
Ni 7.753923339015512 8.192333310742319 10.534973223198115 -1.6067451004046909 -1.2073573915297076 -0.7947506128612893
Ni 7.103786923326558 6.908176599181141 0.20118105597247796 1.019931941491766 0.010246360318356547 1.297751979363881
Ni 8.13016850610678 0.0410280351635733 3.2236342253002954 -1.2983528461726734 -0.4249503878354359 -0.8816662410079268
Ni 7.143396519177494 8.290538616200887 5.617531125680055 -0.8558384813115455 0.2416369030833387 -0.1514084085133844
Ni 6.7909115903776724 3.7675753459914043 8.554169636463195 -1.2689265704917565 0.3391393056068869 -1.4946719991558195
Ni 8.651017214019395 2.488082374582672 4.233726752731507 0.012446196183152758 0.31645394819422923 0.12994381088170523
Ni 3.7651376908821383 7.536686874636572 7.232982644117641 -0.8238117918933039 0.7397583157858098 0.23494663554735667
Ni 7.994248536693534 3.186493560133612 2.023361365463289 0.913774177286065 0.3675314835963348 -0.3492036318214244
Ni 1.2154424335754601 4.131797814109803 1.6532167752341524 0.9800523316880089 -1.2446525284357401 0.1061600781985462
Ni 5.112894204048835 8.603220776480736 8.631583123644505 -0.8663681771982757 1.1455092478746594 0.7969435067475501
Ni 1.8194841709529777 3.2436726701683125 3.9571651219518604 1.1980674815873495 -1.1631634706213128 -0.5125545574086657
Ni 1.955017795028151 5.861511886152123 4.204565038665868 -0.30080004370705615 -0.7863009394320393 -0.2953855575597042
Ni 0.6543328619563006 6.917770841743271 10.743250155213188 1.052093356715659 -0.24503513013161027 0.435673687790211
P 7.715702746641931 7.2381799087845655 2.4299778754763026 -0.803595979067061 0.09897513041433277 -0.1803988822084635
P 0.14349049829975782 6.977341613394609 12.992833273775153 -0.6060606942886272 0.8907255229967177 -0.40216372895822355
P 4.500435657520457 0.6421326281018889 12.015268264200072 0.9069643534530832 -1.136288757717656 -1.0007939351107344
P 1.8900657847393767 6.833593551536136 6.328011923566344 -1.3076597253958964 -0.5156599358068668 0.3284170340933763
P 3.2960316621756345 5.895721845968573 12.091874105650842 1.1211578156134887 -0.6562684254912698 -0.5016808479189554
P 0.22755832399443804 4.762589366799565 10.244073581026722 0.8720837395258143 -0.33147304731088073 0.9502866703898023
P 4.9009837861161785 3.0042857397398937 9.501765286242097 -0.584444144460116 1.236821976647728 -0.4196685706112062
P 3.2098030621973073 3.655112057818262 5.567003594549166 -0.9152304501166173 -0.7840481388421207 -0.032786964623033855
Ni 6.206656253528572 4.173762276783276 5.888195470834985 -0.0782335269916072 0.7859165595094271 -0.6281732099169505
Ni 3.162089412945378 0.8560511219226695 2.730274908061377 0.08924556183139469 0.5718578231546733 0.06302596601323339
Ni 2.5601817736257835 0.9555700015306842 5.220715828945995 0.09435794335729555 -0.08927332974553658 -1.2633441913079728
Ni 4.933666761977391 9.003400957135437 1.2130084579456044 0.2090448280799303 0.263477653107514 -0.1372035777679121
Ni 3.1330859164943785 7.656067584100913 4.703323991939274 1.6412863287146702 2.0581606244101907 -0.2931792939370048
Ni 2.5473679865797187 4.755497170236381 10.404110698234206 -0.6121794055918554 0.030104275584548153 -0.5810860266211605
Ni 5.825609365806977 4.889476214260739 10.531661691728923 -0.7439530705934477 0.769432702921791 0.2186540690349202
Ni 4.05776668837633 3.2911655506556285 11.49916976420604 -0.08571646563221366 -0.5155642907692669 -0.715549065529458
Ni 1.806044872407177 4.021450226597533 12.763528116930718 0.08793969853577759 -1.1368891103058163 -0.8618988285730124
Ni 8.46462398579656 6.596037162114299 4.424662298286249 0.7990962914244948 0.05931843525465914 0.07217652216424988
Ni 1.5658392578099862 6.181470216965668 8.670828451033831 -0.5421520685601243 1.55393721257504 -0.5117693425032089
Ni 7.953157950379987 5.874923588602349 9.129076336000798 -0.5532677188573116 0.3656257819331896 -0.4336785117370531
Ni 8.769974783351563 7.025781959830056 7.280871988511407 1.323029008763115 -0.04018120020457596 -2.7535347576536706
Ni 5.7472732491635545 0.3603709730457595 3.480661499891125 -0.5807774942418061 0.17840499170688628 0.8893435550475265
Ni 5.4509923683547274 6.533495210839213 2.6283174534742444 0.6805028725586022 1.8007764857949244 0.313218471976067
Ni 0.1586968668323131 3.752590666093314 8.300320512212936 0.1589833926471649 0.6332704219341998 0.27111511504811375
Ni 6.111017384958626 4.537699585247384 1.4042282432847848 0.34583034447381733 0.8748893272954094 -0.9827473620216689
Ni 1.4957635724424911 8.099877191862207 2.778096182086055 0.066732211220227 0.991097533758577 0.6489083855817728
Ni 3.8411649341956515 5.5750368179715135 6.163747084516528 0.8729018645517354 0.18732080613927737 -2.57585661681048
Ni 3.222653644037474 5.535739977870445 2.109337001232164 0.40623584214506814 0.11960180552574885 0.2619992687897746
Ni 3.9279178599899347 1.7991826433071307 0.17665088661444447 -3.3397444786546417 0.0488635584699223 1.3736216341090022
Ni 1.9697633087645772 6.104835859549469 0.28654313854970037 1.345875060123353 1.3719190495955986 -1.8485303561404358
Ni 0.7839333254825066 4.592284662297884 5.8964080688785785 0.2747737948466235 -0.45143506438952574 -1.1833407169001362
Ni 0.29292151610730355 8.982427924497227 11.927892586515611 2.193878361661196 0.2991177709086268 0.453001123325065
P 3.534517120148551 7.767068279208495 2.1882719531495978 -0.1117475995886527 -0.27842707532849464 0.1375301078693954
P 1.6848612180318316 2.2116430864934147 8.89368532021187 0.14144641220466608 0.3957436843644926 -1.4867046646796265
P 0.7629124596119632 0.7828929526792691 3.7490776831264134 2.796267263525191 1.1971591108404673 1.0704227511524662
P 8.588889204177958 0.5685927128696788 6.862502301392323 0.16360289369704725 -0.42746055585179926 -0.10365016729249893
P 7.338795273256824 1.4583616642376822 1.0962889319646996 -1.1871024979354137 -2.0815396654557636 1.2444231860337536
P 5.998186148844463 6.946075237106329 9.515578971817886 0.32411660694580957 -1.0387526737426949 0.8071016782274745
P 2.008655406130522 8.56717107695918 9.770343366571435 0.7929361853603699 -0.9673595667116888 0.1857850862210413
P 3.3959019320673245 3.1430573056960545 1.966828923934933 -1.0126878583348429 0.27752153279508984 0.6865611629375402
