# total energy = -381168.2533170051 ev
CRYSTAL
PRIMVEC
9.21463410242155 0.00000000000000 0.00000000000000

0.00000000000000 9.21463410242155 0.00000000000000

0.00000000000000 0.00000000000000 13.48654843838047

PRIMCOORD
 96 1
Ni 0.4034738146061522 6.465061049330457 11.660860608362801 -0.26385997614759715 0.7716024568796 -0.06646738759461455
Ni 5.61073545708005 2.3198210103264785 11.330804391490055 0.08076992026021573 -0.06030573886859291 0.33251151587772415
Ni 3.195202041650728 7.87873336484579 10.414177736166495 0.030723911446418055 -1.3386338051799074 0.9964495420991097
Ni 9.119732650687283 6.290637239164701 3.4738516574271276 0.025416897411207843 -0.23255422405578013 0.8912698255359619
Ni 7.808278271997389 6.077217097200039 -0.0062668726976454715 -0.013199272299093397 0.4314735336659343 -0.06615371300893769
Ni 3.3801858225729937 2.5596042206457414 9.005211334320752 0.9272755542066095 -0.3570753212600173 -0.5663417784324505
Ni 3.4274476812205803 0.1064290246402076 13.070690421430083 0.5706270360713657 1.466786585599461 0.513503037364864
Ni 8.968474430819835 7.4873141346581935 1.6493236838736713 2.8680318949630026 -0.6263209871995601 -3.966799001586117
Ni 1.6924795015360046 6.134937565628286 5.249409379158253 -0.013098485055170991 3.066084485697487 1.3082217685469533
Ni 8.113172087347621 3.741371838055437 4.265565653432922 -1.0533506261615277 -0.8116134500548992 0.19907460424109588
Ni 9.185285558158316 2.0200966047444844 11.474841102560053 -1.4018582603571923 0.16230705770375917 -0.4151534563496721
Ni 0.9705682022795176 9.113236333598854 5.260940572356068 0.8416508769572537 -0.3651100186390357 -1.101183686484407
Ni 6.796115211083595 5.404567232205591 2.6705797457844316 0.18888609374386822 -1.6377803724439406 -0.5053143309064846
Ni 3.755497872234955 5.127731977896866 9.621978128940048 1.1161608766195295 -0.4332033718728475 0.03142916504355878
Ni 5.144401251106748 8.849255493954468 11.427246595619003 1.1200625256667807 0.30062186625797904 1.2789011652059654
Ni 7.085500797129112 2.059074507275054 7.722033903502149 1.7633502226276663 0.3665269535912204 -0.2410902865512493
Ni 5.305583631973113 7.800298398807916 9.38918698302745 0.4429907902769145 -0.23486050359145358 1.4180135299608159
Ni 6.611923888699776 5.815604418536823 5.066330263118509 -0.11986534359978067 -0.30172872616891266 -0.25234811885325575
Ni 3.555973398595612 -0.0015535873207219917 5.3483607281711425 -0.4641836223044457 -0.9708886629108698 0.9265206783184559
Ni 6.6923952888887746 4.518801308174023 11.025752084432133 0.5795729324107438 0.924419572815053 0.7334213178241885
Ni 1.665204184398774 9.133047797060017 11.89401665378845 -1.867173939383552 -0.7454149998509549 -1.8502164855936072
Ni 9.029862323646942 8.38057155626833 10.141601485770213 0.33485199108544267 1.1553540018792232 1.9321099779353046
Ni 2.0978773317564317 8.270060448691707 7.007947671581114 0.8781057773501779 -1.3199904790471073 1.1044279044533172
Ni 5.3932885199839795 6.498242946969365 0.9302127119408344 0.28774166786120126 -0.5613738929042139 -0.7315302714490628
P 2.79574765046865 1.3327770421546066 1.3113825045433831 0.9853963696087416 1.9970753270630963 -0.559582605331746
Ni 2.1289582928050397 1.7068727601063947 6.9160501250238156 0.8292424759905719 0.5810865408417928 -0.4363146638083195
P 4.229286717250155 4.474773786119399 2.2147336364211294 0.2694649810392004 0.7803426649660754 -0.17624603638235453
Ni 7.253308499962257 7.129362455768713 11.181346711139032 -0.7815672814017959 0.264313518745248 0.6073516451859089
P 4.201274229379485 8.999970050406004 7.9055580863722055 -1.0357138869163711 -0.4069467521691636 -0.5494843405554796
P 2.6230285476239703 7.5823077982959335 3.8927304974353145 0.49390737462112355 0.3221378859528839 0.678097091330587
P 1.4309958277511412 7.551189978710655 0.011690606368920468 -1.3704494070286075 0.49456223459630316 0.040526242248820524
Ni 4.601548723002514 2.4145750934758516 0.022341802003692412 -1.0909044160455859 -0.06084129965708877 -1.2266432363425133
Ni 5.2676561977376934 0.016953083942255753 0.9004457577245811 0.5909750036000984 -0.15377896562809001 0.6353543010464219
Ni 9.005323752857601 0.42300883904227693 13.059280861403288 -1.0983079075985083 -2.241525274115198 -0.36619219595962094
Ni 2.649124391587699 5.377844793118439 11.465360165464615 -0.41976318720754163 2.054484203999868 0.996796126805251
Ni 2.9469874410677606 8.528107063931913 1.9086704839949793 0.936594003394058 -1.2667231350825345 0.6116284181843917
Ni 0.14938027742401155 3.101765651187377 7.300794274220125 -0.37305704140025425 -0.9149519996442501 -0.18870123142657177
Ni 4.579240093681826 6.679236791296894 3.1545304893600834 0.33734621826220607 0.07641164329152003 -0.31782948838551717
Ni 7.624004017906058 0.45629486204728315 1.5332183718936645 0.2622898034469999 0.05225664331187129 0.6788972186343791
Ni 6.267923165940622 0.18646088677939335 6.743921680229304 -4.333032078086002 -0.09611066438234414 -1.0625595463543054
Ni 9.086200596949991 4.522063288669489 2.077939627807166 -0.4578826197870824 -0.7243962315074427 -1.0619982745341967
Ni 0.3571960788877063 2.6052903768506024 0.46765558451298983 -0.28546778422536 -0.16255542626913938 1.1591011276264813
Ni 1.2360602419274538 4.388312873721212 4.078412747627513 -0.5269568488769247 -2.7408437924495637 -0.4686254601258833
Ni 9.022730196800921 2.031845263308663 2.88903476385848 0.38704769925239146 -0.07446814641190401 0.7097625407546679
Ni 8.205401360734967 7.526402612798778 6.284151979637274 0.8866603517884084 -0.20525990711620135 0.007778101283522089
Ni 5.463292095758148 3.5090064082414005 9.190031094754827 0.9191909774262621 1.104901501655626 -0.6099831692714849
Ni 7.913490964927423 3.2683017345053402 9.544187265830516 0.029862077666755023 -1.4425336265893671 -0.9642788709038361
Ni 1.5045838962166562 6.1855904096496905 9.500936537436251 1.9270819285930938 1.59607065140998 -0.8128732906039292
Ni 4.5258505033125305 6.708032523071842 5.55869673207978 -0.8736199736646826 1.4883157179204884 0.3419181539036047
Ni 8.732837805876166 8.513400507799812 3.573988929857436 -1.2181614241237473 1.968129076342391 0.8286197548049085
Ni 3.825870033375844 6.572042952020744 7.9093480654054975 -0.985946585685257 0.43347847991110505 -0.7392376673956494
Ni 3.536419944891151 4.829859713782637 0.06504702405521122 1.0122034624992569 -1.489496882712783 1.064982039752869
Ni 2.3125875225046117 6.02411316048995 2.1190608542452085 0.015382395993341248 0.5749408329553711 0.5354255484695682
Ni 3.7355297599929354 2.203384892979841 4.800159104932394 0.6504536185817056 1.165264833235032 0.24148726487935185
Ni 4.566735835115873 1.8794905019752266 7.066789560987605 -0.1379114024682141 -0.09217456255273157 0.07357751627683456
Ni 7.076138728814441 2.876366484804336 1.9352795830818648 0.5966622837928627 2.7128596485318113 -1.6945346465158493
P 6.596618381346755 8.001315643182473 4.796639114680223 -0.9183720810693925 0.8322666075288763 -0.8566818031484472
Ni 5.47475510066312 3.6045437352950525 3.831124217778428 0.4611093542544962 1.901544189333306 -0.007730792985354428
P 8.29627608289962 3.791637667441786 12.676694779529118 -0.42554739798948643 0.7414508729968844 -0.2809138463060904
Ni 1.080480358635223 5.3073804856358695 0.14137552472228443 -0.6569793355153654 0.7978783598569936 0.9080555296347329
P 7.34417400749274 1.0635715049369734 10.130946604281773 1.7973718309887496 0.48614238596372406 1.3713490360247413
P 0.2472221844830755 7.641917266728617 8.280646220423886 1.123816336282258 0.884408065419122 -2.092607236123835
P 3.265177973522394 3.3035384955637084 11.06714237818788 1.4405842161724802 0.8150281321634028 -0.2592286480231729
Ni 2.0427093169927155 1.786247618829403 3.360632368868533 0.18936534737313193 -1.2050133167775634 0.5635379904350681
Ni 6.937615133367147 7.584012505617011 2.251120383823662 -2.3015821301977777 1.0263856675369096 1.4652814618088443
Ni 4.912708489586976 2.170258283145941 2.205239798837856 -1.8930502929296817 -1.007533310717097 0.5898694292407455
Ni 3.470212798394191 4.98967832879214 4.511304281814953 0.9055654162230274 -2.1226732022712795 -0.3559422360968386
Ni 0.4755912274584571 5.603621759502367 7.236571959922949 -0.03645772860640173 0.3205936813942156 -0.2911977447306017
Ni 7.405792266174045 8.86646843058026 8.480206631136484 0.8700091163849727 -0.6674586377801344 1.3417502393217022
Ni 3.351721817628093 1.2449984370703975 10.878964805062992 0.26968429613885814 -1.2478892902054832 0.6787306111495278
Ni 7.827168272041755 0.6535064625104626 5.502376888045066 3.012286466040425 1.4852044259850163 -1.7091490539949146
Ni 6.222835960956679 2.582198503625636 5.667950963555891 0.9160488322528546 -0.3379290873488696 -0.3781069451193359
Ni 4.8941225724701525 9.178752382533217 3.545303773692504 1.1902670117063243 -0.3808857934160537 -0.7069209575408147
Ni 6.007508389719244 7.280869470758694 7.32101118158468 0.6921512554308079 -2.6988414798758487 -0.812401236063517
Ni 5.269674202620482 4.473105937334994 6.724527639695949 -1.8798134825244333 0.9284279226434978 0.09980533962511198
Ni 6.815134216006313 1.5764211841902545 3.5403536722174636 -0.849927258033433 -2.00000587044633 2.1108109036160547
Ni 2.0113334876507323 4.148151863401061 8.268791593566776 0.07225931168604328 0.6414267324927468 -0.9896695430627988
Ni 0.24576535082111733 0.5538197856909685 7.560950119221381 -1.248928787213591 0.09072626014197924 -0.010018817688582746
Ni 0.8562956810355226 0.3622761067045155 1.562038983180866 0.1932114605920995 0.07511195064348998 0.529708700590449
Ni 2.174745809985749 3.6369792475663534 2.0098057013056807 0.4431715388291529 -0.6032983010521417 -1.3088642872269587
Ni 1.6383158818965986 3.5986095108908707 12.31290839428447 -0.5319532736502516 -1.8627891800522953 0.03677243163334312
Ni 5.1011201144197305 5.990378384800963 11.966465793470803 -0.1161272167135871 0.47114822654773697 -0.40727636759444047
Ni 7.4010190856750295 4.351196327292574 7.236167437482973 1.0932397490469816 1.3019482768334156 0.47205736862556763
Ni 3.470268086199199 7.098087987402577 13.343698838168844 -0.2486745266564105 0.025702546972426705 -0.683859704845977
Ni 0.4125410146274479 4.365690946838812 10.31719647593872 0.9289220886710969 -0.14059717683049336 1.39029266700678
Ni 6.260615961045412 4.30644084913868 0.09783637827856315 -0.5172761312540511 -0.5364025676708568 -0.28840989757281943
Ni 8.502868180945805 6.046246711761446 9.191783718173578 -3.750896270044089 -0.7061110600450098 1.1113248886834666
Ni 1.271859095670069 2.226578127180655 9.600992721085882 -1.3101423826084337 0.09616028667335697 -0.33682531276172956
P 5.861041779619149 5.573508335041397 9.002742733827148 0.7431328886849975 1.1655152586829414 -0.5401772042219406
Ni 2.0204744047453715 0.1066050241528161 9.1440012326955 0.38122595036429185 -0.03327238889988463 -0.18881024620061032
P 0.5964089033519707 1.975986150982348 5.299714831471524 -0.6934432347693541 0.9651671870460604 -0.4377313416501881
Ni 7.142253728969721 1.8978644825061854 13.32823023179105 -0.7246921654813068 0.7012452473122761 -1.3264133518543157
P 3.2819854662447954 3.7183168233671426 6.4623362820069845 -0.45318701408362594 -0.19680303459809978 -0.16914593500246353
P 6.887542811298326 8.384008614812988 13.236292140843414 0.3043273401340243 -0.7956332725765588 -0.5229477277175316
P 8.693196449685502 5.440430588387382 5.3360877569228045 0.7713108937811103 -0.21225202216331834 1.8403254517321403
Ni 5.549448925228792 1.3212403201762917 9.155977492723629 -2.2426596448299567 -3.240439989925348 0.5718853339584989
