# total energy = -340869.04194848915 ev
CRYSTAL
PRIMVEC
9.28833115132822 0.00000000000000 0.00000000000000

0.00000000000000 9.28833115132822 0.00000000000000

0.00000000000000 0.00000000000000 13.59441151886893

PRIMCOORD
 96 1
Ni 8.006420651499184 2.7655727171313806 9.519214851502122 0.47476525447503404 -1.1123016507744392 -0.1634900222682668
Ni 7.091845130696821 2.9807926368237747 4.940644429365084 0.6081162912660752 0.3671411901364516 0.09554887834160318
Ni 0.2375434946347227 0.5765350702703645 11.020459011794324 -0.5261382096303713 0.3334659093711934 -0.400227174057143
Ni 4.341811791479443 5.030532253491066 11.495053719515985 0.43137300353232805 1.714882356934266 0.7669790991749759
Ni 4.386674430645394 6.299141802129745 0.34897931805699745 -0.31177993975732754 0.31686378203813814 -0.26699903599721114
Ni 3.159648740297804 8.60237855091239 0.6145995799113555 -1.798466349604509 -2.604194544523225 -0.06171136096686792
Ni 3.605209982697534 3.0867167645770897 10.627702860475825 -0.46995060669521 -1.4203961712603796 -1.2503516357030464
Ni 7.121484195205837 7.653436205076067 5.972093162609959 -0.013872387106718044 0.3109283903903097 0.4526717650101043
Ni 3.6741201110561663 7.714757766933958 11.744184407185806 1.9359067259735756 0.3376688917089475 -0.14053341347209347
Ni 8.851380130780056 2.687625042621926 2.7880774145299694 0.7184752380373175 -0.03226528779160895 0.8420434844099821
Ni 5.577986487950938 4.846911236167733 4.041794981931638 0.17086626012767991 -0.6170724720180985 0.5872595024217241
Ni 6.678551550504651 2.1720483604638234 7.620157043612777 0.03541411783323578 -0.8364585341230368 -1.1204895859018704
Ni 9.007702743029116 7.548273720472153 1.7654107983309335 -1.1257480060873322 0.526595608882764 0.8815595402267333
Ni 4.678272296892989 2.398042744220918 5.460480740161179 -0.0645262047078437 -0.33037492915069555 0.3206767280263252
Ni 7.844933727163939 6.819334784839708 8.317658693837132 0.338063813154521 -0.05214711431720052 -0.28251332958272635
Ni 6.33154878930366 4.766399982277367 0.4713725856664508 0.2951456736347562 1.2350353170609503 -1.5397449802350578
Ni 9.434157888376184 0.9834299191744545 0.4580679802127636 -1.1926529954399976 0.9843800125290852 1.823665731688272
Ni 1.9849070656572827 3.3699179795190903 12.305103935227226 -0.7031730604626084 1.386645814282812 0.9136438223557877
Ni 6.298175815696359 6.78212573049213 12.212688756211584 -0.9738518593042517 -0.13568251313769536 1.7175591324354809
Ni 1.0747620787849723 2.5721246455145543 10.418552865150916 0.15299272228136876 0.9939260043463077 -1.5104518876978954
Ni 6.741201343708449 3.236286760123532 11.973359115508204 0.029261725078594765 -0.4098659826984877 1.5007030358412476
Ni 1.466608902489734 7.765537073004404 11.217972585929356 -0.626666543464437 1.4701513883066357 -0.05671390775227651
Ni 6.3868608009461525 8.528276245474302 1.2490901208525007 0.13283424505562283 0.45612295678349835 -0.8371609595067001
Ni 3.37207287233203 5.204679173102334 7.315995780732498 0.03740646567291622 -0.13627900907111368 0.36123768016782304
P 4.274062704507093 1.1507963570898336 9.220069287410583 -1.7158475490610126 -1.3248966580994732 -0.5495828138065568
P 9.488123092010587 6.333397167190622 10.505040231264756 -0.77302967624443 -0.4083847701672709 -0.4955153425381918
P 7.124298559526186 4.423744160026619 8.338363312670428 -0.00958790079875123 0.012157204187824223 -0.6325661967783235
P 1.3835433575495466 0.06680353486736161 12.8329337837596 1.7430490491764692 -1.7752369467629232 -1.0039245103199161
P 3.3996220623457387 5.296345712632101 5.081482464853573 0.4263966333636592 -0.23811989106901568 0.7960107105206355
P 6.623768973734302 0.9105202354483567 5.733851185477249 0.6755524705318624 0.7249546751140741 0.5534716073380016
P 6.6003252260624885 3.9804678470750927 2.3485294376780734 -0.17645558128999933 -1.1400106866539335 0.97788720571589
P 2.3698619476930713 3.8076398704786416 8.946142471062206 -0.1918382343936567 1.0551419137339957 -0.30161971139487403
Ni 7.9782027016469765 6.276775500864402 3.7277370022746874 0.4098433569906683 -0.45872028519702934 0.48608582169417575
Ni 5.997503249973581 8.81535069448094 8.08715203883639 -0.30967369204760214 0.25488451212186425 0.01939434536621176
Ni 5.531749175783628 4.411019146432964 6.426037123818649 -0.1316520518220636 0.9463371988237509 -0.5031592322366947
Ni 8.560367429391146 4.346121577105323 11.020485947954484 1.9318639233627697 1.766702941149983 1.5067093899363277
Ni 0.7703138064740043 -0.084454150438181 5.693760890825473 0.9281975518002465 -0.7378803820368066 1.1426496669386774
Ni 8.296402348137073 0.522854089567321 4.347506467270881 -0.5519939943512107 -0.19387737631087257 -0.7239277765114565
Ni 1.2458531374675454 6.056688495680712 4.569353611196174 0.4522249072806728 2.4144155066514417 -1.3365141877337434
Ni 5.814783200766004 6.494549711606617 2.323733308999518 0.2782887499784175 -1.0268065571244123 -0.6501399439960287
Ni 9.111146886381333 4.928722856410736 0.3520045274930948 -0.002612755032498726 0.06267835286582754 -0.7793803010528061
Ni 7.695725976530016 5.12533824892934 6.139032337295187 1.4200377594796962 0.3914306588114355 -0.14071416202433185
Ni 6.994809935796884 0.9302913770070822 12.924764726749663 -0.29540869748815574 -0.5623234013016767 -0.24796130263946978
Ni 2.2058578856323665 7.13127409617497 6.51781326565528 0.14473665292016363 0.59994789652267 0.6179957551633163
Ni 4.317634265651498 2.985306765733641 3.115118623384884 0.5477920404547211 -0.001974607227867567 0.37318071146231213
Ni 4.874191064579825 9.215046157956971 5.2477556661996285 -0.37106675044310283 0.6962552502968525 -0.18343252682846473
Ni 7.891496130919408 2.6877365025950093 0.7959746787770632 -0.5713950245856417 1.0783216942845686 -1.174074718217178
Ni 3.120832804671611 1.9502058607040746 0.0781380852968048 -0.6359024602404081 -0.9086304283015963 -0.29373568066110706
Ni 2.692324938153597 0.762884070434906 11.315090446975995 1.0175032774456152 0.3954752611944544 -0.15000869995238036
Ni 1.1808626848290023 7.3388961610355326 0.05502964637734916 -0.32201190189798096 -0.12421307904551511 0.534831109418679
Ni 2.4128762089720612 6.005017509825601 12.36589791987919 -0.7003679869136454 -2.6852143760107174 1.2236630706682665
Ni 8.891719352705051 3.2025236766104404 7.2592115686122 0.2657520509639875 -0.8709126020358484 -0.4226466794029237
Ni 0.5813650024372993 5.074846881122692 2.6023237963883137 1.2623118933887163 0.7970283531518726 -3.2913917983828673
Ni 5.82216742398276 2.177556340800347 10.084633647123665 0.8736873365675083 0.34309469071020915 0.2668360280567856
Ni 0.5296717245875712 2.3123578899132777 4.969818148486478 0.3969575021669357 -0.11053660999968704 1.4553891423957965
Ni 8.425974566846188 8.327156012376921 12.46152128845341 -0.050168907544907146 -0.6888299043670588 0.2835847082700342
P -0.07732349866018909 7.161990607090457 6.637389382445058 0.5410822325347133 -0.20047379858146763 0.1616239155938055
P 5.191917006184318 6.920094600506839 10.294286141160558 -1.566062277973348 1.1876701975134256 1.5551440883989476
P 4.345359933955922 8.358922104705607 2.9058190859294215 1.2002822298504812 -0.30115177061952003 -0.19664182642988715
P 7.881641211632643 0.6408762685656985 2.129387984599372 -0.4653025664002374 0.06466478716823702 -0.2792703971653965
P 4.603798458211291 3.187142200324971 12.532824090900892 -0.36022749373575375 0.4390503175719277 0.3898969957757285
P 2.8072123054090126 1.3971693392589566 4.762448726231572 -0.30146415965361634 0.2517217981231665 0.3116426428485149
P 0.7448238394630062 1.2639932480868215 7.444734836142817 -0.7694332171424233 0.5503361470328135 -0.820795116554167
P 0.5357128551286757 8.152340332927155 3.763109753565721 -0.25439420274900704 -0.8382557352327756 -0.39778076939917945
Ni 4.089902963980526 0.9857891552713804 1.9612524728697196 0.15349897249382596 -0.34187135982606925 1.3692150204008742
Ni 2.5300763706689513 5.924729175881401 9.931410550959423 0.3884065272731311 -1.124214343051625 -0.4819203774625765
Ni 3.853552091057792 3.986607433925754 1.142566895743864 -1.0150974962176 1.4931139106400801 -0.7391229961946562
Ni 1.0575786662679931 4.931063515845481 6.427831629385286 -0.5957140609469805 -0.9384405696844935 1.5307175799254669
Ni 6.566775774164472 8.11986832743561 3.746075883179295 1.014187325698505 2.109947270064179 -1.153158536889801
Ni 6.109854902841356 1.3249247000389213 3.397882357932533 0.21963031690526044 -0.0291424258919111 -0.4281542394847142
Ni 0.09584535968727478 4.967919613611629 8.874037156808525 1.0490010909435805 -0.5821242380776878 -0.7227435263953682
Ni 2.752466881963025 8.165148941500622 4.3881540617880725 -1.3403870404255884 1.505830329765484 -0.034899382980346345
Ni 4.781409925319227 3.312125983475498 8.252527987399127 -1.8394913858666193 -0.0762262667535913 0.9156893920309067
Ni 7.1283482718815385 7.811709366854082 10.354264610342797 1.320815546051564 0.9120114289586874 -0.8368423998250168
Ni 5.260390582981708 0.13327547631480097 11.267238822865199 0.009600499204241532 -0.4065909114916417 0.12254597575573735
Ni 1.252689349149976 7.551784709624271 8.783362611039198 -1.9276118329546352 -0.07260666772313303 -0.7504417636415851
Ni 1.6872624958699294 0.06372723961026779 2.2257451313297203 -0.5819015805439204 0.36729828453960617 0.8025060884369921
Ni 2.003743801108328 0.6319975528765197 9.001226918592987 0.4842719084138885 0.13191584700641154 0.53304984914854
Ni 8.557748120023694 9.328549563879937 8.704365355116543 -0.04405790955116283 0.45106405420335216 -0.002997906286059353
Ni 5.597984264788265 2.442134451906378 0.6741470705310066 -0.30075582073268203 -0.9800651872038154 0.6710720661630055
Ni 6.473623101660264 5.059400386519592 10.53137264990564 0.36483696748330713 -0.3144032363127876 -1.3721769312426753
Ni 5.467037373077793 5.9371941162045285 8.54479461348522 -0.5050901307108204 0.08767513202048126 -2.4803902708803536
Ni 3.1369387707821206 0.33976715128167845 6.744949185303367 -0.7021109377466811 -0.14311325838412772 0.5047741421322984
Ni 2.4768913868461273 2.7477391214380833 7.046282151366663 -0.3969037661108648 0.19382184048258877 -0.2567992126460738
Ni 4.911102892332514 7.0493881692832465 4.746339044788626 -0.1143241020665773 -2.264542046725345 1.9195681367145523
Ni 3.56419271260295 8.008120416088701 8.757288408002623 1.1536154219215615 -0.35880053148124014 0.6520664715947803
Ni 3.4724518664244606 6.305318542304768 3.11174695919912 -0.7201744801166113 -1.2655771944035497 -1.6010511353437071
Ni 2.2550767520796495 3.7397514585399376 4.13558297628242 0.06857877751066253 -0.2684519663936538 -0.17347258740227545
P 4.691378132061344 0.2823764111411854 13.50301628060551 3.6896248248281163 1.344765629109258 -2.1851245267279658
P 7.7518089196530005 6.676090142765732 0.16626669951429232 -0.17568862121698775 -0.4303059957203944 0.901035646673474
P 7.369575518626658 0.6986738376079448 10.637504836275376 0.10889058975583181 -0.10534529560673471 -0.24605894341043424
P 1.7119230149145672 2.3110946768850025 1.90025414493377 0.48292490746769084 0.14918209028602694 0.09305927915053006
P 8.989646227389652 2.773960080105885 12.371879605101318 0.49797717381512296 -0.10414407620978193 0.8366971324964043
P 9.17160463344783 4.32630027855871 4.310054058648738 -1.380245824293739 -1.064931903241224 2.994702177299759
P 4.5873209588571715 7.423605740578695 6.913791539028989 -0.009698715345002652 0.24745042444132226 -0.06433774284612145
P 2.4413077904393448 5.8208763459612145 1.245699880004556 -0.9000645410094563 -0.3057694718971895 -1.0313792640967592
