# total energy = -381162.06034141756 ev
CRYSTAL
PRIMVEC
9.32092035620439 0.00000000000000 0.00000000000000

0.00000000000000 9.32092035620439 0.00000000000000

0.00000000000000 0.00000000000000 13.64210911437715

PRIMCOORD
 96 1
Ni 5.898511495564303 8.186881358898553 12.003009740933173 0.5334208593347136 -0.19273143563188744 -0.5645823725391825
Ni 8.231230298488322 1.5502554923434677 8.818628181777408 -0.8511428756080889 0.3062230144948403 -0.3652794543373645
Ni 1.213844830789473 3.139994403792076 3.707093186484567 0.3768949270891057 0.39447381651313357 -0.4312979273200185
Ni 2.5141878035278835 7.923108630556635 7.376615606744157 -0.7668207192202406 -0.7752459671694584 0.5095954747803416
Ni 3.6206090259163313 1.8466887260074847 13.608399409940667 -0.6341620805105337 0.7888324476046416 -0.3603935869999728
Ni 0.30338104778133795 2.253640113668114 0.12272576353438394 1.0170757029898936 -0.8017823228970901 0.7845189078309521
Ni 6.116294802313974 5.325945993016958 6.062485128448541 2.069435940213694 -0.43543123276210166 0.760721034080406
Ni 5.845755085711827 1.189181675229463 11.822456986811373 -1.6401889818854332 2.641753733723921 1.8191542169711636
Ni 6.69896418264932 0.09066272921432446 5.63799736101822 -1.9118622834298624 1.4807574459572561 -0.4946355110363998
Ni 6.195410775251752 8.443281239149782 2.421951702938454 -0.4506989575544496 1.3750956475513674 -0.8390890297673483
Ni 6.65087755395163 2.7740177825115686 5.861646323018803 -0.13297642706044194 0.046128418926946364 0.1926990397320552
Ni 5.077953583028441 1.0215262787601151 4.258875832662995 0.4192610507601425 0.14968936893974866 -0.6197502759605779
Ni 0.6212290962220451 8.436812520344548 5.8823415627353155 0.07020397181891135 0.39026337797621174 -1.3519888863305747
Ni 9.428111054024878 6.3033283924376144 4.361123533927787 -0.013739461073279563 0.2713493425461069 1.541418511282739
Ni 1.2760526539971466 6.23750405208811 11.017817342251846 -2.3429095281916554 0.9402382850148646 1.1262784246695055
Ni 3.0637306325176996 5.14817739783914 13.497025595445033 0.3246876489579312 -1.742531486110102 -1.4379107831053752
Ni 0.21502617847504768 6.39019005028483 6.88678259427642 -0.9530405789858555 -0.2896021181087077 0.7231708437407739
Ni 0.07804872754411994 3.8768504505195924 5.940006369306575 -0.49048060832776175 -0.9127873878927634 -0.5645602610519954
Ni 2.3542314873656287 7.135313753468026 5.077756911606552 -0.6160244903695584 -0.511857274231325 0.07825358159626523
Ni 1.8219696449246634 8.304846928349605 12.056486657937876 0.8730497029835093 1.9310563398598097 0.2580168871032589
Ni 7.811835482002064 4.92964841745198 8.642044275591152 -2.048017365328602 1.6133109265476668 0.5422063188368275
Ni 7.953327054715952 0.9837392671802665 12.406434092288471 1.3785352693605357 -0.9363291797684454 -0.5716130541337188
Ni 7.233845203741972 1.6166856925234334 3.8045527309046205 0.7409078560092207 -0.23400329779748086 -0.3218229258156264
Ni 5.970375792377483 2.9824801687926032 8.457616814830542 1.858859505980586 1.3286126734984796 -0.16144059593840582
P 1.0850949563562098 1.124960533200564 1.962758420235216 1.4501188951357926 0.07483787104649692 -0.8408363514757584
Ni 4.476139032050516 8.277937430956655 5.981819086436828 0.9981418421998681 -1.983668823849203 0.4164703753888827
P 7.916425530580624 8.943572324383327 10.092609727246423 0.533001769519424 -1.2114449313355202 0.28754009337335645
Ni 3.3045179709839623 5.400737058857289 8.17336975258722 -0.9112953767282693 -0.9356498943132338 0.4085526632037028
P 4.065394029759152 2.86739476376636 9.067909675066737 -2.507770976886152 -0.17047468111621608 -0.8061853370607922
P 7.84943607517254 7.8478328768519345 6.019799041070377 1.7054160693150435 -2.515290939412281 0.8805082161440836
P 1.9948820405383216 1.4481168458481593 12.109023094067293 0.7516810353653247 -1.5395745160954648 0.30849149881404286
Ni 2.593956240898467 4.781697446853327 10.343201741953644 0.9470828187405238 -2.793374515358428 -1.1017279890236509
Ni 2.905181775346209 3.88779321114977 1.7972934400759975 1.8296047228805263 -1.0825917824148323 0.20574198895894244
Ni 3.8945601994099994 1.0474570795038594 6.069633342355938 0.9359430000736203 1.945301022704282 2.9960100974779045
Ni 4.001172887730253 2.8268207969663894 11.12908303407004 0.30487035712168786 -0.2902443796783969 1.567885704335332
Ni 0.21822791465602398 8.666032596509234 0.5567395116836494 1.0831772226046572 -0.5189746020023964 -2.249028524470778
Ni 8.622475935159299 2.9045945573566843 2.28502644916215 0.9936375265716113 -0.32315887101823054 0.8847819038187729
Ni 7.121854344311316 6.395903774532104 2.752922675306953 1.2522043726410692 -1.8047210722649694 -0.7241656035538754
Ni 8.385910973665329 0.42505447939481295 1.9281759411124844 -1.3589797158261112 0.21926650580793852 2.192531103604682
Ni 7.361019842616036 4.1747097850153105 0.6943563777587255 2.665214278739707 0.1258310742649123 -0.3812963985909111
Ni 3.9136680863707025 3.284067871475776 6.810972751828867 0.517313669360206 0.5728883213017166 -0.6666513113874907
Ni 0.7497617932083891 4.43068090292498 1.2858069972675739 0.569178219439981 -0.3828912538818567 -0.3767018372416932
Ni 8.323917531628434 8.41139437022658 3.8235832542254333 -0.7673719637380204 -0.505033309330956 0.5852447859845404
Ni 1.6645952237322204 3.5220030082786358 12.06529958824097 1.0862244940714132 -0.7770107723793651 -0.19216707848798517
Ni 3.9534870586127133 7.817511922567463 3.5974241683426476 1.1837328101322322 0.5409261665728233 -0.8887450022315792
Ni 4.1169760036325815 0.8033561538109967 2.2841120668641772 -0.08441085944691269 0.6507958324124727 -0.6530262644048883
Ni 1.5176229497827747 6.818365173852542 0.10575143526895171 -0.815424596270873 -0.8951388215730648 0.9603155153807139
Ni 0.5196161496411676 0.5133618120067132 10.322642587675974 -3.1845848306289413 0.39475303831644915 2.355757587798917
Ni 4.040274149096179 5.767319539968258 6.049484308578887 0.5478964272430693 0.9852896688275484 -1.0366708515130019
Ni 1.2839288317931437 7.903161860753755 2.8147492728674597 0.1798044431575742 -0.1846550863816562 -0.4698670458424682
Ni 8.214424678883372 6.538252871929106 0.2882960700948981 0.4759433339435352 0.659235992760026 1.8682219210320923
Ni 8.69544010058778 1.0790643208130024 5.839873584896118 -0.4630214836755446 1.856239037638603 1.4154254575186656
Ni 7.408109132823584 5.701942603801248 11.848758760189769 0.336040354966589 -1.1879764158999346 -0.3047698269880816
Ni 8.81177450895682 7.600390401171066 11.957213262394625 -0.34475588046271594 1.3978270277106122 -0.6969903286906642
Ni 4.968507334885722 5.190046972584251 3.6554170713144045 -1.1773104515456563 0.9370568019630894 0.46536992930306303
Ni 2.6704716770254966 8.937616256203867 0.87165333436083 0.08395911662147475 -0.11146889200596932 -0.2966546540801149
P 3.808248475870434 7.195237951160884 13.35386557796726 -0.23883131531374352 1.7767469556495465 -1.0585445116576415
Ni 4.571175137148725 8.530655547622771 8.479089419314137 0.6019569565328987 -1.6758558391594234 0.39097120267651375
P 8.381744522215849 3.129676144833296 12.307474811765013 -1.117679627256901 1.56917356990882 -0.7925595187472415
Ni 3.0046919222693615 0.7358792142624032 8.383757841037074 -0.11430559012381604 1.5452409703526226 -0.16227543313487539
P 1.4332033730983424 6.22132293415456 8.748862024161717 -0.2379234587874935 0.8490988485948668 0.19818937342266513
P 2.826774192364046 9.217849730093397 4.8138229313405265 -1.707888442114936 0.16908962784323134 -1.2829833056951387
P -0.00548722587988576 5.9797246756075255 2.327466464239942 -0.6757267913261975 1.6448107969281607 -0.47026119595709337
Ni 3.8972259826640294 0.11009498420733589 10.844794959776657 -1.162223989526179 0.30398718318578616 0.021070447517054034
Ni 1.821233292207641 2.0028141438571305 5.668323907854973 -0.4181912147347314 -0.13735707262664085 0.5863660440731773
Ni 1.8382532929833697 3.122629528959008 7.930444194965451 -0.5759091104059114 0.2536115589467116 -0.17146275606109826
Ni 3.4227538471286043 6.975105772453118 10.68076167300142 1.568387840782731 0.4586950883860487 0.1374966835282987
Ni 6.866461123470701 7.855951398580116 8.131707102276513 0.6431414011910085 0.1614771056032961 -1.389598983373865
Ni 3.4781480774737057 6.607991998875437 1.6524957368718844 0.06325582263585236 -0.39370068579253487 1.6102310020707624
Ni 6.007007009819222 5.949823162744142 0.5981998980201872 -1.3146706094960907 0.7145355366632791 1.4447087798638152
Ni 0.2516890870463788 4.966251672132311 12.772233616080072 -1.5020022142686453 0.7537525731823729 -0.27878034490285536
Ni 5.468807741039735 3.635214908290684 13.412580852275337 -1.7481912554990406 -0.6673532225505217 -0.5562393998911259
Ni 2.1149914216971597 5.334222970393107 3.463049118406563 -0.20413479237282262 1.530042151124997 -0.21305369212900727
Ni 1.9815904079500475 5.029764424205594 6.135933981741389 -0.3437973732041885 -0.9525363856559274 -0.20180151625395565
Ni 4.953724355022465 4.978201092173102 10.36884918671514 -1.4199122896454255 -2.526532059543739 -2.363695097478439
Ni 6.624974715969291 3.492968341018836 10.902227675428248 0.4733282649181913 -0.9403573270912322 0.5288370966187731
Ni 9.011344737110775 3.4006353028565326 10.123631614750137 0.780879511306152 0.4084012252275031 0.8504090827658579
Ni 6.240999397263849 6.647745724674168 10.013267255941257 1.1936472410324668 1.9342331949258946 0.08973664253520029
Ni 7.827429381946092 4.599566660896188 4.475743825022646 -0.05258111653082557 0.38229398661749 0.741578142603368
Ni 0.7421354160809513 0.49334420320827144 7.675419150483348 0.6376605805820954 0.6322003287984725 0.925356997027658
Ni 1.6811025738821739 8.28042611672178 9.698448506652856 2.2027838916809417 -1.9140821738993166 -2.128475153665038
Ni 5.186253357953516 0.15635937295340854 0.2182148653673679 0.21694839919772313 -0.9110495792660502 0.7114921218512649
Ni 8.82482379761291 6.990317514657931 9.506558716965055 -0.4861117898361047 0.03633662964750517 0.11290202490807007
Ni 1.8798898447167647 2.043211013168197 9.984073200941442 1.926847443984785 1.996906662695716 0.24212438424271848
Ni 6.180571869865684 0.9324182790799591 7.615762463207941 -0.6989911611707769 -0.401676762019476 -0.43197387034112056
Ni 6.247999408535795 7.367954607444702 4.566259283693566 -0.9668227203716122 -0.890046494651822 0.7524996746118783
Ni 0.4949380806084081 0.8912570942904644 3.9673165083120283 1.231033652100725 -0.3662564735386531 -0.6076635199993728
Ni 6.557985260561208 3.8005680374042785 2.9594919826408073 0.33329441679033567 -0.8246376302287087 -0.9097162051666073
P 7.312318033167416 8.647129769798841 0.03809833032350102 -0.1567539890960139 -0.39836055316204944 1.0838338823520495
Ni 7.033249674336466 1.815789874653958 1.0044839077752619 -2.442478069215613 0.6058478069468728 -1.1529240522814919
P 4.9323887680697585 2.9448516128607216 2.054406370743075 -1.1705163114419581 -1.2281951542106655 -1.5541871238023168
Ni 5.170873839180269 6.027224086315693 12.21604497079612 -1.1892393417727583 -0.20604075114628387 0.08303429081436023
P 8.929385883430063 3.46732648880962 7.898248803574737 0.7016193428222434 -2.0009970307150056 -0.19283916485434532
P 3.3026724287311726 3.89380520485204 4.480887108937239 -0.1293542569268224 -0.21507586476535864 1.1336137819886543
P 5.230415879133912 6.0412893553028635 8.175661766930457 2.229931141519695 1.1591376372913715 -0.6816400714868389
Ni 6.064694186599607 0.44008539574253464 9.8701612998022 -0.35600754211713526 -0.20789605918746776 -1.408810523305309
