# total energy = -340868.9778572446 ev
CRYSTAL
PRIMVEC
9.26483963550824 0.00000000000000 0.00000000000000
0.00000000000000 9.26483963550824 0.00000000000000
0.00000000000000 0.00000000000000 13.56002931090930
PRIMCOORD
 96 1
Ni 4.71026284324516 3.2022620054364146 7.919436418819105 -1.0843779277809777 -1.6718919694156689 -0.1878522531627152
Ni 0.49812038045078255 5.7527055048998585 8.611920157563723 0.5427927874679168 -1.8737950442444955 0.0032958971424523883
Ni 4.299052214580062 1.2575351714575316 4.1011765556975694 -0.3244104840371445 -0.7478629471708153 0.011228264615651629
Ni 1.1264469598276095 8.29071558998721 4.233359871335877 0.3770952160253699 -0.6243263253670345 1.355707987053375
Ni 2.9261605286689174 0.5209211500331727 8.205417920244328 -0.17108146146227954 0.40171044347088886 -0.2476913368075347
Ni 7.625287035043686 8.324078276401751 6.5140075436774065 0.4110589745653243 0.8045794260262531 -0.401426850792199
Ni 4.052737196247097 1.927216287651895 0.08751937821336478 -0.0038129459881869813 0.012576551113429955 -0.889748246685113
Ni 1.8776308675767417 3.339326038431896 8.024364430126868 -0.08616692290607095 0.5920101297328321 -0.7661244644841645
Ni 0.8735733617354519 0.2626081647724572 2.2998620226206503 0.19759262037893066 0.6501970224862093 -1.681676816716575
Ni 7.722336226988236 1.3495998798444522 2.398565914868904 -0.7149335434326461 0.08701101607392112 0.7723940995429601
Ni 7.799252923076414 4.948183917148361 5.979959042802588 0.28148514542852815 0.7718559676513029 0.37642107277648074
Ni 2.180507729997675 5.9406149761188916 2.734054085235004 -0.20659610942912163 0.15232886344512478 0.6095923615909695
Ni 3.5815182032645914 4.802957560706279 9.294749007246251 -0.7441286769393636 0.3230701679591662 0.4581950088211786
Ni 8.415188706338048 7.202495357220528 10.013674597428555 -1.80916933784431 -0.4756381439982906 1.4436016628425656
Ni 6.495652970487778 8.740190005070541 11.050989170516063 0.7288252138130739 -0.23140879759742727 -0.07414855828895617
Ni 8.537262229303336 4.647354584218573 10.802949965584448 -0.4306284120568197 0.6035883214887346 -0.3409984703028128
Ni 8.790275726469323 3.2644105476382324 4.028141827287174 -0.34527318641876664 -0.26541343667764605 -1.1131272319995282
Ni 2.67573192167501 3.736241020016284 13.086444723050993 -0.6436594784780075 -0.284242139348375 -0.47797373411000266
Ni 8.220914290501746 8.435052521853954 3.0514406125250897 0.31805111747802 -0.7785953432576656 -0.40809552106162617
Ni 1.2177982755863934 6.546730029694491 10.746729994067625 0.8779247716876234 -1.1947358461109554 -0.17833480059058318
Ni 2.108519928431169 3.8608809034749982 4.308957254303968 -1.0547891583802673 -1.186009521981551 -0.8811039407465535
Ni 0.026622515804550273 3.8459367176414365 12.934301237567784 0.828832642146663 -1.0768952462506873 -0.08967545027996168
Ni 1.362274180043034 6.891836029765377 6.285412457040207 -1.0074942299490455 -0.21912895178880973 1.6024714127300015
Ni 6.363100914244277 3.2647904060506168 9.60543612921938 0.37194143973857235 -0.5844991660677675 -0.08885963924688568
P 3.0879524178266906 2.6681810776239545 9.554206200163781 0.6961238669253108 -1.516995088133052 1.3040408976963864
P 4.35138929193517 2.994562837416088 5.845050011434439 -0.8002694857969894 -1.2622823257023614 -0.04236432389882381
P 7.025370158977482 3.412824008808614 7.5589702416288995 0.9486619903021856 0.05864737732956351 -0.4016273968387793
P 1.9599489649922384 4.688212525648212 6.124644332628006 -0.5427097408358073 1.1765113526831286 2.082766081663697
P 8.411769980626588 0.5376488174370758 9.971000747490931 -1.0817330339589628 -0.9766047394590407 -0.18496798963638467
P 6.907067425618059 3.3427910883399883 11.62415845544681 -0.0603551040492896 1.0305593392986252 1.271208424547398
P 4.014158405291765 9.241390018113435 11.569986013421133 1.188676784401069 -0.9043593117300683 1.6388232118861583
P 8.814456957111354 0.7807841429132031 4.402236583126586 0.21517408090611975 0.12764061666982532 -0.5827377032919706
Ni 2.6734898305580095 1.6354942917800055 11.610964397762016 -0.5845274482025418 0.9647267570745319 -0.2917675011911427
Ni 6.631355072102273 8.164565537718284 8.781841016746524 -0.38467020015915043 -0.9210357439444847 -0.9282888259624723
Ni 8.879486864343697 8.36793802577316 0.5332165183033027 -0.18514513864419727 -0.3283159897391378 1.5092300994756525
Ni 7.653776415972517 6.38242736907925 2.213661031043439 1.7271763438102707 -1.1342156772387113 -2.1655064953867225
Ni 3.6056901690672962 5.863077535795843 7.2194954109006275 -0.6386573972777259 0.7966059209024732 -0.9813479105709808
Ni 5.546173706634665 7.083831295127372 5.8239104275432805 -0.45569563943809266 2.024437778236449 2.004817947122992
Ni 0.20607411520246735 3.326021729159116 6.366257445002798 0.9762165028816864 0.9869732271775583 -0.4632821935360989
Ni 1.6637427868863477 3.9346568190315088 10.80732945513406 0.08211820675799406 0.056242367432496686 -0.4436831883582487
Ni 2.432224149657959 8.553494227803274 10.429261936191466 -0.758789621385648 0.12061096351655355 -1.3199382856529334
Ni 1.1485065422638838 1.2599810890397143 9.688125746691869 -0.20689127207203722 0.7167343440868108 -0.103808290136918
Ni 1.6090894996996268 1.5124664903640936 4.049987391935008 -0.18797155234939886 0.5490405681498415 -1.565492007292175
Ni 7.92918302979053 1.4798171965776885 11.986631396835127 1.9912854598541965 -0.8033686935476035 0.07974276454728202
Ni 9.138707803858404 1.32972679948922 7.498967436215087 0.5826718830510418 0.3989441935796613 0.5242224806648971
Ni 2.341549167170006 1.7298103561232532 6.08856148938722 0.7907386634884188 1.1293411227552292 1.6473091378699825
Ni 2.340187235789018 0.26437311666414565 0.18587583898687657 -0.7872183090399861 0.5083299778043567 -0.34230844736348787
Ni 5.495272679375156 1.0803265896605478 6.246060978485049 -1.491048029249987 -0.5729294589522972 -0.4808016904771009
Ni 3.1539180738310053 6.496662837974362 4.849324375599424 1.1270009046578269 -0.835395125855529 -0.7929986631671891
Ni 7.635089235051069 1.980887501870012 5.795271882701295 -1.2141350765731735 -0.0499382795913398 -0.4626049649634162
Ni 5.769706485063892 8.758210117560482 2.3376671994922242 0.006500520122679127 -1.218984948466307 -0.2197609289458538
Ni 5.427982151347159 1.924038447762923 1.878185831452396 -0.24811068373314046 0.622277927478438 1.9001267401604889
Ni 5.157828701427243 4.526504020044377 13.252975577524246 -0.19997860411260399 -1.3550934933978276 2.222977078799365
Ni 4.667125751341215 8.329470412889744 0.09201467825455768 -0.2531130220437383 1.1711506025918474 -1.1062371897479142
Ni 3.1953133759415784 5.9260321190190615 0.7081765235957576 0.04308783232840967 0.49451672607034836 -0.12943601800735127
Ni 4.8732869560333505 0.5604190130496887 9.620135723294723 -0.5089745533668912 0.6109789575258511 -0.46830998576799343
P 4.454025181993568 8.179065011264177 4.145138218301568 0.032897522058969154 0.380836428235357 0.23266606704329607
P 6.5634067404820975 0.5238071474833614 0.6797001134419848 0.6140971914398584 -0.15192417180753834 -1.9518743050464258
P 4.839201612151346 8.61470702123312 7.533856968150627 0.11160927423857551 0.52370028961284 0.539304057588368
P 9.072028755225952 6.305427289437134 12.299447578885474 -0.258846839203722 1.1467135525954057 -0.6015502080127834
P 4.424081221290487 5.207163970840582 2.2626673986606893 0.5341410253301897 -0.17100587102933776 -0.0917791268865258
P -0.03622830121821226 4.471294842498069 2.226679056781032 -0.30620398833144685 -0.08345749439470787 1.1389408506285221
P 7.892429412182508 6.621478753380278 4.264805662493777 0.6009434276667199 0.38839290042637625 1.8721238271896599
P 1.1322282195673135 9.151678578915433 6.560789423372376 0.10525453566514131 -0.09519329477439735 -0.4297130993314019
Ni 0.6138743565114996 5.623896443744243 4.373882468851923 -1.6640632173998697 0.1544096572335534 0.4452569606032719
Ni 4.18779075910874 6.962693520934057 10.820482747525817 -0.2573286027869826 0.48813164847961094 -0.2935194508852429
Ni 5.76386963628823 6.502638659339921 0.9375619010275024 -1.4121647844895229 -1.3712827015631803 1.9861026301016762
Ni 0.19510732489175 8.747675995246311 11.962237074888586 0.1514732003130488 0.7477022532232349 -1.854948600961954
Ni 5.565472366951658 4.9001457252407254 5.365567708256673 -0.7585859900152743 -1.9998112379370203 1.0649684129061143
Ni 4.214102902795854 3.6893146088278215 3.864066155235431 1.3878642600709452 0.22815763764998126 -2.4536343429427485
Ni 6.5801483051449905 9.003404090334948 4.484667711581865 -0.8957224619906766 0.6422358586576037 1.2232907749305124
Ni 2.149526107290031 3.733137298841924 1.810467267847517 0.37702476779875066 -0.634702526395036 0.41856299625185334
Ni 0.10219395722252683 2.443323427171045 1.385075876109357 0.28323272424725415 0.6576311101667512 1.0144166681004918
Ni 5.863244302903718 6.341421190220387 3.658984304324827 -1.7272892152390509 0.5397748265771993 -1.2988770941072598
Ni 3.33138607112913 8.862217203839197 2.2872646205884783 0.1325018014168686 -1.0004434937498512 0.8483146621306745
Ni 5.661483896891645 1.4302873655384936 11.857675951218152 -1.2316244916071883 1.2088982536542663 0.8624757841224049
Ni 8.857677432569236 3.430566176118763 8.839213534275556 -0.12962705097223481 -0.552058529040559 -0.2928123975158893
Ni 6.961331589553068 7.3816402904367395 12.966276051051222 1.1052398588316514 1.7653461700117727 -1.4428542431535796
Ni 6.910995717492472 2.827276898537731 0.256848214163204 0.3183794473517162 -0.9245712679015691 -0.5636585751733325
Ni 0.3850930466038392 5.8360983236772235 0.698506810790743 1.4133001836455465 1.20698998088796 0.7027940798566348
Ni 6.7645000780626665 1.220596257062981 8.084949993934314 1.0220803552933364 0.20948165850703276 1.261103474902912
Ni 5.724901722081187 5.24520540111498 7.886621284408757 1.7124274676358702 0.7877942361481142 0.17229553637503875
Ni 3.112133648468722 8.592804941065395 6.065780175967414 1.7833459490233028 -0.0737081283174279 -0.8168348463548383
Ni 7.415447689138951 5.156652066832784 13.036489635886715 -0.8124662849734976 -0.4986780565368896 0.4382720446450065
Ni 6.571726566197249 4.11469117682306 2.2106240167122295 -0.0953367623307971 0.9165208867932667 -0.10998485126127511
Ni 0.08498451817364842 8.440083329608216 8.355663040149548 0.9649684407716929 -0.43099607980888355 -0.16281767879159054
Ni 5.144533656993788 4.70389789862789 10.97617929889072 0.731567038224269 0.6215587899242263 -0.552048758848546
Ni 2.0574243395458045 7.379166578336577 12.740149117610592 0.31419266296387827 -0.6104205139192197 0.3776333479170271
P 3.177395176684226 1.6847183831214274 2.0574771491299657 -0.6558981866360446 1.278482846721624 0.6263767801381599
P 3.5486465533343514 5.4941608986559825 12.2824567900447 -1.1556882452901904 0.4740569155540997 -1.703999648583491
P 0.7457278438697865 1.823227731051835 13.083719007321152 1.0036357754349037 -1.5732950482763615 -1.7529961330868518
P 2.3953871484959994 6.678438985559284 8.880693146423999 1.1783733455925318 0.8905892545291695 0.44819341752377656
P 1.6491228704292114 7.639462239213152 1.5068714538948513 -0.3103468068552268 0.1430988602064245 -1.0417192125701864
P 6.3376040764178905 6.556698996809749 10.892988453610673 1.1097428889083274 0.2934502882102043 -0.1305953284227751
P 6.456731380477368 3.133526162473492 4.08559587540228 0.34313531414015747 -0.7812101551726933 0.5670025519449008
P 8.235052435313905 6.591108610068179 7.56242787966553 -1.7547527107666423 0.4095679918420946 -0.20794131060310642
