# total energy = -381164.20482813026 ev
CRYSTAL
PRIMVEC
9.32317867301875 0.00000000000000 0.00000000000000

0.00000000000000 9.32317867301875 0.00000000000000

0.00000000000000 0.00000000000000 13.64541438930951

PRIMCOORD
 96 1
Ni 4.658009133360178 0.21783047099268346 0.4966149504898894 -0.5659903086303028 -1.5337995612849005 0.3665495792990397
Ni 3.2725009044413227 1.4056276480523322 10.61263931212736 0.6660180486788658 0.16276188585299067 -0.32554279786937484
Ni 3.7157714246920945 2.1901078538670484 12.843213489815977 0.7248862837699839 -1.1834651582931424 0.538358405845647
Ni 2.433470781411604 4.644136243800116 5.938552357499491 0.7464920349652175 -0.5743543643242819 1.649620302501662
Ni 1.6510603212167356 5.33352002924344 9.908125872666519 -0.050027753981352556 0.530208523045003 -0.7468090519850041
Ni 2.3827526905468615 3.2349937574654293 9.184605269263404 0.010040929175769804 -0.5850455254895409 -1.1466806424749414
Ni 1.665138320703089 2.3652344382058956 6.1338179396465975 -0.2663842852313477 -0.7931817257122726 0.5764259021413298
Ni 6.622430806057588 4.878474334587857 2.12932632416418 0.9521036689938828 -2.4386301562244324 -1.119963281084755
Ni 6.05034192891745 8.433281083033666 8.909445641554473 -1.4967178259412546 1.2176927120174448 3.9019958890678024
Ni 1.2665351484914682 7.040444835839135 7.904897401914805 0.6838892725323319 0.2551452219824186 0.22986202193559768
Ni 6.310682364451839 8.091773055758754 13.015746365905088 -0.9050031159616543 0.5667058466400886 -0.6449866819298634
Ni 0.679522659577949 5.244940510621027 4.4404089448756485 1.2917458823791172 -1.290487584491984 0.04532700607157355
Ni 4.157289187390923 8.034547386323498 4.5168095954655945 -0.041815136263573145 0.1550516616929265 -0.09890519640834579
Ni 7.060303205975513 3.2096440352115256 4.061393770624841 -1.544886158116365 0.22380810243203392 -1.4326508202580166
Ni 0.49938766376620825 0.9071499265045795 13.594421136314867 1.1175266466188045 -2.8506941750155033 -0.08263319872119962
Ni 3.7635433911610177 1.2126192074122755 4.974490020356173 -0.8275177799899813 0.288993023769799 2.2235836020351125
Ni 7.584601470289793 1.7477789746415227 10.024221820218747 -1.6891263310160847 1.3137933490974598 1.2430458460702527
Ni 6.373082397936716 1.4567559587696572 13.269483194130746 -1.309346883290332 -1.9054730920740668 0.4951209353132505
Ni 5.119730223798693 4.289622382562643 7.815683907156584 -1.9044351377278554 -1.2952477248847885 -0.5575200663757625
Ni 8.07171889887455 5.396432837544043 11.556369661668137 -0.44181399635999397 0.12486613924848171 0.26385689082380365
Ni 5.149937322034312 1.9468008653932996 8.992668994147143 1.6287203191242015 -0.10388876566586625 1.9101329594435812
Ni 7.823955431093202 5.432569477285172 4.111704438590542 -0.062088798910944674 -0.02906760678991768 0.20601195479087747
Ni 4.24858175094746 7.368536809298908 2.0103383266512447 -0.7944803899190382 1.3641054670884507 2.217816360534032
Ni 7.396786040056291 8.337942260022112 3.472840160310597 -2.280521967093369 -0.10187559189057939 -0.8264322602352864
P 0.10958930129956247 2.932848189681498 3.6999816896390563 0.6236511536768808 0.5445316245358944 -1.031826378936507
Ni 1.5069985675325432 2.8588501221826994 13.50165923983181 -0.044873720584238844 0.3133699099522667 0.26329073390768853
P 6.38589244515145 6.58140882079934 10.135363430733197 0.5473834921623927 0.7148504968005366 -0.9699165288055877
Ni 5.833279687830512 6.1401521070976095 3.6748734377074683 -3.086533240470142 1.80882198180722 0.3752455644111408
P 2.0049774990322695 7.658991111284238 3.158531573897595 0.018651810773232396 0.16604826991374627 0.12174584845194517
P 7.015738412899507 6.094925368350391 13.408721135275707 1.0054031517479718 -0.7172372518651583 0.73089289497538
P 4.712614989645986 3.1841451421021376 4.575361953196817 -0.28716702630465385 -3.69567077391188 -1.5507169058655292
Ni 6.179514566588592 4.379264743530383 9.800955003861498 1.2123556160752476 -0.08771292723695216 0.08735014458089474
Ni 2.345982074669923 4.995414962109266 13.621097546864737 0.6580517426439376 0.09349842357047768 1.3974573030760191
Ni 0.024041680314873606 3.973930236465023 1.6100364713227941 0.22581664822163044 0.2724742001791695 0.941320719445766
Ni 2.5954889768247478 3.290494638884145 3.6987939167022605 -0.651446321512278 0.9725997320647055 2.6096059453467833
Ni 8.213449857941796 1.9756467795726222 1.244170707982949 -0.7070795946058661 -1.3413170084390256 1.6274422237427264
Ni 7.533771501283437 2.964118130262444 8.149969268072507 0.3296159394974839 -1.2069951230942826 0.22569220682862418
Ni 2.7726293677126366 3.89372293210668 11.560981838056149 -0.48567084564394425 0.12863614781387522 -0.5081111769253314
Ni 3.270468451535346 2.6460019577631995 1.7938121683262045 2.8055787707341038 1.6896737188791222 -3.563274901945257
Ni 0.03535815433906935 7.088953333407012 9.953865386229463 -0.6387972652896998 1.1489699527297503 1.5657910265898323
Ni 2.7244005654987915 9.083404963949153 12.31333530318873 -0.6544735383743762 -0.0947963164462948 0.7784601032313819
Ni 7.685972389770003 8.108116587612779 7.612790100387136 1.3650734874286747 -0.5473896628099798 -1.7604309920983425
Ni 6.366518880295396 2.1917767028127817 6.294697774968824 -0.8658225891074508 -0.6109663591203607 -0.6842571973947119
Ni 1.7932015001365647 7.31006183394897 5.574192287482193 2.0648056405305346 0.4847473053884103 0.548763660339371
Ni 8.487103792328181 0.9475519203947198 4.031892436999233 -0.9271631969984614 1.7515645428466478 0.6655549929995183
Ni 3.982712670581675 6.977056545436674 9.11160198490712 -0.11998592833804496 -0.6011861398051453 0.2726094402054531
Ni 8.481276805785818 5.976334538240184 8.244777602229243 -0.31802874888051674 -0.6155148977229916 0.9743845918792702
Ni 8.427910932236225 8.292398533206988 0.11199841061563777 0.5188401333070614 0.23451751842973806 -0.08036882816705514
Ni 0.5015991216987665 6.472271693655465 13.100497787448628 -0.8473692674982697 -0.2757690688803573 -0.22510522397690264
Ni 8.562528306132553 3.1146688161602136 5.6413555328462595 2.1922637088759083 -0.9668725997729413 0.9328149959675999
Ni 0.6686695475236021 1.573137195583 10.515797592746798 0.04342644661475102 0.6358626081414082 0.469270807019366
Ni 8.770910668065984 0.4845414343741096 8.61271217887109 0.1518346974175256 -1.2931337638655793 0.6060709787012722
Ni 9.110871047715245 7.50523325199355 4.644571636234561 -0.47092531190365344 -0.10092762615501329 -0.5791978084595122
Ni 7.65094520826654 9.17251590374423 11.117123957561908 0.3581341015418348 -1.5030178000173533 0.7740802289961314
Ni 5.470691954039939 2.4034035308530024 1.658996210728513 1.5666973404541857 0.012948332630551895 0.7736691096006417
Ni 6.226522032423157 6.275888262410072 7.997044900936838 -0.9994916713595431 0.6810474322081626 -0.27936527087204793
P 2.633667392650322 0.6896700070222846 0.7513223215940442 -0.7361567144774805 -0.047113665658351116 -0.513061064731439
Ni 6.485818271969155 7.063370531691414 1.630094357478384 -0.420087917536812 1.734017277991504 -0.8192907640944986
P 0.6317581516518 2.088364007248126 8.28653238931506 0.7258062244810919 2.1315846458282968 -0.6476395461716782
Ni 5.879550622566122 1.200499075404157 3.8872918035996036 1.1336490061019637 -0.8364595625643014 0.22048880825081382
P 5.44604147017112 0.5811593974714447 11.106220500343834 0.16228983131257857 0.9207266973444982 0.013548170998079895
P 0.47301052724515485 4.1139830234080685 12.123854753280883 0.32373119858193283 0.4496250077639805 -0.86779642500437
P 2.8448000922317496 9.20069987225234 6.684029046194234 -0.5834750956786274 0.06401661206127685 -1.95443486668475
Ni 4.562399938173057 7.8419025496436845 11.396922798876407 0.127759915856509 0.8869444586877304 -1.049146615382509
Ni 5.598261005014622 5.672799816864552 11.803078677964779 -0.8137824326817598 -1.0866759797865349 0.6020909110076018
Ni 0.20032900037296006 9.015895828663933 6.435068482297622 0.486628324461207 0.7910117146441474 0.5592781867174498
Ni 0.03464586350413069 8.945999959690958 2.30672962868486 1.175602467715614 -0.7359890785513646 -0.5095970174422386
Ni 7.242319619202053 4.553328485523903 6.732360403371225 -1.8884601024558383 1.4817658326171126 -1.507109967808856
Ni 7.210313147522152 3.8217107016215195 0.18561422779725717 0.3000955614408638 1.0345900577245732 -0.7230641429595805
Ni 4.009339668285665 2.091505918391769 7.167881497679574 -1.27438013740716 -0.005705020804577272 -0.8951982140560906
Ni 0.4872721933473234 4.327241407680151 7.378225456362628 0.8546987112801474 -1.2561877827688495 0.6009010044645586
Ni 4.332378479015899 6.671601249296679 13.514376987579713 0.3745850480090065 -0.7072354034574401 0.001384024831720197
Ni 4.844864276211497 4.045849235165505 0.010038266256262618 -0.20312666282328243 0.7561146456566461 -0.41318553399002383
Ni 8.753112720370984 3.8101219907860644 9.921935364612999 1.4154100308996977 0.42512470862977103 0.27798870223949546
Ni 5.453304226197523 8.882807456036321 6.786669782581758 -1.2055576193168078 0.906052383161775 -1.0333356164921816
Ni 1.7000536240649387 8.846223303728738 10.11746013112151 1.6183867984086775 -0.6286560630906398 -1.992087129819885
Ni 4.255564811619831 5.0817009788286045 2.037519121156221 -0.5825340719215967 -1.0374136432162973 0.17759612265234578
Ni 3.598718919029071 9.259482512491717 8.597661771870548 0.5958539289589544 0.4969428190133377 0.44732104222115215
Ni 6.656609578320483 7.252901426762988 5.531523828906534 -0.161766868929573 -1.2691032052789368 0.45245219280013044
Ni 3.922522230393664 0.45011186861043145 3.0018956494139033 -1.388907356623479 -0.4931643258075119 -3.643556312604828
Ni 2.34645755677178 7.5201783070774075 0.6898424858239386 -1.2621514565514522 0.7132101329836362 0.4376567796585108
Ni 2.556825755718849 6.45096823085658 11.891568694073902 0.4128973133256437 0.846076259718459 -1.072586077352372
Ni 6.1688022345291085 3.0714185912481655 11.801072329958512 -0.9600038976775659 0.8079254596803506 -1.7027863450016805
Ni 4.959371554152815 4.895050945903576 5.409792952288377 1.7277694973095794 1.0403475290336406 1.042010004337728
Ni 4.184373020839835 6.63218285073489 6.42940558369629 -0.5888985806870438 1.454436034453908 1.4178965447669774
Ni 8.257893449697722 2.1002697061514857 12.5371745627039 2.302973611228666 1.4304615259161815 -2.3806013863154742
Ni 1.5099073992144918 1.6864231371450387 2.2900420715453746 -4.0227629185462455 -1.2355559654511106 1.0868315315277928
Ni 1.8028603130291883 5.505318238869288 2.383608558330204 -0.5591079796881726 0.5136837859171024 -2.025847514099782
P 6.501481211795031 0.19367504790050288 1.6811695260784427 0.5907202072768148 0.296408856617896 0.4085758031321544
Ni 1.2747954846139244 0.3361043130349864 4.467290465351809 2.472558947761393 -0.440784526654215 -0.8309496884896657
P 8.762948673654495 5.88940522220657 6.138676247946159 0.7118849864143095 1.065008265005114 -0.7459688154718959
Ni 3.0685843449939596 5.786300191531351 4.161414693862918 1.8534661028791564 1.0074294381493811 -0.4823469234770338
P 2.9383302186205547 5.54333816066091 7.882027645133332 -0.6163823879296094 -1.083935183816604 0.7858792785135885
P 0.5463597015225956 8.461716777360406 11.700232831650965 -1.6200222771295711 -0.4147248534526857 2.6938669094793926
P 7.35334002839642 -0.013241710377793066 5.7101960180166795 0.1647704316425872 0.9086867354608286 -0.15336064714374878
Ni 8.68246167394212 6.481324499947683 1.8634041016811282 1.1320037571890569 -0.3970621460656001 0.342656574731526
