# total energy = -340871.25805257086 ev
CRYSTAL
PRIMVEC
9.27084237725126 0.00000000000000 0.00000000000000
0.00000000000000 9.27084237725126 0.00000000000000
0.00000000000000 0.00000000000000 13.56881493021612
PRIMCOORD
 96 1
Ni 2.834912329115981 4.772713060158897 12.805501132062671 -0.008694956670836638 -0.7222583592288335 0.19677938044901594
Ni 4.406060517533915 1.6217577166029655 12.767426709768642 -1.2291150949217735 0.36611917662984045 -0.5931938656282881
Ni 6.962745598003449 2.566883007013504 6.031202091581017 -1.4339607973186916 -1.3031458966859428 -0.11747576032168154
Ni 2.3858605400157193 9.16928950600692 12.995261367940175 1.399506215185248 -1.064690219544063 -0.5035297282022361
Ni 0.32786982797826286 2.2541589541214995 9.43789732866971 0.061592061780184254 -0.9124613720119126 0.4089820374316376
Ni 7.74324854146737 8.374064464950433 4.481860778451015 0.7293466335341827 -0.42144854532976445 -0.22377236409809204
Ni 2.511072536291049 6.945622352251893 2.124550724421488 -2.139265816522639 1.339218988259416 0.8512416059694823
Ni 6.283934523867538 7.381936004014503 12.75121200656373 -1.3358063630334414 -1.030348765949716 1.2387942698827503
Ni 2.045055105758546 4.82494498574865 10.416371693047495 -0.09183826225923539 0.6184420986721155 -0.10116776719027737
Ni 5.747931504716461 6.49663545904782 8.07853318912733 -0.27581200630315084 -0.27561223158751885 0.4214572870805129
Ni 8.48766936665026 9.137620308666737 0.8160213945323377 0.24216423634171844 -0.9967971552465156 0.3583462175526409
Ni 8.825971673483005 3.613996833706058 2.525672258765089 0.17960775376573584 0.18732594834559996 -0.4014515333825473
Ni 1.5652704743916828 0.24650057208392412 1.5497761156344672 -0.16204711917415318 0.2327521989991992 0.33167050803366754
Ni 2.343937791077689 4.141136927606194 5.427417163029094 0.10737286755972476 0.43854612424199957 -0.5555691132969788
Ni 2.4162503611167505 0.10469098681616745 5.677192196617865 -0.25930166735295346 0.6581751555956794 0.25694319442310587
Ni 4.3418784762030915 8.452403082492749 1.2823178774184527 0.7111396236078527 -0.9744421845900831 -0.31746079219218876
Ni 3.296804234819332 2.9197590779618134 11.040022182507071 -0.006345739712369716 -0.9700975344681422 1.7595051378499633
Ni 5.780212577649284 9.458298744263036 3.4231537634464297 0.03593965131940262 0.12916785194762914 -0.9651736148039636
Ni 2.820394190054292 4.946448645098901 7.655064289388965 0.30005133846648974 1.2444077594147858 -0.6604274419649658
Ni 9.327116325538329 2.1232732023507976 13.613592248080725 -0.7680180819624515 0.06329156096979423 0.7515946462991056
Ni 2.1158287159736995 3.229507190471441 1.8899455701089891 0.9218312432625867 0.5037773254366679 -0.9093657638057243
Ni 8.054331655270026 2.668695397291578 11.51583982044833 -1.1614403172826189 -1.3491683861626442 -1.2446404442508823
Ni 8.301770436595996 9.573071772094266 9.998818517788862 -0.7676966940672908 0.6907741725776232 0.6397987099710207
Ni 0.9223746433751722 8.704866660352202 8.446152680605527 -1.1543489576534764 0.3567981563392307 -1.3819576647785232
P 4.905897980823148 3.9897255309551736 6.983055232257882 -0.8089474731869617 0.04019148461722111 -0.301907417838622
P 7.222700016451564 2.0865977501617556 8.849269300214821 0.19251469163539103 0.21104900299415266 0.3869001179309337
P 8.170745622190603 4.207302929191935 0.4644997936459139 0.9421951516309193 0.17223897210549047 -0.5719776365619892
P 0.9006539869207468 8.641259411244766 10.612834747917082 0.2966070886716311 -1.8206248879794193 0.6574174514940484
P 7.234307111027065 6.014162283410274 9.83489426526839 -0.5798110165634789 0.8028634717764108 -0.31351466306024717
P 5.091657848242724 5.199496286024053 12.74266428995142 -0.5972811483237843 0.46215785012366856 -0.7002039505319554
P 1.188911359865304 3.9538195586780853 8.640783817034125 -1.4112646412727567 1.1017593564822186 -0.8436085149042567
P 9.235779987073608 1.2720059195140363 2.574817920948944 0.10755618721512444 -0.4536441562257026 -0.2921464817971162
Ni 7.505099144138726 1.804587997851727 3.6357907298147536 -0.511991485816344 0.40001068717096266 0.2607286296074671
Ni 7.108603760109162 5.020068403904053 11.935957310690652 1.0594359131236593 0.9906470764847196 0.05148968323885971
Ni 5.6762029977431 3.387176405683534 11.24356816090356 -0.6366866467046003 -0.970994592361115 0.12110307266162368
Ni 3.072422038325048 3.127824591985745 8.884778480440925 1.5417838650419575 -0.27186741983310597 0.10015938053042106
Ni 7.389983095141927 4.8303776993438925 6.673034556984261 -1.5186812175862232 1.3769920932431317 -1.0229067078493739
Ni 1.4232040867918645 1.2384732828689997 11.291167446589657 -0.10377563712676967 1.6409759965631028 0.0035334670745552047
Ni 9.177929931042357 6.887021357993314 2.3503087139149765 -0.9338786613454241 1.286880840977332 0.9920516701417302
Ni 1.147498507254472 8.532178680593535 3.8039489760194356 -0.671498612177463 0.5871754273483499 0.09346474211906484
Ni 0.5875229440512149 6.687661164901009 9.703684034016744 -0.2722404869018086 -0.09755690991056747 0.15909163609025503
Ni 4.38403299619894 6.078576095798915 6.146035379887278 -0.8391299103076129 -0.2023149655552645 -0.7002301757842005
Ni 8.869683694987387 3.0170102138220387 7.305083502494913 1.035450091732023 0.5077219119067127 -0.29628518655583813
Ni 1.1564819534554787 2.503952529394895 3.902472998529195 0.8135003826649668 0.1595408078125317 -0.12134038548341039
Ni 3.9226695285074125 2.197523378433214 3.9017266957230228 -0.560706434523544 0.24416018372582465 -0.881278775761521
Ni 6.607551816476965 5.695922079342213 0.9971337887005556 -1.3455228189902568 -0.1328319310627777 1.3572452496335077
Ni 6.065179728657063 9.413798701162076 8.85947278926418 0.1051941147408511 0.0023484456275185365 -0.11106754280249259
Ni 2.222749340366071 6.555505307733466 4.545512527601553 0.7453183263720905 -0.35951195572596795 -0.045568689768734426
Ni 8.418601591420645 6.409730583208567 -0.07028040140411798 0.33989289594345984 1.1546294650083726 -1.3170571074503963
Ni 5.89511539727289 0.7358397335382557 11.292347624816063 0.8573078667682204 0.13176338058894727 -1.6419311613875205
Ni 0.8753825978605572 5.367585927995621 0.9769752691758202 1.5822514861387007 -1.9470881965116915 -0.13558686810009551
Ni 7.370412347019817 5.9274150118903375 3.7985218249295807 -0.3725212235014423 0.8060580674543085 0.16552196509663106
Ni 2.657653824097152 1.202678560699664 8.01261564611557 -1.3442588646761686 -1.5815927695087793 -1.788158797030914
Ni 1.2831680136585275 6.742581634761444 11.974058618427387 -1.1951832180610191 0.12775348809860576 0.9386781396165964
Ni 2.9950661300678774 8.631163463966235 9.408996404844098 -0.9691706517784986 -1.7021327705780815 1.2614366898726146
Ni 6.309234652538897 4.104415121205588 8.605546272487782 1.2377452597929457 -1.087241879592334 0.8854964133872942
P 0.11310242204648038 8.214865560756744 6.23307931836122 0.5527714959471836 -0.10856894475035495 -0.14861027694295695
P 4.835393225035063 1.0305375606374458 5.441895437468839 -0.2715658294322872 1.195573511520902 1.265032634753989
P 4.052628196046844 1.0303706854758172 9.788231334655876 1.8004784949385313 2.867650600364184 0.14031101304864224
P 7.920052775212876 0.6877351869461168 12.346115135036442 0.5941726846017896 -0.41599215020088354 -0.19873033352779967
P 3.9703494705216293 4.427198038006872 2.7701147038555938 0.7336668581760912 -0.023849810034404086 -0.146015005411955
P 6.166500764292564 7.159055683974877 5.629063545835712 0.6931568138771869 -0.7936185561393753 -0.0008163252537082715
P 3.2048282082350332 -0.164766045002465 3.0346387204796383 -0.11323832520156626 -0.1980585042717557 0.3764244152105904
P 0.9013020187984045 7.615505605240673 0.40326402600206623 0.8413413161366349 0.1039497008107887 0.3948347993969781
Ni 8.323983374777224 0.7082154046991029 7.637736158022297 0.03882442906636539 -0.3920438669154023 -0.7401959175438606
Ni 6.394526401815739 -0.08572747886553911 6.4074926018742815 0.5352347726150009 0.21222014048411839 -0.17978541699418069
Ni 4.940459680964896 1.831529065612434 7.654222496906972 0.5415735703488351 0.7857072717120984 -0.8056330641017482
Ni 2.2371747710046326 7.185319980246756 6.850894739669183 -1.4550942368631972 0.09509867817806203 0.26726026007839776
Ni 3.8391299684276703 1.3852307166790443 1.3513411526049686 -0.9877178186530667 1.1004367810160531 1.6725691979883517
Ni 9.100694543735251 1.096036061576673 5.314429699427291 -0.2622514940098967 -1.0772570004654802 0.4677512850510461
Ni -0.0074379967874794025 5.638034939941712 7.7127993869755365 1.2309830013684477 -0.31305854935943506 1.0085877201235403
Ni 8.694436962750414 4.5077338451773 9.93733892699219 -0.1833278829298004 -0.3079189141400245 -0.2910020837800279
Ni 6.39044723119815 3.8582186327495203 2.689963636641144 -0.7441289340496798 -0.5146569484636491 -0.6648546244983841
Ni 4.518098646882898 4.81172476461074 9.825463964467913 -0.9483300608840636 1.8295103633945071 0.28974275745163003
Ni 6.609962235478267 2.7469227647261425 13.52932956230059 1.4588673307523843 0.012030705912288957 -0.4428511793752567
Ni 4.4077478108348265 8.312515342836416 4.800904764547587 -1.423114084412175 -1.4090123549034703 0.6409472217531671
Ni 7.8168034043763335 7.490970380454171 8.252594180632508 0.9861142216113726 1.1184931242971319 -0.11483420893377642
Ni 5.222710475175054 4.279439353227056 4.811501337311004 0.021396720508221213 -0.3884273532087375 -0.28957743551835935
Ni 5.796890822969831 7.676693164504495 10.428461798507486 -0.6178836550654843 -0.8932719435676552 -0.510985670259649
Ni 8.06677312565367 7.690358386073415 11.383435504706807 0.9981266726912165 -0.5411354543701519 -0.10392707510296939
Ni 4.275675391248099 8.382334056293361 7.214213487398519 -0.32339849783286234 0.4790232584204396 0.8392337828753289
Ni 0.5106315049939103 3.9332475595862038 11.966771736369605 1.3720555751734629 0.8178748575835786 1.6631350491586454
Ni 4.710514979082991 3.6947551410919894 0.6900668037877609 -1.5045231809182862 0.1058500031572951 1.2241271547888788
Ni 4.150379957391956 6.168011911589534 0.9767027064118269 1.190116859281705 -2.0487403595375557 -1.3562816001686577
Ni 3.420115708420558 6.6127156756451395 11.348807054500407 2.1012286592442586 0.8246448293175604 -0.5747814245593714
Ni 6.267673466451061 0.3623935176665273 13.645614664513023 -0.9048383082490158 -0.810535643609688 0.46716533064058896
Ni 0.04759465026494049 5.609582724884035 5.522643546928226 0.4778816886168286 0.17206105176672948 -2.3647227674120046
Ni 4.749906788069655 6.528981427876831 3.2760542355550464 0.41879131021257554 -0.7654534065590688 -0.04586770906639197
P 1.5845074721905361 2.168857934002345 5.961513169916449 0.49624142207093896 0.07669086509483566 1.6131610312333637
P 5.985311422133151 1.6048106168553495 1.7952763638328508 -0.08743473387490103 1.4961051320579202 0.6631479262199224
P 2.1355941517843764 2.169404913698794 13.20740976091862 1.8006646428074085 0.6324445835987946 0.20408028498580338
P 7.7156028896908975 3.986591986253481 4.622813737889079 -0.4399846564607391 -0.576084202531195 -0.29785767324928053
P 0.8965284620915952 5.137706122009906 3.406640539119048 1.04853623549202 0.32810155973548655 -0.0522836398950648
P 4.519016460271855 8.52917492768422 12.172176518649792 -0.874332683460991 0.11320978595647599 0.8698612779531988
P 3.5444284329915554 6.746911118121475 8.729958195071525 0.9854994708455093 -1.2689605090534857 -0.22351191134785375
P 6.935841613611993 7.675283996472965 2.317241473554037 0.14437695558789973 0.0921251973720349 -0.10372370084291169
