# total energy = -340866.2539983999 ev
CRYSTAL
PRIMVEC
9.30685852666330 0.00000000000000 0.00000000000000
0.00000000000000 9.30685852666330 0.00000000000000
0.00000000000000 0.00000000000000 13.62152820545100
PRIMCOORD
 96 1
Ni 8.271079730617071 7.908354221877338 2.142897687675557 0.2013587722895822 0.2518364693241598 -1.0471660946173706
Ni 1.3526123008336055 7.329802661213904 3.026880804588534 2.1682022970513306 1.8370642644823652 -0.8933030539159067
Ni 4.022200940758003 7.503673394376414 8.308587301632926 1.006421565710157 1.891131478640414 -0.562680013310147
Ni 4.365028385719689 8.09432387127533 13.508428808684597 0.4915357890651535 0.059823914136167944 -0.8625758000353789
Ni 1.493034184034331 1.9049278269833307 0.5487910187817431 0.49755499867603986 0.5198071252060209 -1.2988724661215696
Ni 4.274928687199924 6.786933596586497 3.9226464045431406 -1.0118913305754766 0.34036006538786545 2.6965490842972466
Ni 6.7070528288563915 1.7271109857563252 12.034048361427784 0.8929996637428749 1.4479416849788158 1.0763601996828238
Ni 2.2885286196585897 5.886513636624687 7.232935945775047 0.7979801755421806 -2.3664788308711633 -0.18810936347884377
Ni 4.145535431490771 3.070109301612044 13.718104888417217 -0.4366399083582222 1.0012022262927467 -1.9242169483404732
Ni 5.598568737078873 1.421734339972775 0.7375908838929731 2.0490242093265616 -0.6527694111990757 -0.333123181319794
Ni 6.113377622898605 8.892042646115188 8.001517738262272 -0.16070680309617483 -0.8952604347525936 0.39092080905455256
Ni 3.5690220728700837 5.5932917482284745 0.829186194596617 1.4221483780647957 0.7787028153698072 -0.3773646676366727
Ni 3.6015681575435283 3.785425150029632 4.856919132131827 -0.41780940591528043 0.24943197364772526 -0.2741916970909084
Ni 0.31578543648952123 0.7483030781906954 3.7990717968573904 0.4597243009815115 -0.7046614720826767 0.6412084458343538
Ni 0.7500527676155189 7.999226389664446 11.4662760044443 1.525000989156664 -0.13076887788616187 0.39262802155364634
Ni 6.976663216876131 3.4037043428001943 13.679692690741293 -1.6375250619000252 -0.7678244778944067 0.31506580959745095
Ni 5.078920284764947 3.6054863450320958 2.2518158543708178 0.5295338655754815 0.4889847405085256 -0.22273106731777123
Ni 8.929586513879752 0.9201532923418803 1.5668031376937896 0.41974698925762544 -0.636522096102278 0.5764649829093814
Ni 9.16993613832691 2.926420711027739 12.316994547196616 0.3475920643599304 -0.28406447611993013 0.1016094827133863
Ni 8.43100878953285 7.927340213508402 9.171361018385104 -0.9395723692960916 -0.39762573187855393 0.031269242426926795
Ni 1.7331046027222097 9.056820578383803 5.62947774531707 0.5298411124032553 0.20911244809307214 -0.4431617686371401
Ni 2.0799712243348183 2.762219803994971 8.64302275215651 1.3059044332676863 1.1964464010441587 0.29152067528765924
Ni 7.589994508287252 5.363626397503109 12.908386780729353 0.4784535019598986 0.7446043310242015 1.042927631055991
Ni 4.448911102666146 5.674782602503763 6.295094037896893 0.8242077417801419 0.37384688429140134 -0.19753219945464046
P 2.291199688089038 6.975704610435935 5.222575370658139 0.9618085549864728 0.1408414316308155 -0.0625161162563504
P 1.7814909608054927 0.02607130311573385 1.9427844051982879 0.28721664859566665 0.7239943680833338 1.5363431536423606
P 9.236917599978264 7.05155550837376 13.217486169969975 0.011228778836283888 -0.8836089665565945 1.081403418533686
P 4.772696714844913 1.5705044753759827 11.42156957826833 1.080389632557191 1.18043357055567 -1.8692665602465226
P 8.004894266577837 0.582661469440041 8.284817584659528 0.8931230766946167 0.7683016746411414 2.0714941082943032
P 8.818927964618311 2.9087749070412214 0.8765115707946346 -0.1262157112978407 0.4653125937025664 0.7016859343941206
P 1.187275957046431 1.131788465818785 11.577141165967609 -0.5227248130734482 -0.7084116831537284 0.5168575556593936
P 1.0024045169682754 2.742340353934211 5.115019728068166 0.5694121898276581 -0.7421643541241413 -0.041696608407837864
Ni 8.10280241949881 8.879580762392642 6.485236882710261 0.5980766476418861 -1.309894014043054 -1.4549145167522233
Ni 6.415189741822011 2.5915506302055418 9.676979381295192 0.9329024134750836 -0.3333507239495678 0.2621738466944259
Ni 4.344739433878651 3.4493079501493162 10.380244709142241 1.0629770935076983 -1.6736356915796533 -1.0999194750600025
Ni 4.079140301933907 5.366604592268765 8.795366721278507 0.6220642688057351 -1.5056112717761425 0.4240170773878891
Ni 8.339522369075324 9.454093146405155 13.186252352365146 -0.47822235978569894 -1.1913533027919676 -1.008023105869322
Ni 7.854402362325734 7.421698583451707 11.545090206173953 -0.7048774447482248 1.169007845217232 -0.7047668873122894
Ni -0.031045819060245235 3.515377339653688 2.9883457563785254 -0.8414968678778927 -0.04521824840785116 0.26751299951915214
Ni 5.646778264847944 9.118385448305117 2.83427257292072 0.7660406465211065 -0.23191221959640707 0.119326183266859
Ni 2.2800686851523952 2.9704886867008193 11.303212395537667 -0.46738233174740157 -0.12038316377646366 -0.19236479632108805
Ni 5.844539704146209 4.1151857654569985 7.83098909803835 0.07689346802394499 -0.18358627879750963 -0.24978112945702788
Ni 3.1653743066784963 1.7073059905647063 6.325633563846977 -0.6556513607325611 0.16066078034958783 -0.1358421786440112
Ni 1.9645103360137552 7.11668490515522 9.293546112075502 -0.9714913294918752 0.8918645216971672 0.7777815891071186
Ni 1.2258528861203313 4.983990326609632 5.130548221713474 -0.24433553296142438 0.180531808241902 -0.4650912217203797
Ni 1.9466877017130269 8.449129243310143 13.635694516508032 -1.0446669823446009 -0.1873064079615742 0.18884752719644896
Ni 3.73342773079299 0.8423209641990285 9.678981286589234 -1.0467171800054103 3.1598955554123775 -2.7454751205739876
Ni 8.08536136640243 2.172323182646112 5.149019544061598 2.5004785569897967 1.0294740766542463 0.34239792175350064
Ni 7.040992223814321 6.874017872906034 3.787588994664054 -0.8567661353321374 0.24831662909635943 0.9366166291018772
Ni 0.8677975590474952 7.497475026520391 7.118474614072208 -2.0604643328427033 1.2831460565252482 0.8734487381941409
Ni 3.930398087106627 8.3534733501807 10.61411303723064 -1.6443973635398257 -4.273805431214201 1.1905950844697044
Ni 3.7691474542635883 7.974907568031129 2.0538543176117354 -1.3365841217397303 -0.6704819979874904 -1.5119719238868476
Ni 0.8744435868042315 0.005936845128164289 9.686636177822836 1.6967879613264003 2.21715635835253 -1.8494991478116085
Ni 3.3426513501042265 0.8766986386533524 12.573175138194971 -2.1072357846702867 -0.5827081356056159 1.296122157069942
Ni 1.7657065285475109 4.795340301922549 12.734412741435909 -0.021221885493253774 0.09897230220085536 0.6566137246458305
Ni 8.065463302624385 0.5422864552763754 10.727880077278735 0.9619422523508595 -0.31238492033117815 -1.1901032324349503
P 2.2014722639149795 5.0800371078020685 9.761227857786306 -1.5850046234038058 -2.0486061479525364 0.41985394714913493
P 8.508832741502923 6.077071567333518 6.5167843414513476 0.26447292714124776 -0.11493165374358916 1.2559317008939852
P 2.4716410634532786 3.813606317999661 1.2054382916876172 -0.6623359718415882 -0.21132462525304246 0.4168976927342884
P 6.521632284118318 8.822687935509952 0.787760436092193 0.5525634937014355 -0.34602754808628794 -0.23450903378930577
P 2.883981435617127 7.056785962930945 12.188407265445921 -0.4404456552575576 0.7168191904911333 0.4784056794410986
P 7.6146949111249205 9.226354315418824 4.14044085706977 0.12809390215716004 -1.9300525811856437 0.6417856584940624
P 6.313596072878537 3.0504159887241378 4.267093242908652 -1.5847032901133031 1.0151219216976324 0.024138030698784237
P 5.874563630127488 7.364945359448656 6.02205034972387 0.341680841081818 -0.0068190798043624495 0.16851524339700008
Ni 9.021110161771846 5.6997994385352815 8.711811605756273 0.7602098987719424 -0.6636852867806311 0.09563321052529336
Ni 3.461155581201445 9.2929914233004 3.8585156336940396 -1.5838671673652527 -0.08297644099323129 1.13969212697225
Ni 2.2200301400484794 4.9977644774007945 3.058046682125269 1.0335888701535683 -0.5351309000472848 -0.4603133407157621
Ni 3.7472670295946524 5.294876632709648 11.378335497129635 -1.751277093513216 2.216612827144234 -0.7432629865049586
Ni 5.295127917893 1.7864049821688266 7.690660283424051 -0.7294283946147115 -0.018631756168574366 -0.14293713781757963
Ni 7.298792208216501 4.9588152739811875 1.974712514457859 2.0689934533596364 -0.5996943857509671 0.3509545530742601
Ni 4.327512438531054 8.858500727566977 6.274307169118472 -0.6244836768805051 0.10165062036396687 -0.47958093069612245
Ni 9.368749252651797 7.176099890730077 4.777274758611246 -1.9057263457354532 0.754452684573191 1.817888205774547
Ni 6.11131150027993 6.681282137274816 0.924090093547733 -0.20713526976204327 0.4256049907002992 0.020638759296274137
Ni 0.7396616599409689 1.3486754996277528 7.252497101270228 -0.39336361416809024 -0.5631268710395786 -1.8427127210173944
Ni 1.9555664448581418 2.3414939521940696 3.0707151781096824 1.2437107333477613 0.24115790656439112 0.7745078034518533
Ni 6.297253229101995 0.9616032486787751 5.670709921161726 -1.9148126243074377 -0.4464664075303407 -0.38680832954807576
Ni 3.605309514717885 1.4241727369371566 1.6475373443614283 -1.0891840909203694 -1.5446704425611333 0.3588321560501239
Ni 7.239042175730508 1.6114918808383365 2.9706106065490383 -0.6734840180386078 1.2522177423775078 -1.4562977702529951
Ni 6.730897000698932 6.336165205087031 7.9689483864422215 -0.5584376930940252 0.6982612249832878 -0.6453047273909144
Ni 0.1709707160094517 4.0461009537524 6.961268741995277 -0.8515861337930947 -1.0937855942481227 0.0918976547422611
Ni 6.6378191074135104 5.266676851022332 10.271068742462578 -0.0960435585898346 -1.0560389716269685 -0.6432290758088084
Ni 5.868318727978251 6.5824712190655035 12.091231562300127 -2.894047345190158 -0.26976348611622575 1.1965515591634555
Ni 5.753425558034391 8.87888274799444 11.626179004155878 2.511704764722919 1.0978006289447866 0.5714927265057705
Ni 9.051478441522905 2.5118559996482905 8.894749080608479 -1.8719672470071373 0.24360559677393528 0.8686569732324523
Ni 7.2357940820642135 4.887366520181349 5.187227921533247 -0.20080264267579612 -0.7737462426954803 0.5366041421587017
Ni 1.2063922446984916 5.950554130944954 1.1788383590009792 -1.6352745753029516 0.508946014121801 -1.0679465216978317
Ni 9.129190711189265 5.48186072969969 11.32130213668144 1.5881213146559165 -0.6332174572090772 -1.3528360648222184
Ni 4.517223445103402 1.9419877380984745 3.7060227548337603 0.9497140857157838 -0.25448084892554235 1.3466399633138357
P 8.148350185696076 3.6294794266129196 10.553906037985291 -0.17617764503826433 0.22473729911452262 -0.29698272684349497
P 2.3142806975228796 9.315234815456398 7.877588539262238 1.1258205111964803 -0.5758795427195565 -0.03790063170051537
P 9.197475133050595 5.652678813227402 3.2331654650317625 -0.8606631563936984 0.28973812946593974 -0.9139860361865549
P 3.417711165057425 3.770692392798273 7.041472457720283 0.952881684810488 0.42561990309863473 0.6551461389613685
P 7.351394573264916 2.70424738150973 7.0916941283279025 -0.4082443879346646 0.8168926961759673 1.0374969469587227
P 5.227560124147157 4.5143662395001 12.485397500906554 2.43892917552209 -0.8895171045109133 1.2811971603289936
P 5.488543054205134 5.667355729306906 2.761614858183197 -0.5183045725185654 -0.5275798271729043 -0.9677146360582625
P 5.831696239219314 7.268470462758656 10.026875385395995 0.02233980114778088 0.8404992798513138 -1.4705370537808287
