# total energy = -340891.60580826586 ev
CRYSTAL
PRIMVEC
9.03917953033021 0.00000000000000 0.00000000000000

0.00000000000000 9.03917953033021 0.00000000000000

0.00000000000000 0.00000000000000 13.22975293691150

PRIMCOORD
 96 1
Ni 6.0428542969831485 1.9373221771155202 11.171058411615004 0.6183845059613027 0.11180596363041388 1.0788855372078388
Ni 4.630437281771739 0.007884876403116149 6.130098651067291 -0.2818952363827532 2.101051767346762 -0.6388209194387836
Ni 2.883064425686922 1.5103203699312906 4.672656578133122 0.5474886502816894 -0.8062647841484759 1.467550717458995
Ni 3.389321759986275 4.195969112201891 4.686983677868235 0.16574385129945002 0.18896451239028747 0.5835460581258789
Ni 5.234335834581308 4.570344815501056 2.693313062690413 -0.4877686087132374 0.4346236492591418 -0.09821408387859215
Ni 7.631598589502352 6.183332187824406 2.7222601315810917 -1.201811264900498 -0.21990645338478254 -1.1069676401560353
Ni 5.013843125534865 4.332207627790297 11.784733741127095 0.2907287755139832 0.44173994858894894 -2.9656733941675766
Ni 5.5789274409547955 8.11276316111106 12.295282877921231 0.5357181400093225 -0.7645936296619349 0.5869098323917892
Ni 2.0363644684704942 6.74085070988264 0.4622292980912851 -0.9806413714222595 -0.3884296672015826 -0.5679132366846285
Ni 2.626342684628912 1.6464594545436169 0.3859449493250142 0.7135639167786291 0.8561351866163578 0.3544453398363379
Ni 0.6156666607875773 9.073528526250131 4.675645834841261 0.7973320004352203 -0.680862569890866 0.6823381259951281
Ni 8.443127098725514 2.511328162843689 1.2795727115791784 1.3073275388674581 -0.3015677751110162 1.2005195426722681
Ni 6.638400647802028 0.7195096604512694 4.8362946550572214 0.388670322457479 -0.8626084530455272 -0.12343300634638098
Ni 0.6986192123769353 7.341233021810847 2.495740097548293 0.7923741422093128 0.1917724141527278 0.3690646324114096
Ni 7.765414604946272 3.808459480880569 3.7657701471777187 0.23946714912552952 -1.5056637222806326 0.21674091117260738
Ni 7.6733686386354485 3.740620437655318 12.54414776403302 -0.5712464148229194 1.4325088953635137 -0.36995243433300157
Ni 7.941018747882576 8.48810605663209 6.9916996959262 -0.4516307253400996 2.044870077948872 0.17694589066285657
Ni 6.870590055307295 0.8603653890016285 0.37618805881770756 -0.670731137883819 -0.27468149224313343 -0.020451840096448647
Ni 1.763290851437204 6.565291762844555 9.426463295434667 0.5992583266548132 0.013340682972964124 -0.7253079446884347
Ni 0.24089504142002255 5.052856224876661 1.389904938309014 0.1882929402445596 -0.9394664398458465 -0.4077877600132203
Ni 6.034926936435709 2.2150509716652667 6.941492476513763 0.7084016558513994 -1.118517035556532 -0.8407666745800875
Ni 3.314034432734694 4.534395998058441 0.37563486102351895 -0.017140773445344672 -0.7928055733197766 0.5733359503620965
Ni 6.436438257024974 5.649478238073128 4.671147939050604 -1.9846869807010723 0.4250915413989904 0.7716824181879162
Ni 5.398170965621637 2.9417919758314195 9.001656201067904 -0.8065558330263336 0.875938337385214 1.6383033348269462
P 0.1225604289517038 5.801227985929959 12.550736422075245 0.28531686046979254 -0.28541456238992136 0.6464900059482672
P 4.074645243025433 6.214996434115952 12.513758945989187 -0.6105246435972518 0.9925741183041036 0.7627537482397186
P 2.345341707048181 8.650847446935543 1.4386695046503313 0.6669145923512062 -0.8810093241502182 0.24422137598106325
P 6.355031405154672 7.589918932165692 5.82233537431574 -0.24286846149759464 0.34850120643776106 -0.5891636614229725
P 4.708291736042104 1.3283797620648206 12.968200990817508 0.6360099323525498 -0.3784671566722321 -1.8751834399515899
P 4.0828347397825375 6.132098117604456 8.087255500074772 -0.8660778996513664 -1.0179514207266274 -0.11648537138395423
P 4.745180628167653 0.8952882595546943 3.7134061795023183 0.13277330991070035 0.330505798301605 0.3133316005151636
P 0.23806306643768127 5.315842117427688 3.886702619875609 1.529650057892901 1.8234862686876145 -0.9476543749732775
Ni 1.642391823703995 1.1766300142079893 2.715763673171233 -1.0840915068888102 0.5605413697005894 -1.2789651856746813
Ni 1.9876794469100407 6.385059559930726 4.777859070415213 -1.068184605850567 0.17201451479951022 -0.09897770151749406
Ni 5.989649685600893 5.612200661222903 8.968966007886808 0.3799910495159262 -0.5485230050834746 0.5904864939994541
Ni 8.439710288820232 2.2852402015978552 10.283076520966233 0.1996919261101206 1.0300996260533872 -1.3137139020097763
Ni 2.3478636381687465 5.150804775494758 6.985918236626151 0.5694294162188387 0.3965260710564719 0.6622976624044852
Ni 0.4970635846838435 -0.09942193690000517 9.223016671360133 -0.24566659306802205 0.5771884913389672 -0.7557379790435178
Ni 1.2875045917164414 0.9925561599456285 11.134345783492504 -0.4333080157715118 0.6271077447669136 2.579697587823125
Ni 4.066925783609794 6.698194821144471 1.6858277936454074 0.621446175605762 0.3669694404452777 -0.03135306038998471
Ni 5.680057782807442 7.853076569129948 7.918152335138149 -0.9721559596590678 -1.063136501903698 -0.41840590184869875
Ni 5.448501117877227 2.989157277163907 4.718933562236519 0.11840675677638317 -0.33508416170090677 -0.15531519976695832
Ni 0.8585919019555533 7.473313514763195 7.313527032285235 1.1207559521893795 -0.780557866300675 -1.2053845840740531
Ni 4.838727098299315 4.496829167459621 6.520283879563119 0.8018748826108965 0.6427423659803769 1.1372076699874996
Ni 8.233906246694646 6.908364787037917 9.291745169862315 -0.3010705237596234 0.9031992299836961 -1.1087972371656065
Ni 4.558991605868689 0.14670859736959305 10.369904168868805 -0.3889567433496463 0.21258035203701456 -0.7524824482206975
Ni 8.258547050403111 7.210815737912922 4.846838858111486 0.8932408332194036 -0.03906585565321014 -0.3287253093624145
Ni 7.676414842175343 5.950464841845869 6.903258554457246 -1.113630653998508 0.6413506278391728 0.12896164947409403
Ni 2.4503860136865083 5.08171832547869 2.675294361988852 -0.6320319215414083 0.6311688022101646 -0.5697096664634188
Ni 2.1968912597612653 5.469164682542507 11.523551164914966 0.17685693049347606 -0.2747185161286559 0.8936640367997511
Ni 1.2965166538211148 3.224926199808041 3.8786595578287297 -1.3951942180734553 0.47074919133710535 -0.6991629108619507
Ni 3.8307952937799157 2.7329507693455826 2.7640789922842637 -0.9948580292422736 -0.6001502423414632 -1.1598341491377637
Ni 1.0656740840827448 3.3492872333447514 8.273411077409055 -0.6292080789393679 -0.516874010719626 0.07196234927091477
Ni 3.413980642054028 2.9036827944539834 7.589605272632058 0.16672524137611286 -0.14150297647421436 -0.6539091812304738
Ni 4.031808570694391 6.835400528954743 5.907296431621907 0.8929528696653395 -1.13183817814547 0.31811668060863274
Ni 0.786358913505546 7.632168057819898 11.592875345355662 -0.2840439072946398 -0.04054501130189791 -0.6228104029431403
P 0.3556673131907968 5.404887076096836 8.033555541648047 0.3556288186214779 0.5039210501033837 0.6622372414801949
P 8.318368341284486 1.7027554653639851 8.002426414791403 0.6366912746902905 -1.180301158742864 -0.3430139580709447
P 1.765198118342005 3.1643636961958914 10.372999183978775 -1.1396257925106887 0.6396755541295951 0.5111975291601389
P 4.1964933846212205 6.061122479042874 3.867096639228631 -0.8443831882867523 0.22410994994316888 -0.4090396301424504
P 6.85708552091975 3.9610860291628303 10.380712315968664 -0.4394059011391335 0.7278145131603724 0.17963346479734868
P 6.210883607378112 7.659122891517128 10.022358558587788 0.39194102278895077 0.1514634301210359 0.8120461667169433
P 2.424524920726156 8.33538007737375 5.835591331263085 -0.880949160336244 0.9807354737979624 0.13932833742039877
P 7.023758954368172 4.125264649029617 1.732582046433987 0.5309618562712597 0.07505307238109654 -1.8964670319207144
Ni 5.328804301036617 3.225983783826343 0.4420547530447243 0.8446436410369904 -1.0722482343969792 1.674565402482774
Ni 1.5636515298285567 1.1264173712877665 7.041562522594216 -0.6259803160306896 -0.2943648296046737 -0.33623447325526606
Ni 6.584084217323609 0.6417211921923026 8.945575322723053 0.6935303951665218 1.240413036433096 0.33248220530168543
Ni 2.5521581372938504 1.4628737159820109 9.336990783568378 1.0021280805411257 -1.042489515077308 -1.4900273012949565
Ni 6.275152174644139 2.0407213530587116 2.602425015291935 0.8776884873071013 -0.3050840157943907 -0.4848378082196875
Ni 4.191946677260487 6.556758777260992 10.414911148232278 0.22266781818000364 1.2682367435135835 -0.39917893529828674
Ni 8.036680386050842 7.650119868592097 0.13367861991333727 0.029161452055304616 -0.9067740918191479 0.13998191184399764
Ni 7.51661118525606 3.843007225478425 8.14585017427851 1.1417585225829754 -0.4911439529433735 0.4101917414690226
Ni 3.2327089334811845 8.649826019635817 12.52336397827848 -0.06310052800491069 -0.488303655281101 0.34784686068321385
Ni 0.06255473880560013 5.116202795819041 10.490254518397649 0.14979092751461945 -2.5515105838659475 -0.7985566168709408
Ni 8.513379602915608 2.082419088754659 5.655137668447989 -0.0851564793636856 0.3836980660538682 1.052153263419317
Ni 3.5946557647703936 2.504151054206667 11.311795726912031 0.16999002817031367 -0.45314973308778733 0.793708287639704
Ni 1.1509768223794399 3.3284428850865995 12.485407559037021 -0.5025874188936247 0.2769489481210714 0.1875087537803674
Ni 3.102336845481478 8.236744549102738 8.051362725545948 0.4164215244288183 0.08484151922642807 0.26675015321119866
Ni 5.543186524643984 7.775375780913524 3.479583392235452 0.41395043718050645 0.008390538056540388 0.9807028207878142
Ni 3.071260145866766 8.315195589229582 3.4772684583287243 0.20296211222096014 -0.4097798507425846 0.5946208278828017
Ni 3.3351047604839357 4.4480085582045135 9.70783397546282 0.8396731844055926 -0.32037308074297727 -1.5836537658028662
Ni 7.270772616488951 6.272774870397871 11.38254900165438 -1.1000868538758022 -0.5944177107330603 0.7025691083300223
Ni 0.7034316716191902 9.258560533554714 0.2530717203179221 -1.1322770654551015 0.2597372122284753 0.007380608734787289
Ni 4.67417787206714 0.11957117224356381 1.5363179545042613 -0.38364098756368764 0.1697473160318883 0.13606072241272052
Ni 5.934456454697045 5.626419290802293 0.23635918107486184 1.1496168422851298 1.1593099012031776 1.4190178028556142
Ni 7.726311113808039 8.956118621859353 10.999494781979392 0.4984098904771674 -0.13084318276752305 0.9266752016184492
Ni 0.31038735060208905 4.456414995273065 5.8936834270786385 -0.7054839679839721 0.10768217127002744 0.3206697860477897
Ni 7.697593640080308 8.721072833586707 2.647802601020793 0.4483587394570472 0.41329223477121724 -0.04587028016955326
P 8.565598943716711 1.4773092858728472 3.5435102785109507 -0.8465819957102839 1.086868041192683 -0.8560102310027192
P 1.8172999498077407 3.318897511382953 1.5051490552571845 -0.30923197652449325 -0.4367293827482349 0.6735151283868595
P 4.465752467844909 1.0639747183097472 8.179731731336632 0.40618467719215856 -0.25031129092888504 -0.07283292480132618
P 8.392028616200218 1.7285352057075454 12.340608036408158 0.528732966940741 -1.4621886818161334 0.5411722211453583
P 6.291368462924766 7.576866356760327 1.3599255951030356 -0.36229877444248576 0.1631120701035578 -0.18861972745635902
P 1.9688689140717 3.0399393884016765 5.939192984830294 0.03111471912693351 -0.11147249155039513 1.2111335707426882
P 7.002028766504946 4.034348580174244 5.986952394395241 -0.15870468506448152 -0.8349289848523879 -0.21316116424114903
P 2.5577895462118163 8.31351430181587 10.499277427517894 -0.7713214353040716 0.2564210033710487 -1.4080430490116653
