# total energy = -340860.64334479446 ev
CRYSTAL
PRIMVEC
9.41295163948985 0.00000000000000 0.00000000000000
0.00000000000000 9.41295163948985 0.00000000000000
0.00000000000000 0.00000000000000 13.77680620012284
PRIMCOORD
 96 1
Ni 7.587093295379658 5.157949303703378 12.64630920642427 0.9452642774745462 0.9947248460985192 0.17403668743586156
Ni 6.235694632269034 3.9919293132168816 0.34534143411022133 -1.3113919387448187 -0.27268297375586587 0.3144315184475617
Ni 4.815186077089439 1.9839490236438477 10.345472219352045 0.13949777311872752 1.2670067277612242 -0.5051142990805365
Ni 4.909249704363374 7.2778495901029014 2.755292417079249 -4.536969409736037 1.033410692704491 0.7230644000698967
Ni 3.553897601499418 6.243705054245429 0.6872810274422178 0.9041461672779977 0.5423896384922271 -0.5692463536737551
Ni 2.405272745927584 6.86941219882467 4.919202018294799 -0.0008842023771662192 -0.9455452990500749 -0.6805342400171699
Ni 7.0533977545833375 2.1265081785586646 4.687723414261276 1.2829642795317453 0.7471535798086164 0.8161283072061171
Ni 4.172215578920644 3.231871107686886 12.427974848275399 -0.054475248229744894 -1.0441023680903825 1.2327825164710318
Ni 6.960294248392353 0.9164600473525528 9.0797144742504 0.15526429192436486 4.1955559633829935 -1.100892380496233
Ni 8.646050372165188 4.883947689942046 4.409239352855806 1.2764087378014146 -0.4120622190188581 -1.3232005013439727
Ni 0.2303725821977697 1.5170007240162935 1.1184676406153402 0.6821046698280833 -0.7569811074219995 -0.8183798222444552
Ni 3.8702292594767917 1.8866661668564835 6.188981917697871 -2.1864327040164278 -0.09745278023253538 -1.9315433067985572
Ni 3.571038586715653 3.9145925012802603 1.4351165150681602 -1.3901168035505478 -0.6510346878961562 -1.5976940459460163
Ni 7.149701664384161 8.529979263597701 13.18824766910629 -0.037343987866096974 -0.375955703104288 0.8822336834756225
Ni 6.56946848992004 7.6953045891994485 5.643490065713749 -0.36093223311226225 0.07184047898106984 0.8822233990629774
Ni 3.095665695232783 9.904307877277654 12.823850655385005 -1.1905899422633817 0.02211251562832321 0.20381134759513286
Ni 3.7634769731850164 0.6961922689052654 8.145274747676797 -1.474904586720905 -1.1114758124390343 1.2979486687557196
Ni 8.56977722378125 1.000154366930605 7.1847423187312005 -0.9629382977155417 0.2746249279735851 -1.1269319990931044
Ni 6.253475698207238 6.518346748728731 11.072419425652699 0.9874164853625638 -0.6163852161430868 -1.3748601345017935
Ni 7.570752411065882 5.21232792621529 9.033783034678109 -1.8182291340537329 2.199399034369109 -0.494364259652884
Ni 6.976766914031239 2.8957722509428487 2.477344893926018 0.16533221768332818 0.8802989283467549 -0.5936430373505648
Ni 4.132398792833508 5.4918831815348765 11.875620954433707 -0.4985839541611865 1.4650307792506188 -0.4743790747802088
Ni 5.504468298082985 8.933070098257138 7.990451457870035 1.5879750188860393 -1.6474826873333692 -1.5072665479913785
Ni 9.170831847612924 2.5052382939761384 9.005388865592566 -0.791375011520837 -0.37044145815427815 1.4046617912442583
P 6.598093276324526 4.2852651299623705 4.198578433009118 -0.7520399613666403 0.05817378012725465 0.2769090960220715
P 7.921290735861378 -0.006500584508694115 5.178922301594809 0.0005368463400764947 -0.052709928799206 0.08274118505397364
P 3.241961792009678 4.383395152411163 3.4278901810185536 0.04525244407989626 1.2387161083466474 1.620559894800596
P 2.937377497870778 4.019000962575417 10.80817998419656 -0.5261814041634809 -0.5435088396983349 -1.057568006676985
P 6.721327641206981 7.065512223541763 7.96318684299973 -0.1844529976731791 -1.3827778466869733 -2.7086407253544578
P 4.305935972101224 7.872268082920053 4.8865776686731905 2.1148843023544805 -0.7429009751798497 1.4245024801192692
P 1.8627290304452337 0.9537014498289463 5.078999111829326 0.21987739991906002 -1.6962169193142789 2.365476357748578
P 8.619496435155305 0.8790002643945466 12.985617879729942 1.904124805576288 -1.1218245026632099 1.8872475702049756
Ni -0.06286063337316851 8.383043086098837 1.5510897289369938 1.5704028143302309 0.5208556210751933 -1.8238117703478331
Ni 7.5703476541387555 3.373884311397671 7.257993909589378 -0.32028026391885484 -1.0089574447581333 0.36586309475497636
Ni 0.7360457655043966 3.81714021136061 10.999167834794521 -0.14732781068610756 -0.5886638389684185 -0.08269130565264468
Ni 1.5784390603734415 6.40585256184283 7.172398173749008 -1.2310205394746025 -1.4002376940346337 0.5574164509183626
Ni 4.179341183428437 7.157947410155399 7.084364483394085 2.0995648983885906 0.31259240835629387 -1.097307748468768
Ni 9.17977415181689 7.04146213170899 5.560223094147128 0.5991164017603101 -0.5431236884447743 0.23121442219843405
Ni 4.974217897643141 8.017754665842693 12.25620542135453 -1.3598801161531935 0.597138709208649 -2.840222071839586
Ni 6.95794101044394 1.4886959779727904 0.20034244209049076 -0.4979090395813489 0.9173071301399879 2.426680954282356
Ni 9.251049022798401 8.14297516355361 11.723937825345306 0.07374129554820849 0.5983296441929568 -0.6017286425721766
Ni 1.5044626722271528 0.8588358390621913 7.496249838914329 -0.8186348756780547 1.6910644285790617 -0.3289014299289626
Ni 4.889811958909489 5.638151039456391 4.614279799186508 -1.727176858030903 -0.11421123063779685 1.5100487387222057
Ni 1.350156153473862 6.149311973658715 11.147792695845165 -0.0510911622488604 0.5945848324385438 -0.730329309162426
Ni 5.036493986709924 4.6053619686572045 9.634988265738482 -0.4674422384510595 -0.03997396928977632 -0.2417582591525514
Ni 6.801497751633492 2.9447384261734117 11.931803098509281 -0.560656555122215 0.18910540884352595 0.4168151603228112
Ni 8.469105704348172 7.781517814677481 3.4528674486030018 -1.0866104166559223 3.22612331619236 0.6903761658082562
Ni 8.785597382506037 3.1605774108017872 13.08330925862515 1.439578143505469 -0.4938734360593946 -0.14309114689694066
Ni 3.113192611472557 1.156390540801594 1.7813277059241144 -2.2101403320460133 -0.2802204197834916 -1.2850859538604384
Ni 7.382145095976534 5.443585325881663 6.173331944045749 -1.3904718728971213 0.9428890923741503 1.2341218041077455
Ni 4.978303118721584 4.541485677785501 6.831808397704222 0.8516974625599782 -0.43754827910510447 0.38714077318683005
Ni 0.29335652523943506 4.890292019450965 8.893630771536928 1.791555481417289 0.5373855004094165 -0.4402096279873515
Ni 2.6568621214682393 4.40515789695808 6.149305384592459 0.26497583491959525 -0.11192166327267175 -0.996648031263161
Ni 0.16046447181669607 0.8341174276520686 3.680060335684877 0.3423614120886104 -0.6152457032220049 0.8647265278297945
Ni 1.5933021112556136 3.16582042495085 7.802232897689764 -1.5410500721997267 0.8358818356839604 -0.3872114785237654
Ni 2.376120834222653 8.445827474562478 6.653522384256609 0.4525295830052852 1.7068877687645636 -5.102383534147896
P 0.3580545668027239 5.641021989753454 0.34241024092167893 0.856961024951763 0.5035466974831005 -0.8031804887961974
P 0.05926112060727707 4.645009321612055 6.639332359427684 0.1828630274782399 1.130664469552343 0.47730164774364253
P 2.2183503492092993 8.603833283370673 1.0197493086794445 1.1001997253045825 1.1811653065153722 1.0702144917964018
P 9.526189603726767 9.77996278408355 9.329556805938154 -0.4925973975604484 -0.5884298685807413 -0.05246361711635481
P 2.424352799213311 8.928438925974664 10.925971780351928 -0.7956970359349587 -0.26887979795969175 0.20326678794557249
P 9.23082058939385 2.6939679774388043 2.798524222077121 -0.5115888510612867 2.0840071531596496 0.6812392365039944
P 5.695730065578143 2.0703505081577536 7.177729669644932 1.032938381053763 -0.0744087539288783 0.2584226071821098
P 8.492553367266153 6.220888059097623 10.929016870257172 0.8466429308552065 0.008784173950533259 -0.4885872479597908
Ni 8.424017665256592 4.39383411595032 1.272921942711791 -0.10919989346613451 -0.7289673958178929 1.1386929962837744
Ni 0.7000148686286664 1.2816110385125088 11.620736104470094 0.912284480114416 -0.3489210675839991 -1.0971789362003879
Ni 2.01978413112227 8.327817297925497 8.654975733055927 -0.4763318276312054 -0.503937762273932 4.998178779903509
Ni 7.6352123049487925 6.644442650956456 1.1087600634305497 -0.04474696519838745 -0.6899863865690052 -0.7815780800350733
Ni 5.237978219852984 1.2780152909273348 2.5587528075133927 0.30754327596816067 -0.758861612274164 0.6425834718050094
Ni 2.368213954715988 1.9843161287638 9.901652483576665 -0.5405183896114434 -0.05414691835604868 0.39068323912244973
Ni 3.504630211811458 9.364983391308732 3.7797773818060785 -1.0624888410173703 1.144800651843409 -0.2115261997408873
Ni 4.6936460435298395 2.9445219282821578 4.311258996340533 0.49036002358949743 0.6587104592738591 -0.5434851855492511
Ni 9.102907987469951 8.153329410526624 7.6066571743875775 -0.02491913183918289 -0.1164573463594962 0.7749032391180589
Ni 5.5935524738580815 0.5174431382294058 5.261155731054487 -0.5284848554856769 -1.067846762895174 0.2204738958524784
Ni 0.345559814591834 2.809511960705848 5.632716001090738 0.056952763235959984 -0.8574878439895104 -0.5475670689281086
Ni 1.5799168938050445 7.363545103232283 13.331733058477601 -0.6012437325159581 -1.1395386321135212 -0.9305922772846684
Ni 1.0237432241254898 4.524815340158948 2.7918833845867015 1.024566869160616 1.172227123485478 -0.4655504207449853
Ni 5.384415510906784 1.119011709229013 12.433842882423559 -1.2182974354809792 -1.2859472734194692 0.09698946744287168
Ni 3.6833821663728554 2.8683052576089807 8.19518880715298 2.269192658123479 2.660840318041727 1.3086457434582495
Ni 4.270355014321231 7.204833323039565 9.731715758370019 -0.31060391717135544 0.433440427584318 -0.2833167993206282
Ni 2.0971774207696536 4.623114795740027 12.82296960309712 -0.7428444109103013 -0.36297060369852974 2.157504965238484
Ni 7.508466909047306 0.6623395290745856 11.343423014267756 -0.9730147081149372 -0.3969904122874002 -1.690554835932495
Ni 7.29997943976977 8.23996621883537 9.496435263107042 1.5722635216880536 -1.4624301084029783 2.6070698091884905
Ni 2.143122038474455 2.537967127362657 3.8326800534767456 0.040473534634014166 0.6396565279662015 -1.0791819854023348
Ni 6.833153508515534 6.522949682155826 3.57341441574837 0.15340075635306485 -2.4102927427323197 0.8441237639777786
Ni 4.754623145249099 8.683495094400325 0.4804634158128757 -0.2807742354044326 0.8403853799812688 3.223804438251196
Ni 7.408501360998752 0.5457676514716755 2.7648813910714396 0.7027593699639575 -0.8969691899135843 -0.28837724456267105
Ni 5.301016758015053 5.127150125434559 2.4063533527934955 0.8244162582465221 -1.926656411019901 -1.140335931203836
P 4.678387648672334 2.2104246437990467 0.7078963331654887 2.1327023043725077 -0.40787594885165235 -1.4591681498222546
P 7.1186765752722945 3.4949348714639994 10.018713834672846 -0.4444388355773507 -1.5707355150793014 -1.1207382115775668
P 6.441640604562284 8.169849140924477 1.9640632216845844 2.368472207152108 2.4413534686928666 -1.6872347704203265
P 0.7872042172077004 6.833915957610819 3.5035383094033943 1.4136200288788106 -1.7395924580864366 -0.05260399934896101
P 3.362296967739689 5.558837507643103 8.018073764908499 0.24861024907737828 -2.1569830312967433 1.5048756791616986
P 5.677054769219542 6.198889990755866 13.131280484851123 0.5004603452482929 -0.3609412319733267 1.8346713387701563
P 5.145797182937778 9.354572666624955 10.093343481673614 0.5069168995069141 -1.214517913833889 0.9019525020607886
P 2.187767668831733 2.4819977159976188 13.94502169575548 -0.7958492452421068 0.3061258267953437 -0.9198993163471963
