# total energy = -340890.152774246 ev
CRYSTAL
PRIMVEC
9.07423445097886 0.00000000000000 0.00000000000000

0.00000000000000 9.07423445097886 0.00000000000000

0.00000000000000 0.00000000000000 13.28105935668567

PRIMCOORD
 96 1
Ni 6.4147124522974055 2.056638943102633 11.365930556265782 1.5172678821784642 0.030807986519792104 0.4430843784319853
Ni 4.663984101262915 0.41869606700090545 5.710934791004617 0.0636977952692774 -0.25647988163344215 -0.15533371170971957
Ni 2.315000546607739 1.4227038495907554 4.315122435231907 0.23401229665854537 1.1544314900649537 1.8739467393310112
Ni 3.6990390831704225 4.452155172061482 4.755083970686529 -0.1822829866050538 0.2094469486143554 -0.07520271058508339
Ni 3.5136978443536275 2.7661079642478525 2.409595811144804 1.553101604047622 0.01500135850483868 2.1094947559077926
Ni 5.06678029464547 4.732721427286768 2.5020849458640297 -0.5557807150871524 -0.48735388977332195 -0.06313600922853642
Ni 5.36579446852508 4.403562646535708 11.884981304414623 0.2182285514617274 -0.2748491281692492 -1.0144768319144657
Ni 5.66506272096953 8.171184793744189 12.09499447930089 0.29519246771229163 -0.35333102372623665 0.8761730791038393
Ni 2.274928727238585 6.556506439947405 0.2729030642250035 -1.5723522247471178 0.08140935361642754 -1.2524218879685138
Ni 3.0857841699896817 2.0654863216997628 0.19526119192693048 -0.6708676634616834 -1.7227537892625426 -1.489818270607944
Ni 8.191828677137492 -0.2632798385816639 7.158717102368591 -0.9394543556609886 0.1335721516629119 0.6869306304618169
Ni 8.553064876699684 2.4175121732864824 1.5701129735237331 0.8523389527987192 1.0947968091214564 -0.8337889577106737
Ni 7.085425418069968 0.5784035008956164 4.705014159790896 -0.5356674892770451 0.578987492220919 0.22286862133690005
Ni 0.7925200446040606 7.631249694988892 2.3806036320495947 0.38613572896108334 -0.3986140639337522 -0.4203316581165019
Ni 7.892660241272085 3.953589508202919 3.565910989428381 -0.03328421597442655 0.19128364744176735 0.2547328170353484
Ni 7.704270059677203 4.0293684401666425 12.606196014643048 0.27173449379966746 -0.3073596992024449 0.4001024755538206
Ni 8.407922496534463 7.204933085889659 9.032368663072988 -0.2769911142129165 0.3804394499072545 0.022212274430981102
Ni 6.852707601144851 0.9287751195405337 0.5720379254229122 0.653009809344656 -0.3850664071563046 -1.8172780829943735
Ni 2.2890754587595343 6.5018976969755835 9.08698012831515 -0.254072300633214 -0.04485186620736792 0.1693642216608567
Ni 0.09064887997102254 5.05483860209796 1.2560219590911685 0.4270332385063936 -0.5806805636526258 -0.412333984623006
Ni 6.518875589647614 1.9906692585886503 6.724877952903183 0.0933079048262264 -0.14435124455628687 1.3709317459816648
Ni 3.58393241906315 4.411139632308634 0.2780526922802559 0.22650030455221637 0.7061658245423451 0.197659211950808
Ni 6.244507036557548 5.802174403638895 4.416283815823212 -1.0487941171390969 -0.011431381765393217 0.7950707152048694
Ni 5.41292604230302 2.894218006334291 8.890089203879453 0.6130366113858281 -0.18143349412056498 0.8134098798336895
P 0.2367222765916951 5.647912417842786 12.162182833502664 0.12143911584480375 0.3439989476920334 1.9145128336788322
P 4.326576841388992 6.213128333799727 12.421867460391832 -1.2317075382392981 0.8549023426505212 -0.8112565809361126
P 2.372685455061025 8.528437404379059 1.1737903390039384 0.9523813481353016 0.35201024803228403 -0.1519262286900674
P 6.725396091690768 7.87255173771184 5.891265237553376 -1.9238698494136994 -0.19495646830766425 -0.2936842585978813
P 4.91368888509452 1.1179003141265624 12.550374953947557 -0.898870006480723 0.38715285737168803 -0.33537958145413854
P 4.184746556801158 6.123601936631233 7.9254327464427465 -0.5077813043897383 0.9669602743907412 1.2693032371048851
P 4.572134700073019 1.076839403201422 3.5911854546659048 0.4341109712887814 0.9370323764830572 -0.9186996396121405
P 0.5147314125465497 5.725742126794152 3.3683957576619354 -1.1715619790976532 -0.4451263485626786 0.02723698133908212
Ni 0.2631655032274856 -0.03965894170128773 5.189639984674166 1.3593345280623685 0.2501567676288918 -1.1687517633423679
Ni 1.7518263334039819 6.896327446187316 4.685119808163874 0.9666378580543158 -0.6488775323438374 0.196943416830706
Ni 6.293807352371092 5.847445759352823 9.126504771346449 -0.306012441145931 -0.8446405557131969 -0.12710017078532304
Ni 8.8366710004686 2.5680809456579423 10.005046743771095 0.30819222240606925 -0.1362252730150428 0.8188361930555833
Ni 2.337985582491359 5.320759042907074 6.82193596467231 0.9059644514336591 0.4698264224125199 -0.4047116921910578
Ni 0.5582886453712497 0.35008759510636334 8.996058113886921 0.5926626757151664 -0.5052395118044911 0.20989612033663205
Ni 1.6518373439047278 1.2560192368208312 11.049695300230653 -0.4630507942515832 0.43568500064412063 1.0707773062784076
Ni 4.155391408327604 7.04809401750731 1.5254622954467723 1.3954292169023967 0.33736730130812864 -0.5570354134298601
Ni 5.692122088125059 8.17014125678145 7.835174058553442 1.527288756749576 -0.2856451903434887 0.44808106031562833
Ni 5.422943997145309 2.598307220639521 4.812352371778165 -0.44968877112238037 1.5412819857048745 -0.4343637107295358
Ni 1.3088675783076862 7.5616049455191785 7.111250689339128 -1.5560285478864297 0.2364381324912186 0.15621225765993096
Ni 5.412045841560537 4.6502366360581435 7.123867504930359 0.18753986412861898 -1.1551205457121785 -1.0370801711362783
Ni 0.7654162136996843 7.4496924119413315 11.053321364320306 0.9689477371344152 -1.2434826764973552 -0.32021315812634527
Ni 4.652115002591073 0.459628123796734 10.215285867095382 -0.0426268335315911 -0.3237800495419972 -0.6040452065204952
Ni 8.23510370127053 7.060598312591253 4.7154404551838205 0.9511791002970844 -0.35126205701234986 -1.015469277734722
Ni 7.344503886097303 5.943986539757811 6.883718797407098 0.9697224105169105 0.97156871969703 0.10877386167230944
Ni 2.5571646416042535 5.477979229136685 2.3387015395901423 -1.216887185397014 -0.8199317401126072 1.2102421692766705
Ni 2.4331743019620165 5.295986382835111 11.48572587731781 -0.28302240800866096 -0.37238855457831993 -0.9349850070357253
Ni 1.2972797809040608 3.708494435476278 3.7875990743690764 0.13096068218199378 -0.6455885771799204 -1.4025326607163975
Ni 1.534625457403061 1.26784296432038 2.149380341539808 -0.27366616360474155 -0.42402581913863746 -0.9522237395115148
Ni 1.276499783993879 3.4311404592493338 7.95141046485081 -1.2891670659083474 0.5570500687178793 1.3095751972510543
Ni 3.618940815604408 3.2122608498735734 7.2285487810681515 -0.3408632302765291 -0.8852606432274045 -0.7068839336552923
Ni 4.353754173592482 7.0072236655058 5.840638268661985 0.20077564609260262 -0.6007570226875266 -0.8881317941276122
Ni 0.9876578269423542 8.86469223647674 12.902442547012786 -1.9631740463299607 1.1273523744599745 1.1756842287961429
P 0.4259010091610296 5.624410150595026 7.881605101431179 -0.5115433425353318 0.045697759147430975 -0.12377830550094167
P 8.574852113634769 1.8212986724189821 7.732750451948948 -0.1341377943583948 -0.46686322601913793 1.5831953381092088
P 1.9064785112818097 3.3378482547805226 10.262433774495348 0.7635086241278722 0.33207725655378295 0.17299950442059883
P 4.150881513801682 6.389939792225443 3.5701749722004745 0.06627558329878264 0.11726621541403676 1.8006602719320344
P 7.038248473119735 3.9416115187175733 10.400769571393177 -0.43244412510931984 1.0146640082246074 -0.6357091132826794
P 6.469148784814515 8.165930811992663 9.955668389541207 0.6878634266887315 -1.63188431867448 0.4355369051020305
P 2.431713350214183 8.698606523181082 5.6207169371703785 0.6547342482349304 0.3043345392228759 0.01809259583565271
P 6.875556523511592 4.1747376761933275 1.6162781413318332 1.4606617036486458 -0.49878758553156033 -0.9752441116660882
Ni 5.32388965379529 2.8373860759201133 0.6769714652786544 0.7093529640210751 0.4823278973136403 -0.29656440835915376
Ni 1.4633927169030936 1.335300823285572 6.767323592006704 1.396159667310518 -0.6866532084307142 0.5471142976614062
Ni 7.009519446823824 1.0479742633886324 9.309132814060124 0.1320397741787855 0.04821126959790407 -2.021456584120938
Ni 2.784446992088672 1.6208125362907928 8.97555215885739 0.23769077395139707 -0.09357658510658079 -0.18402465188650888
Ni 6.541742660483273 1.975097872257702 2.615119962244405 -1.2817748872093344 0.03399358333662533 1.5658889856202773
Ni 4.472145710573765 7.082621479622262 10.17135205354065 -0.8208835625029153 -0.38258040750965727 0.24844981224011406
Ni 8.065388294191434 7.529200854267537 -0.09531485132963188 0.9259018137875343 -0.16136654816736082 0.11545281635438182
Ni 7.7125548357379 3.7770321283420434 8.2432079000655 -0.12978928758171196 0.8573762581123106 -0.668249766222862
Ni 3.076655490124336 8.589652190036738 12.177682533381388 2.3117284746031608 -0.27013243941987025 0.009931143070782895
Ni 0.11389434638360435 5.076743804081007 10.083883692747365 0.1776873968145714 -0.9283677588295238 -0.4663353785401259
Ni 8.729449846105846 2.420161849748392 5.696777170402319 -0.2943560878539253 1.1716859062700273 -1.7228718028976457
Ni 4.040929014866892 2.5443971937210104 11.09528879126786 -1.5269390867196413 0.5597317293151006 0.39223335721838903
Ni 1.072383954082252 3.350470514912428 12.572913537495813 -0.3195528988345271 0.1032814710991705 -0.522044756287288
Ni 3.4634719566253067 8.424655384876111 7.611003263064876 -1.826493173834738 0.2910488778575633 1.196079247512727
Ni 5.7499884812675175 8.28125525772694 3.2245083441223383 -1.2119023305879129 -0.9316837105766342 0.8233973300637045
Ni 3.0660567842766975 8.610268850726664 3.244085097543311 0.6073575587231798 -1.8333161102938424 0.33131852401088746
Ni 3.9932711354903527 4.507072439004896 9.679860662866005 -0.8459793291292785 1.1386269189325293 -0.6349953750451064
Ni 7.188499647285144 6.280223223386575 11.32021728533372 0.4470647032359719 -0.24734500921170954 -0.4910794182540253
Ni 7.916271399333349 8.788577557838048 2.585264823452183 0.6859865213809928 1.3298303479556643 -0.44278715890654063
Ni 4.583069152595626 0.3535476007054255 1.2954649340123419 -0.7171508627989391 0.3466613250155449 0.28884261423486385
Ni 6.131033734652821 5.909195924843559 0.3194330162583391 0.2642109317291127 -0.08357602225044317 0.16058159037222022
Ni 8.281037476099934 9.066929699855438 11.04115553818167 -0.9045649999829712 1.130236380875989 1.1721080814091105
Ni 9.218242559452504 4.9335886812622185 5.629575204848859 0.08123323304987945 -0.14929804703860095 0.053267601074888905
Ni 7.481089263168069 6.408296968535179 2.3512385019181363 0.010122433145982566 -0.3717761178053017 0.25448701957312947
P 8.985905860374647 1.4685831790134098 3.6350920455172604 -0.7890923861342474 0.5146752032960943 -0.5345061219790923
P 1.8895822867199066 3.495866973642489 1.34735049922314 -1.7142015288171575 0.4335725822868081 -0.014018425766279081
P 4.615427872674975 1.1972544944669723 7.838840049274715 0.6686544578604484 0.37829720675327105 -0.15339201460231647
P 8.690285450182552 1.6009490370609292 12.759977066012851 0.10220237910237882 -0.15870134263037183 -1.0654767200011004
P 6.351936898312848 7.961715165501991 1.0870869361755129 -0.24505955561164247 -0.40021997496829137 1.1507175315484761
P 1.8494378734750838 3.3457337645250416 5.797779751890597 1.2801736041604856 -0.29235705514602556 0.07700711078367384
P 7.0144649046037575 4.096354438939987 5.676072489638143 0.23995360184364478 -0.5204383310321166 -0.18083828373872726
P 2.4847885475625024 8.52436307310715 10.051119354387717 0.40566222902978527 0.1610652148768581 -0.8174490829000697
