# total energy = -381175.5701288688 ev
CRYSTAL
PRIMVEC
9.14580423032272 0.00000000000000 0.00000000000000

0.00000000000000 9.14580423032272 0.00000000000000

0.00000000000000 0.00000000000000 13.38580896314200

PRIMCOORD
 96 1
Ni 5.3095874177704045 0.782816809346364 6.282388186286212 -0.312098756549327 0.8616810561352514 0.9751132425151786
Ni 7.828378446957675 1.8483029856557749 7.956363914791634 -0.09227766378949914 -0.4392950865928822 0.23469826698197643
Ni 8.122598964484489 1.649262851277906 4.007885242624219 -0.1184178125199767 -0.8924306786132824 -1.6823378473393413
Ni 3.466817643588168 8.167449987734457 4.833468746468784 -0.8756125786146791 -0.2938470094279907 0.13298336903897742
Ni 8.06608704102169 8.973991012886371 9.298063434958026 -0.6097363433680015 -0.8612323986336072 -0.3162922258053843
Ni 8.412447787657003 3.102265892620845 11.615762925910378 0.22561121707904372 -0.45122243415808744 -0.4961349784000617
Ni 7.936472705479572 8.512548613405556 3.0558198411378434 1.3768774220421383 -0.11876054057137612 -0.7226807914782328
Ni 4.602287512782726 5.307803985973149 1.0586871855500253 0.28318978682446067 0.1901526191611177 0.4453891153057619
Ni 3.1324470461128717 4.573350188646734 12.435724503981746 -0.6288972325671685 0.46197504468890116 -0.38309591369349505
Ni 5.9889926202881805 8.034817536843134 1.4029261056368056 -0.43091560427993525 1.266479651613161 2.286952553210061
Ni 7.032236201054377 1.1551607853970827 1.664123868341298 -1.4933152280176087 -1.1420642267488523 1.8340645584240929
Ni 6.61315716611146 6.651496376850422 3.951316615176074 -0.4689697308391794 -0.577076134130819 -1.5324980688646574
Ni 6.254056314380879 2.315900511288146 13.242700869408273 -0.14292891028746355 0.13714109996109286 -1.732509840208042
Ni 2.8856292311767167 3.4551293059630743 1.4689322883238671 -2.306486509477931 0.21266494133102085 -1.7891612701534994
Ni 3.690194762645516 7.921062025590461 9.888578738378921 0.7595846064831175 -0.11792956002964851 0.5459966391171952
Ni 4.425883243523876 0.5932590446474446 0.6699786222437664 -0.5448123890011068 -0.3802389038606742 -1.1185270628588608
Ni 5.791543855821709 2.2478374372615826 3.979225950932519 -0.2664454774865863 -0.7365904595807895 1.260173506889475
Ni 6.392240268353917 6.85023469969337 13.09589882424265 1.021705488452421 -1.294002539623778 -2.0145560003463627
Ni 5.137975549853926 7.061255837427165 5.788961080747119 0.9790763409279847 -0.22198519029068223 1.5453630977527837
Ni 1.3874550634407115 7.6520839273478884 9.786953307088817 -1.3015610686973262 0.8448331313399772 -3.1231010122918472
Ni 2.7476007558731834 1.0375274532108885 9.633338552457673 1.5029836043453084 -0.44723516737556523 -1.0322197577201837
Ni 1.49529323944813 2.252483505738537 3.9232737506799378 -0.9335711574073341 -0.3308721805020882 1.006316921811493
Ni 4.992356057156943 6.769404083159271 8.247143780820357 0.7175121027930997 0.826625607193015 0.4234056690561353
Ni 8.530949971231603 8.618200942235825 5.50488691827608 -0.342522620256823 -0.1390419165282315 -0.6517749084962904
P 4.909595675960173 0.4764808451435243 2.7421763794682983 1.4404065529440353 0.5382951567078793 2.0579515937231783
Ni 2.3881523635872393 2.1508827681194704 7.0888972011238165 0.16183191783955356 -0.041693265973728195 -0.6098648985260658
P 0.5605316992971819 7.028596171027157 1.8086504374497054 2.1282715222946638 2.178437601626093 0.539658098493677
Ni 8.485787990642626 8.475343482373567 0.5591012955377417 -0.3140275981409237 0.7138382534859383 -0.6051512951004804
P 4.603988632343186 5.9703077425353905 3.3030684234465664 -0.015581656488340907 -0.5145924137743009 -0.44899740148231065
P 8.346662018848473 6.762983728689149 9.770810048292217 -0.21121638180995236 -1.0092533787319973 -0.9043071183358943
P 5.899391177633217 3.998755900983086 11.834393372645797 -0.6952437783132027 0.17704410680361768 -0.13260490265363611
Ni 0.3255842234874816 4.91938168633486 1.943164180242031 0.018704261277722626 -2.8583969429763996 1.5150338506416232
Ni 1.119903710635943 6.715818817004792 5.6032729057580415 1.6500964708071324 0.08811504777137728 2.0996181202240294
Ni 6.160522175967864 4.301692369806233 2.873786329462527 -0.4628309649312933 1.6426443854044614 -0.8139181869286756
Ni 7.676933077056323 5.217919023391441 11.362704014264237 0.07597121331999174 2.005737887834101 0.26709442392449484
Ni 3.074791897139013 5.522867569114057 9.720372767904998 0.20467986624301526 -0.09111938181533984 0.6253018019064263
Ni 4.652946121628887 6.216421330556732 11.650378879804913 0.2536480686116019 -1.4423611055672447 -1.5062453058157157
Ni 7.700062815596121 0.7060213215761078 11.346293697988253 -2.682462010076561 0.12924164260835805 1.3542658552902096
Ni 3.4920600628724086 5.476873320353027 5.220424973711689 0.11157919233158847 -0.3435986269298212 0.9004008413029525
Ni 4.193689569325222 3.0831877452922494 5.969200185660274 1.021563820668234 0.4131950470717206 -0.18230869763666668
Ni 0.5172007086867207 1.022766125412061 2.079766824688168 -0.3371718974678709 0.03779675913279942 -0.4779002005595898
Ni 9.049233543122401 6.4282930280707555 3.8798769102800392 -0.817124095460483 -0.15397205547550258 -1.7725863965139537
Ni 3.4377065491744956 8.635632844828493 7.478745331619502 -0.2548143210055612 1.7217142922544346 -0.6037718982544504
Ni 7.115636788537343 4.38459908386842 0.5141332059954403 0.6289509686232393 0.5916098089706199 -0.3982479388435851
Ni 6.651542105870864 2.5824824088595344 9.981008063658047 -0.7892044862320795 -0.3477296183790592 0.227735205400582
Ni -0.08757290330813623 1.8665214274000523 6.007805539298211 2.399265024163249 -0.695402415378254 0.5470667322529223
Ni 3.7805278696275595 7.382895475611279 13.302228164479045 2.057954936157288 -0.08365701200002368 -0.246530226619898
Ni 6.329774426429512 7.558458330893987 10.609726305336988 0.31304466540236414 0.33109483803585554 -0.511121424506565
Ni 3.7083126005448204 3.575296025881781 3.529168248381059 -0.3247647820527697 1.0189304968104451 1.7801652373024761
Ni 4.085833101709626 3.185940854226466 10.376277826817391 0.2807757780663293 0.6923507730361237 -0.6760630916196937
Ni 6.3388836473016505 8.82156704194755 4.593353891349087 -1.2717061901194227 1.327109863700708 -0.4525403816385625
Ni 8.93619140458863 7.8065108293820895 11.541632525451508 -0.7867822499438321 -0.5374888587565 0.046040744309146515
Ni 8.55996960760439 1.8771397059467927 0.17646920446787737 0.5324127297851734 1.0030863306893372 -0.09749546054501274
Ni 6.434073176254683 3.6972919066181866 7.639040181556879 -0.8219078900023717 -0.6068317681266968 -0.02951369318840079
Ni 2.563605469220885 6.641737803888001 7.619992215381775 0.7945217846799348 -0.6143712710368516 -0.310725016130252
Ni -0.007601992358355214 6.204540931045779 13.174325923462291 -0.113101799623702 0.23381792125955211 -0.501272299626627
P 6.985720641460302 8.957876106082447 7.284289074250785 1.0875689239144495 -0.47093328232345344 -0.4804170534441726
Ni 1.5730234283962303 3.203016070459682 9.016479674940282 -0.2623484245990772 0.7051903480029532 0.2351245558861176
P 4.863272178251957 2.317885150775349 8.512691287949337 -0.5266359752023962 0.0783001185634845 -0.32832267460735715
Ni 5.108672393554395 1.0180560363064872 11.122375147328865 -0.050300033806132724 -1.1785862329342862 -0.19233677129663004
P 1.5923119292188614 0.33643663461888723 5.958184064635684 0.6749953124768118 -0.5577190697604459 -0.15397385524771545
P 8.26330716038595 2.8364705342010677 2.048979304385075 0.2898273467456363 1.9068820566064513 1.2550297579050063
P 2.0957975900944783 4.557518801769554 6.736475530119062 -0.4773931790161842 -0.6485754277223863 -0.02823894024103524
Ni 4.235687101699581 4.682825463585994 7.686787680961674 -0.8389977556051228 -0.4003387599343428 0.3819525441176712
Ni 2.7906226183054534 1.0222265229708398 2.594357320888033 0.6111064842426508 0.8502393899572132 -2.671003631727974
Ni 8.094539637540993 4.052551520631601 4.0526338328683975 0.5946074581463631 0.12388089251707697 -0.09963564681646712
Ni 1.3377567640238415 8.767304986290522 3.82893020860509 -0.6050384236717 -0.736881508458647 0.4976375310875172
Ni 5.885681617304566 4.912778415782968 9.743035155855873 -0.4769625192366689 0.611574939238637 -0.33570276912151215
Ni 3.996323117095547 2.4152513811014433 12.677967587712837 -0.5331786614169205 0.8714967566740927 0.2876264824395756
Ni 0.9090051266769346 0.6563559470539564 8.224602117483448 1.0627392664652793 2.528687929544477 0.8268408085276147
Ni 3.5957917728440933 8.040561101810708 2.1365622680777085 0.16129892815421898 -1.9472717732774074 1.449029518726356
Ni 7.451223777956409 5.75057979930935 7.788787175638999 -0.24365933283000618 1.718399883169221 -0.11129328566005349
Ni 1.0656965298034462 4.880265082248377 10.963566490555868 -0.4674005865798466 -0.026841288562560225 -0.3946319393575526
Ni 7.771683607413109 6.4524470966684655 1.715472070815732 -3.28741944399868 -0.6720647690935782 0.581016863946122
Ni 1.3359733322265854 4.361332158267294 4.561000609386043 0.5990305269147231 1.1143773023565453 0.24838347777855288
Ni 2.179189031773356 5.8664205538942005 0.8497951910080321 0.8033645797825454 0.014885401752264684 -0.16816685891864586
Ni 2.839360608293031 0.14325530234010694 11.939472259559718 1.338610665251456 0.06042863759970238 -1.0798700126082952
Ni 8.881984223756133 4.128397673937472 6.369195585792141 -0.06351139029008418 1.1559882930291123 1.2333188485904758
Ni 1.9293439556839096 8.37762971149211 0.4957098982395804 -2.7100093235672102 0.42499923879550033 1.0215964736783827
Ni 3.5514163314067266 1.2981005574961366 4.670884701768057 0.007506592789690298 0.11731712325663021 0.7370049214103888
Ni 0.6200141799279214 0.7572259349263524 12.11724931401225 1.7087633885207216 -0.32219702132559347 -0.2212963917537737
Ni 2.0698509438954242 2.4119314542173207 11.247827227430314 -1.2610402257651443 1.3173867228756733 1.208737045486054
Ni 0.1619996278194729 7.989170828637468 7.536772714819762 -0.6232174085735718 -3.3120596111448637 -0.3637115956296123
Ni 2.0689089260743097 7.047674318355753 11.65523804551713 1.4016217188663538 -1.5709617721574944 2.5587788353925864
Ni 8.393973263398246 4.0732027462634175 9.18945152392472 -0.26624133189558025 -0.7289658531559963 0.6906350758965976
Ni 5.448804847605443 0.161908169778588 8.817191689271615 0.05052603377400976 0.17779949691240346 0.14879796747373084
Ni 0.7203976110228094 4.085750789472829 13.202704438968476 1.0144588341923366 -1.5602490137256806 -0.25988993575625563
Ni 2.4182969338629112 6.3530687894429025 3.343534033636103 -0.9644809596123131 -0.17289768873541192 -0.5719547537438537
P 9.068576918769564 1.7603386419326512 10.022289479572278 0.9447593128136696 0.8228350298023313 -1.0403814675953695
Ni 0.6602502304348365 5.66344772375828 8.26165451358716 0.1934148348521572 -0.2863357886526101 0.5328505886535404
P 7.024837245546787 2.554395644503773 5.833709670991297 -0.6610535055847389 0.6074331491561217 -0.5623036038073349
Ni 4.913912495489941 2.6616210516372623 1.8339495607192942 0.8942361072531374 -1.0026857528168087 -1.0651321921774883
P 7.784121900973459 6.079014769931216 5.6213569041822185 0.5887980505534376 -0.35232443683859327 1.015233250464516
P 6.17085693458786 9.270461398218954 12.8470972843997 0.5575100390734333 -1.330279262567625 -0.07552898357625057
P 2.2340181272838704 1.4733798928521011 0.26362688827039604 -0.45146154675208705 0.6834012771523198 0.31759011868120146
Ni 5.98790426960165 4.729130669686033 5.395029348725922 0.011894437444740806 -0.4746575252525761 0.20187453558373622
