# total energy = -340861.62950357737 ev
CRYSTAL
PRIMVEC
9.33052434909943 0.00000000000000 0.00000000000000

0.00000000000000 9.33052434909943 0.00000000000000

0.00000000000000 0.00000000000000 13.65616552876362

PRIMCOORD
 96 1
Ni 4.260149539902598 8.80444154258002 2.713588977599294 -3.3046754028656506 -0.8891126699836428 -1.1051573264201742
Ni 1.6375537033886696 0.12114473102582532 5.438676893599524 -2.112105196947446 0.4516497515034931 0.7734559651485712
Ni 6.926748129985834 2.392010584402341 7.671337048282182 0.25404401849843994 -0.3834234722362429 -1.663414270961961
Ni 6.438276511058717 6.790149251221068 8.909473390836796 0.5294117381753205 0.2864795133193259 1.5996138886765483
Ni 8.686186474993637 0.6833918741677729 6.727696318494013 0.38408810240343527 -0.8653808735843419 0.40600032909549433
Ni 3.553903479010344 9.022673180245942 10.265176208269265 0.12939256636392554 0.009129473105093955 0.16237082106215905
Ni 1.375916465721813 8.040812755977155 7.965873715356454 0.03496031812526882 1.6913590770013454 -0.6632785382605157
Ni 4.657405951261112 5.21887959392153 3.125445793704468 -0.7033597225521178 -0.45038039787276624 -0.3954816889523576
Ni 4.934802444818249 8.434187669141263 13.603957913431467 -0.0483285119020587 -0.8514778903500045 0.13766817610915646
Ni 4.1674414484130695 8.502505769572656 7.968099978503536 -0.10224454519422391 -1.2380828456380226 0.5769005277849032
Ni 0.3942501163627485 0.45310239968301874 0.02655653884837943 0.2777071664433346 0.23871124479611147 0.023224517745579355
Ni 1.2006239018315368 3.068520263694644 3.1291192212023975 0.1594644460486415 1.3554346787873301 1.495900986466914
Ni 6.423935494893318 9.118870887900636 8.109086069890923 -2.122350014603906 1.9653653975543248 -1.1903117489013306
Ni 5.743506995308583 4.587137771208008 9.116555984770748 3.985748803215742 1.8434382863295091 1.7124552355500122
Ni 8.194626452455104 6.471231923613167 3.453220588225716 -0.27136914004044876 -0.12290490175705285 0.33424263963621786
Ni 8.245244547899015 3.554565946250255 9.148757490945131 2.2274813944276217 1.9500069128203839 -1.2243960921795494
Ni 4.630515379635426 5.115170814039675 13.445137457503714 -0.23800136321328041 1.2712683312510558 -0.679290597418056
Ni 7.108077543231356 1.3629377061342591 5.24055346929603 -2.3051186825961265 0.36701880562597433 -0.6659242034134789
Ni 4.650855923058049 3.051361429128496 0.7657999996553605 0.32358413148110726 -0.9102327397917097 0.48925984854678317
Ni 2.2139095326358222 2.172827233236829 1.0359252154651344 0.21670388728708487 -1.9052103253309833 -0.7909312391151991
Ni 9.057140137770329 7.735975189848491 1.3077597833643688 1.1556041702168165 0.7597211320609819 2.444393798181087
Ni 9.161716656431224 4.7373125631286985 12.763789901255159 0.6669626719803222 -0.4351257857065409 -0.2572476130374021
Ni 6.639489272026077 2.6914830989401763 10.273260174701083 -1.6619178889220927 -1.4891531262201192 0.6920085592053566
Ni 7.529266749947221 9.051448517821798 12.999045080881894 -0.39769849409801833 -0.27546336471448046 0.021394149405059928
P 0.5296957422985981 0.5367729451362397 11.335601038094559 0.7974746966606717 0.5982355418172536 0.9323943634904135
P 2.594333677785891 4.2819643061971355 12.869256551953905 -0.43486764694914787 -0.8772825101179345 0.8905959393973888
P 0.5711783211988898 4.254728505164735 10.669549010668346 -0.490059204519627 -0.3305479643934501 -0.335502480185248
P 2.249561466772446 6.5223631979048955 9.10178016616338 0.9658012210856335 -1.1767988020165605 -1.9494667240461974
P 3.4313563701512986 7.343738600674094 12.236976357976399 1.0152134529701742 -1.2896370635662304 -0.35721158972756545
P 9.213715669501992 4.280695354864348 7.265653307190037 -1.3293567507533557 0.3826701390099861 -0.3810685988508211
P 4.062454386673921 0.988345138800309 0.1346012134680756 0.6590845547838262 2.3047345597838307 1.143686592843624
P 7.655797992770239 1.6227648220469926 0.730194718141266 -0.8497439383780333 -0.9305249143818426 -0.273445048732871
Ni 2.988846914939703 7.512089254332062 4.802490942063894 0.5066721304859596 1.3568917229488309 -0.6177949520064198
Ni 5.16094636726508 3.243308979261607 5.129474508107051 0.47334960507442986 0.4839644044757988 0.7806018321647331
Ni 4.780792807325679 1.7100052261761287 7.981018089681801 -1.1187039547563573 -0.9851480010433615 0.8805185005567288
Ni 3.929027886241124 6.089912048110542 7.570650425287751 0.03189093517132573 -0.08435995160431922 -0.2927126387132314
Ni 2.538145259212024 6.585213610975897 2.421975563852686 1.198458289267865 -0.15732708799066455 0.9436617088741168
Ni 0.23660530652272338 1.014283996926405 2.56343937809477 -0.8097105766052313 1.1693081500664702 -0.9641860540797136
Ni 5.917465294194532 1.30932451232399 12.390239553508504 -0.07684821660830636 -0.5307042317344989 0.877137757009954
Ni 3.7386012116024565 0.301314360075278 5.983080341676598 1.3339217444162188 1.230146107289449 -0.6145126817107224
Ni 6.609025109514674 2.9200436272340076 2.7213874299812333 0.4756815956417163 -0.3431129455426542 0.8186526162898674
Ni 8.095993477904399 1.8202920258345665 11.85856387390978 2.075087739182833 0.24765894090770246 0.6682253407428298
Ni 1.6623262459515422 6.2963125807031215 6.374521037110653 -0.9311946867553575 -0.7501424872336114 -0.04213909526189517
Ni 1.7737513695996858 4.468649440508981 8.041883900190422 0.6156593937206558 1.4642103402318525 1.7507860128094106
Ni 7.330545239022906 5.671251413535746 6.84354131160055 0.7755850956764321 -1.1560625979104735 0.8729322035690386
Ni 4.3736180484175105 6.66397256832927 9.9695198782543 -1.7677694347412845 1.8929109391383399 -4.552918733976443
Ni 7.380864757682631 0.22259365787237856 2.9676619590493067 0.6783138353270834 -0.14811971045978362 -0.410776410327899
Ni 1.3614634832623442 2.520109355342332 12.356781225683193 -0.3550081543183434 -0.05433075223208062 -0.7025678227784415
Ni 2.5877929801073325 2.015365301677117 10.050022710637805 1.4690728105304764 -0.20536866477992372 -0.1649774054470707
Ni 2.5248959144138023 1.1260450194567575 3.2554657196402013 0.5578447967050328 -0.7968810289407309 0.5624902658968441
Ni 0.566379632445562 1.9743483159496649 9.126005939990213 0.4086935596569413 -0.9555366059348319 -0.5868141873541894
Ni 1.748960165987802 6.659540569189019 11.059323274425665 -1.970168732480239 0.5926871011951986 1.6953188329800417
Ni 2.5032957501828985 4.308798894675787 1.4668228329292743 1.2936963212372687 0.7413490573116974 0.12296198024723337
Ni 4.000593009200533 2.4432538249881395 12.04309925537549 -1.6415904902186502 1.929173006794168 0.2178277164788829
Ni 4.017929123732291 3.8117898458258725 8.487307278205176 -3.938478814485185 -0.8282641712377027 -0.13667624450953236
Ni 0.5111233332698232 5.366021965377838 2.278217373634628 -0.2091597563912398 -0.7153305217607487 -1.2070599148939472
P 5.927812845871453 7.35835020205016 6.940855883038587 -0.2835039756307698 0.6788218853117536 0.3361295722462856
P 8.906461497526328 2.036573583878778 4.48390671418085 -0.29197756031941974 -0.22162754984094732 -2.2636249342277144
P 5.186651962278532 9.065929491854783 4.517213887509167 1.6523238174757542 -0.05422225167867435 0.31111428114887063
P 0.150373532092663 7.785231028714557 5.840414755878168 -0.13456819702759407 1.2280074636798914 0.18959391844417026
P 2.594305686212374 0.6231064222834132 7.887009323076165 -0.6013419486567192 0.19972586467184958 0.9915616178791891
P 4.967375305867962 1.4053356094885687 10.391727978246195 -1.5081810893858478 -1.1754574574973176 -1.0380358501813285
P 8.231435371630445 5.721598923768989 0.7550344404805801 1.4800583630077029 0.8196540609711883 -0.7915002242447917
P 7.708870016159172 7.41894262819076 11.28297034851475 0.22102385481867742 -0.7870087641323414 0.3873760291260877
Ni 4.168766382892892 2.9291968717741876 3.13840495919056 -1.1029454063705197 -0.833127669977591 -0.9481904499824058
Ni 3.4231921612087324 5.138021268554355 11.000819952721914 -0.548471840130565 -3.630716994748315 1.4688406399150122
Ni 5.916728182758574 7.3705545281037335 3.1015335255010297 1.2038383226328557 -0.046254145871533245 1.5946390611697763
Ni 2.5202679742589305 2.6286046942956576 7.173051583679875 2.189034660415649 -1.898225666483034 -0.7037207054359622
Ni 9.326633677071062 5.999182027816239 8.864517990715449 -0.05959380040323284 -0.4291543986144545 0.13993331799424932
Ni 9.302029083949293 8.204348858990137 10.011416732442648 -0.390455696492676 0.5276988692492718 0.024009218430403812
Ni 6.7129391609356555 3.6630519546790747 12.974340651147914 0.24969602594238932 -0.23583623724116157 0.6089688690743577
Ni 8.70504346501984 4.44542576501407 5.160419192630503 0.08209815215333602 -0.20524987981387235 -1.2900116732968299
Ni 9.095749848175288 3.0356954784832744 1.2083729024335952 0.18372640391979972 1.0663930611677828 -0.6116191622130112
Ni 1.8898137639272075 6.161598467888527 0.1306609329692805 0.21011260722281233 0.6663304377129621 -1.118005643137752
Ni 6.641737928431973 5.017414908792514 1.7885477153609677 -1.0152764449976257 0.2869099159885252 -0.46473229571906416
Ni 6.7954676501893685 7.502553458287144 0.9579350933310383 -0.09345060105167777 -0.8783294633252098 -0.35036062824400305
Ni 2.7248117324748584 9.19044534138455 12.691302922474577 -2.497217626850338 1.315080957560632 -0.3502557272350226
Ni -0.06403725578813776 7.329182982445061 12.86563724149811 -0.23539117928394301 -0.5330583337889723 -2.506196690420497
Ni 3.4478434069530293 5.337190644654948 5.081964410376019 -0.9778802637373548 -2.219270833592372 0.4824690508771948
Ni 5.710169031249396 6.162876749745819 5.212708385013401 -3.3684405610377537 2.7425414918669606 2.389289143897459
Ni 6.7784394429663015 9.198609550327117 10.376146002321528 0.01632316264005576 0.5407647012942944 0.9239709153134088
Ni 5.620829259106457 0.9481772308028832 1.8397041820688624 -0.0668024023365301 1.1691142888881092 -2.1222088610403516
Ni 0.6486058127052867 2.4562512456247054 6.152457353030203 -0.2910524774019891 0.9976870140506366 -0.010987095139123014
Ni 0.603076585326834 8.421563469484928 3.54224592169281 -0.25941479589205 -2.139697247633102 1.439011986589354
Ni 7.567391273077878 8.355158126577221 4.842366804644289 -0.2931312143078887 -1.1944674229409171 1.7331220198707444
Ni 5.544505568649095 7.055873258621461 11.589987525167965 2.748520335158215 -0.059335147425207485 2.8550791914570763
Ni 7.515065691649409 4.841217284025175 10.869966810947812 1.2100099986612063 2.4538947956929866 0.7302526902882198
Ni 8.142394176271692 7.895536489422006 7.715064551378566 2.727376611201064 -1.0639204312575743 -0.9829147408374685
P 2.77963789447088 2.9154063565546298 4.8964185331063295 0.4018960771191336 -0.1350137692054449 -0.12034356878777984
P 6.630979833676797 5.009148064080383 4.045215309597023 3.5542960954854137 -3.9114212961467603 -2.887647869421717
P 1.9431097199042797 8.527978101473462 1.857033765233466 -0.7262263427376461 1.8853377547767727 -0.6635485040924508
P 5.49708784311067 4.537340761920607 11.282396521257644 -0.4895742944634085 -0.022356770428645367 1.438880346107496
P 1.2541344598722421 5.643819671488723 4.244158887004576 0.4655895015130369 0.16336300977209928 0.49506385682306986
P 5.617162362975681 4.018367658384063 7.091974924039263 -0.11971827649895511 0.3278580762661128 -1.5954828972273103
P 4.753239768460082 6.577805174518299 1.4613187565233088 -0.30380823440576066 0.557859194882736 -0.4687707274544959
P 8.033964150989906 0.9799290056960864 8.817322331660263 0.5756735973563376 -0.40538506410899866 0.9474348027633038
