# total energy = -340864.605348 ev
CRYSTAL
PRIMVEC
9.37381911638415 0.00000000000000 0.00000000000000
0.00000000000000 9.37381911638415 0.00000000000000
0.00000000000000 0.00000000000000 13.71953179698794
PRIMCOORD
 96 1
Ni 6.061130202974792 8.755081459177415 12.414049585493133 0.17014455147030697 -0.12415394367280554 -0.15891808662686827
Ni 4.5704398667425 1.966486648094294 10.064840213150791 0.4381519741273745 0.30631531709833054 -0.26721860820718496
Ni 5.226625954117178 8.22420458605411 8.180682881173224 0.4791546417919813 -1.5148009086952103 -0.2973609361185201
Ni 4.258019848655722 5.1230171311728006 9.631577605632417 0.46423324459545856 0.49819520336320006 1.0159888976836178
Ni 6.67098150234494 1.9315223027054829 11.401630249375566 0.018072284120678555 -0.2216180367592506 -0.5690213821471426
Ni 5.386055870034845 8.634937219271679 3.6956169470038263 0.3539228916739647 -0.03820273632196646 -0.00810951648101184
Ni 1.376076649618621 5.966801460978115 1.4466971282487076 -1.7351249092333858 -2.540683668453773 0.5796207549295437
Ni 8.157191153028746 3.255864844495458 5.079766329665032 0.6242000842018154 -1.1437382720171656 1.31593713491334
Ni 4.719971029649286 1.9322909558748884 4.145356853804896 1.5010719891448923 -1.0832340439845214 0.6495182512516298
Ni 0.47869938364937903 8.36453065856631 9.732732362726178 0.07641678549784259 0.40179117611015314 -0.3206211921980414
Ni 5.245673554607812 3.915659852238686 7.820229539053914 -1.7108020162173052 0.1494165748943362 0.3907881401314302
Ni 3.1162511822378307 5.79270151810777 3.2017957183192647 -0.2307847908601832 -0.7989924188567789 1.2730380215569688
Ni 8.31903014046516 8.81940460610986 0.06392569700094787 -0.7690619498459336 -0.8546755713516958 -0.6153182083311531
Ni 0.48720893666384624 4.158235543920094 7.284550458385653 -1.6980935675117013 1.7160085001189092 -1.6831323182161788
Ni 0.16675461819295295 2.3183048280226735 3.092848505375175 1.0884153310751448 -0.42973263971542763 0.494757895546877
Ni 6.6808427600792655 7.551211240963042 5.918304132898197 -0.7350364848301082 0.5269463073539634 0.6113795353983793
Ni 2.978699760190803 0.6437845246536598 0.6437217200654279 0.12346565935652931 0.9175411005276648 -0.20813388622988674
Ni 7.870267923000298 3.135280035090186 13.132390655433385 0.8926271108948046 0.05787630349149386 -2.2096330533922917
Ni 5.536121340632559 7.749926832892641 1.2132674719013115 -0.008474098909282178 0.22636506452593275 -0.9158266889397195
Ni 2.6083964089201355 5.0307506293867235 13.478068046443745 0.49803168120214236 1.081929209130169 -1.4280161496994825
Ni 5.733393364414739 5.138343325465215 12.30503394366933 0.5896038342841846 0.11217517404437456 0.0551067111661567
Ni 5.960464759240089 2.4297595375864702 6.220573242239253 -0.1523615164552731 -0.4551423380377839 0.21641875194649826
Ni 0.9792360163651854 5.129644421304138 10.450016065867542 -0.13092957183374226 0.28827002956084546 -0.21697333889838766
Ni 3.97442432442165 4.087331975952006 5.0011396721082475 0.02051328946200338 0.06229680115669271 1.0882901183511902
P 7.228883096046245 6.890150767636037 13.078719916570604 -0.5039771001522998 0.12093749361803688 -0.23794479894373213
P 6.314279562645094 0.6077665619936149 5.164210379379537 -1.3664685680039885 -1.390615340453521 1.0839719505918104
P 3.586329464424987 5.85409065964968 11.615915754895196 0.3438791342847174 -0.10349178733776368 0.3830969421347596
P 8.802091162159957 7.650292509263239 5.9498039147332 1.1601637645630407 0.2837410313422404 0.2647441785247634
P 8.592436323295038 0.5861974041545654 11.828143707113794 -1.1617550203095606 -0.12421642147962476 0.7132880374094233
P 8.680222139532631 2.2770319023532535 7.220397914961539 -1.5834563050800794 1.3966556331103301 -0.32308765146066293
P 1.595620867675281 1.1654469335632365 9.865111311372257 0.8607978821993498 -1.1760277281784908 0.8891496938691655
P 6.161298834295122 0.22298347229879284 9.701177275358257 -1.69655553360062 -0.13573624919376623 -0.2513641576734316
Ni 2.902612470238798 7.48871598876272 1.5827262420675468 3.2386828980249254 1.0696521915350288 0.3138530202362724
Ni 2.3186329116925415 7.606404288054012 11.052564222746424 -1.1794280121092913 -2.1665038263029848 1.9271510912681324
Ni 8.648069939885547 4.6018515346775954 3.31301983193224 0.03126281466902358 -0.4542730480589531 -1.3625952010915114
Ni 3.2446068877094096 0.0934082329572182 2.9551461648400084 -1.0419426414349022 0.41057457872973807 0.6662643603617171
Ni 2.220648380231619 8.904903210477514 7.786890613903821 -0.14386093518342966 -1.8306349639172537 -0.1201057417453609
Ni 2.470198193352511 3.289723079225856 10.051450649892514 0.632271291245724 -0.751655324333712 0.836886879909707
Ni 8.15941274816471 0.9203984283929364 9.661623508118945 1.005474114195223 -1.4328999601543453 -0.00867618761775925
Ni 3.8746868887817176 7.883841213113702 12.994536459028167 1.3048094004312947 -1.237421815015256 -0.8932961119373712
Ni 2.2185767662018794 1.2258330764572634 5.790972985858522 0.7788416549405166 1.8725496018731687 0.14352334933835284
Ni 0.8769329664268833 6.88176119950655 4.141199565016709 0.019844802640069048 -0.671672932971798 -1.3987701083501718
Ni 6.7744028489065355 1.1411499943547114 -0.03860982365200366 0.28665949054061596 0.5161098788600919 1.9118023767262042
Ni 4.306107540839261 9.06227088618458 5.983279697642723 -0.012997440700932453 0.23760515621612627 -0.5391009404386264
Ni 0.19774540164870308 6.838472902722226 13.01654337422101 0.8804457383372642 -0.2773518399864449 0.6282547138871631
Ni 4.933459760542094 1.605669601792387 1.6645221878752585 0.38212506513979355 -0.39476589383225563 1.684952916364685
Ni 3.5722499880780716 8.713846028784552 9.765686023909655 1.0602735785336064 0.625285089735878 -0.7812533497058028
Ni 6.904230243982952 0.39995086644378586 7.513432875068676 0.3762981740453713 0.58344835620575 -0.3644993816382303
Ni 1.324858101842625 8.685002787293568 5.466217959166612 -0.5615464139263362 -0.8179008257255074 -0.5190669046058867
Ni 3.6673286356058763 0.6154896515823123 11.691674961177332 0.48958560731731804 0.24395423836260563 0.9551517117915873
Ni 3.6865449648410133 3.730283204944014 1.5713942321102992 1.0687330221548692 0.4373739583107693 -0.7221953672013821
Ni 8.214268337766674 7.103714489081956 8.242955036478035 -0.03048377041115395 1.0621615395849386 -1.0950410639217787
Ni 1.2806417969635309 2.375578862962522 8.200274163173924 1.957069990314752 -0.7148499825799044 0.08248613162037408
Ni 1.8907368156312963 2.893351136929376 13.94905933861505 0.6791895530638173 0.8784366783270355 -0.3371976084994838
Ni 8.250338793813897 5.932961973885995 11.286825336851459 -0.7588716395764931 -0.6073634722604507 1.3050035187199718
Ni 0.6833429788025395 8.17882592760177 1.5255300098265525 -1.3243024761589 1.467162480881641 1.6628758819599876
P 4.771302063254951 1.615812074100884 -0.451287524340934 -0.4430769222328176 -0.12379090390643195 -0.14205113566820052
P 0.7816771537173502 0.174533013314571 3.3457963279339875 0.5656578649915485 0.3956763214616669 0.6616520584006863
P 8.833484082456776 6.4621140642877055 2.3445308992100236 0.7371586733794337 0.7424327772941794 -0.46849407675434157
P 0.2666926535624622 4.342993519151586 12.655581971104363 1.1928152320494747 1.0296445407938397 -0.2048649856706278
P 6.332736612529965 4.264525279138252 5.2251664504772215 -0.7267799012482709 1.5096754145431872 -0.7510302891552033
P 6.603330649618117 9.443466615294872 2.039106562346749 0.7795489654201865 -0.04601014818152721 -0.9822837921216889
P 3.30753333559013 7.724598773578816 4.298151043154 -0.07558580495611499 -0.3711045456595738 0.7319832998260813
P 8.062890532489487 5.301944590899778 9.358449825230968 1.555947043916217 0.06777607910370909 0.7860865094283881
Ni 3.954420594378829 0.8909861960802091 8.10508771672602 0.6686570289636098 2.2956737351331435 -1.444875901569299
Ni 7.408073022709117 7.965280953794127 10.507171990686238 1.508185717371538 1.0809907564762995 -0.4020863387530688
Ni 1.4150811110563803 4.531875974804278 4.772888113453285 0.5961714601993733 -0.8981621817804208 -0.23255165295261884
Ni 6.09271059965439 3.533723591416406 0.7828695035118426 -0.38088656474700205 0.49360526999967247 0.10430399882641392
Ni 5.521582547147828 4.053745581976642 3.1058003112796575 0.5676409568598482 -0.2669183033579468 0.04583608449750816
Ni 7.079501914245683 1.6590628756086518 3.439664815410935 0.2074414881485524 1.0276089984210497 -1.171111521823796
Ni 8.403619484376321 0.8237562278327316 5.31582440489903 1.4321903356818302 -0.9734291699445363 0.27238986799547926
Ni 8.360902990559481 4.940143293588266 0.7483747864619001 -0.0026248392173567696 0.9313880337130861 0.19202001138715963
Ni 7.8911809134996105 7.847677018875087 3.6681497821624607 0.027438041606294684 1.3158905979461208 0.46838120532556116
Ni 5.352947540835574 7.169621811448908 10.8409680659378 -1.670194269998272 -0.6443724453846322 -0.03307209996362046
Ni 7.423474207554643 4.801991947116337 7.503129173070986 0.19607335552092683 -1.2852006250614318 -1.9104317216309226
Ni 3.9927126455620177 3.2691100509389943 12.243475136001003 -0.17325147253040485 0.8365816899644625 -0.37469663388620633
Ni 1.389424968072687 0.32847549550821376 11.987235228160541 -0.378069149902865 -0.47495500188833684 -0.06510341736755239
Ni 8.178629077399847 3.1277341106832175 9.520833431559362 -0.17995510980282556 1.6996056332808536 -0.6808584561258081
Ni 3.835841782269323 6.613126290618468 6.2512228186783405 0.5999085586443023 -0.2477242469279992 -0.10084663640543277
Ni 0.2478109696705904 1.4937743227290525 0.13813072406982338 -1.552125870397914 -1.2268545810223708 0.6676848948583274
Ni 2.519607594034661 4.7025544736888545 8.161460927646603 0.4237203720830767 0.08788776225191962 -0.6687161643363193
Ni 6.768647323955134 6.113707954525955 2.393125715008987 -0.33718552431462573 -1.2502670464090402 -0.7297610953637819
Ni 1.4727300987617924 6.487901440739346 6.718276169429312 -0.7589060923588543 0.21107034315039136 0.32444956480519604
Ni 0.12957523934157464 0.4659622382031816 7.6140795711651 -0.7320249516972941 -2.5984933803733896 -0.44148695203787836
Ni 0.4422530374546777 2.4303313405539546 11.497571288264167 -0.008881875870662123 0.9676143630349723 -0.5205843696916777
Ni 2.7864614772863163 2.4274348304399753 3.427605397088494 -2.135698410886354 -0.3400307070729047 0.04054141175747211
Ni 8.797722962441142 5.506218857578858 5.499364721024354 -1.010056334249267 1.163311566163403 0.8299688126336352
Ni 5.4761382719615135 6.224731468409354 4.218482016908948 -0.8187395195767191 -0.1990470934372701 1.338566956497714
P 5.738708319866603 6.086186421533584 7.407120642684585 -1.2700923086650837 1.0380366215122767 0.31309197370053177
P 8.185153255520657 2.7148736205210753 1.5158299817814207 -1.0118381087400379 0.557851224462936 -0.037476913899535454
P 1.92598237559428 6.789457202443917 8.914650107618339 -0.20014906825219725 0.04303383916202266 -0.18448693623490808
P 5.730075032439499 3.7651256906840174 10.54035999734819 0.16804087486374286 -0.24067685316291457 -0.20254482217788342
P 3.2502030577354466 2.824350454246524 6.724230419346464 0.706597512763125 0.907435893772863 1.0323177167506288
P 1.9991544077940275 8.382434653121974 -0.12357880723829785 -2.3475745377674926 -1.1942522216063174 -1.7200883266152376
P 1.773226618903646 3.9688094067573347 2.396857432408259 -1.677168130212944 0.32378364908642304 0.5035922060090552
P 4.5634938667604334 5.796957231996917 1.6068722627879324 0.5995527179667802 -0.40370510530341447 -0.13418535976687856
