# total energy = -340861.9526428425 ev
CRYSTAL
PRIMVEC
9.36492474205106 0.00000000000000 0.00000000000000
0.00000000000000 9.36492474205106 0.00000000000000
0.00000000000000 0.00000000000000 13.70651398109424
PRIMCOORD
 96 1
Ni 8.742194693822197 0.13485959855382146 0.4420197647263009 0.2540818137149108 0.5981702357969569 -0.8123356729329042
Ni 5.061179920310217 1.25856159919771 2.151319873572614 -0.638567922887713 -0.4605730221350519 0.008664103432901207
Ni 1.0066263941496278 2.8270366524380997 4.222729780928783 -0.514966509284268 -0.9790562863233266 -0.14475645041450552
Ni 8.642242852194133 8.841781303385847 6.495284224067617 0.09595639819266699 -0.7098304178781258 -0.6735290123439304
Ni 8.833081288313002 4.622245898281981 4.893349231264506 -1.8746802750629261 1.5774820897745154 -1.9625770361759103
Ni 0.9847873896825946 2.170162102126503 12.545777602181747 1.3903302051129345 1.1320834613870567 1.6548375850365433
Ni 6.370705439880823 0.3700128584882999 0.2413172533908255 -0.870507653287946 -0.7844268623377781 0.877156268952715
Ni 4.150038298693123 6.59706503549517 9.785792874307761 -0.37602512288964274 -0.46317266454142814 0.7969761597576985
Ni 1.113733038270322 1.2490842953723935 6.941417063734708 2.829320594435734 -0.47601532483205117 0.26849644647834403
Ni 5.3889803805844725 1.2200342988643589 8.316948445777244 -0.04136853564445779 0.34273319360573234 -1.1818091107469584
Ni -0.1611263394325242 1.3817571840020932 10.846156143042416 0.44502993219413034 -0.5052279418402654 -1.67106638819058
Ni 7.406409925312671 6.184259153459655 6.349433013359869 -0.14071699023780926 -0.02042021552756483 -0.01430356110686569
Ni 1.115821416484794 6.986187022892125 13.586363086382127 4.123345502657014 2.312052176491166 -1.1341570560866339
Ni 0.5055261287881758 5.723308193394542 11.861562154125082 -0.6447570824175606 0.44736089432015214 -0.8352858539711744
Ni 1.6588278470216662 5.735604339563159 3.777584004328084 0.2700409081473285 0.916435526168312 0.8124045784976267
Ni 6.31026421568261 7.940922369120727 4.985415806271112 -0.17625323547120614 0.8356416946486963 1.2587385742151613
Ni 1.1746518736296918 1.5648414624457034 1.5862412519429665 -0.3597554391953417 0.6982673956308748 0.4611759458263735
Ni 0.5923136957252843 4.11474189739113 6.568449571494543 1.7115077840350783 -1.2158065507383256 2.4126702418255612
Ni 8.349223722361799 2.7374049578609236 0.04547139201958821 -0.18622757307509863 -2.3441536850114018 -0.7536461295114956
Ni 2.1297899116216232 8.412671087397884 9.907986412166187 -1.5928374891846633 -0.24620729606284047 1.5207404141080971
Ni 5.984074522461669 1.4218390618403873 4.718686829629303 -1.191641780566664 -1.740165556981087 -1.9676374814179534
Ni 2.704534072063631 4.560802627137811 8.553906326706919 -0.6422996220160035 0.9545819553310464 -0.5989073710732976
Ni 3.573505437627958 8.221851381128472 0.6459054139770184 0.3119699442809466 -2.963403624296793 -1.2940398206196166
Ni 7.337193766643785 0.45421476970784924 11.7305964912734 -0.2441671257043601 -1.5675164939213713 2.522191008966224
P 4.873076042212091 4.038043163864114 9.38898977564843 -0.21136730556551986 0.6461807022379646 1.2962118885702707
P 9.25611366815212 0.6018677919333748 3.895760925970425 0.7427305110402562 0.4142103757101125 0.2873071514269439
P 1.4914579122726022 6.1095645138245525 9.788725968732749 -0.2568470351648738 -0.05357639056455934 -0.4140203711864934
P 8.643516481957219 7.056217930012396 4.685887117259947 -1.003124125905808 0.040013564278460124 -1.769544010143204
P 2.4833907395230983 3.017050975180854 5.941993233193824 -0.7420787363888703 -2.8535599265990728 1.5254239356266956
P 6.624588549272448 0.2622562885914428 6.539172007315603 -0.5361670546212831 1.242730371712363 0.21808611234659217
P 0.28208464371925124 3.9175072176826453 2.3190185171796505 0.6987301941999063 -0.9184705543204699 1.4861176818279052
P 6.4655159378329 6.850170856134325 9.702896433595376 -0.09381184104583842 0.6413339156686245 1.0229792129585222
Ni 6.762028184588992 4.450680477254515 7.964238222217457 -0.05448296153922875 0.0028467254201757423 0.8425517915049684
Ni 8.384154891599378 6.203597723024159 8.622849966066203 0.566936731703972 0.7992400160912106 -0.06786632482467021
Ni 4.659883530766117 5.264295772748246 11.750827538164536 0.23236319109089662 0.341145023183006 0.756230345298904
Ni 8.68001159362447 1.8331090962204175 5.86967728443978 -0.38286759973277285 0.29932114516868447 -2.2141291414904316
Ni 4.47619053221515 3.9162335879195598 7.2967859894249365 0.2098156448076838 -5.157504129271124 -2.761230840746348
Ni 2.0883875793966 7.327285676280954 7.904888948242595 1.7950146436104826 -1.3569865966554824 -0.599076292550994
Ni 2.5968093429108507 3.802889903929635 2.7588880951882713 0.3076834010904508 -0.08432421327037735 -1.1659901414368308
Ni 7.892056191887031 8.778081085382091 9.652305237226676 0.4281601530219852 -1.1490938799021242 0.02801036916999692
Ni 8.92599070654518 5.913519179556597 2.6579941421325124 1.3008481017907016 0.20388976624155206 0.43574156491366894
Ni 9.242571986994603 4.371443849126056 10.116929120770335 0.5484175898538619 -0.7036502572093429 -0.13262984235430061
Ni 0.26756245494265246 4.517517945042344 0.2735363404270095 2.4845230621018053 -1.3951301976047392 -0.31678279228855766
Ni 5.341406562963319 7.923129012136438 2.309698544089774 -0.7865554786450066 0.2942010503332998 1.3419654406563017
Ni 5.554439870688907 6.999026334694999 0.14439683789740063 0.5763474834949106 -1.6991682886331185 -0.6221210901855995
Ni 3.357306785344112 4.540705498670292 5.066256646005576 0.6207486353181051 0.5947843500438595 -1.0040780051786449
Ni 4.672095392612176 5.906326917365052 7.6644360774042175 0.16754619461551143 3.819442137434287 -0.6324759510573623
Ni 1.6020670382417828 8.66011112857625 5.179595647533136 -0.07330060846636409 0.20156291788058836 -0.12844408640772717
Ni 7.170919528087964 4.836618390243754 12.795455860370243 -0.029622450852123176 -0.09534010476490677 0.4041229095671234
Ni 2.6201092756355417 -0.18881186640760575 2.8267491492489327 0.6878341161126929 -0.21359516645477408 0.8383845475011561
Ni 5.995733853748744 2.3972240670954945 12.916265262353786 0.9250119549834135 1.6658115675495442 0.024650194448512387
Ni 2.2964106523924013 4.285033688655509 10.752170694958926 0.266326949630851 -0.49015613510880746 -0.9990293870111439
Ni 5.1707776344087115 8.523373862614351 12.037252824495482 -0.5367756347395594 -1.686360081124857 -0.29812558219868657
Ni 4.536322713897319 5.516596209860742 2.512363007155886 -0.3550834876409691 0.28080354598047125 -0.972274744625119
Ni 4.080175960217965 8.29473859029096 6.5116222717490855 0.9049246973152351 -0.3757700694560432 0.7958266195342876
Ni 6.809424068640301 1.755071178457215 10.046668772994211 1.1754353460101303 2.3047057634284243 -1.8253336063089984
P 6.977561927217109 2.2810240810633555 1.6106659121275588 -1.2977964594485714 -1.5752899672192031 0.8479647349904235
P 6.0637513020523715 4.863645563010418 5.3265978074900255 -0.3677240592231151 -1.4157669000184845 -0.04616929946721081
P 3.08475938096844 7.1001862516130485 12.243466594033723 0.9544899098378722 0.4586318392482811 0.17477767936694416
P 2.1044109656071894 4.273421181992078 12.72645696795506 -0.870049996925237 -1.0203322622539783 1.3993856304469836
P 2.9929456589295063 0.6914358050223967 0.8798899313053709 -1.4137228730052618 4.078260951613551 1.078653623702691
P 5.3433825620810484 4.55089453677498 0.3635969485567543 -0.6828281782576693 0.7952998004965399 -0.11994684756999342
P 7.272425947220971 7.948564147699243 1.156828548886271 0.055891411850981156 -0.48114518985944876 -0.3997736314594922
P 7.883487285760386 3.019542045158655 11.562390268746075 0.4373310208879758 0.1715100643592659 0.32873456533379514
Ni 7.4711496499612995 8.610664326009385 3.1562259310496024 2.159280054861036 0.8041307685246086 0.20742194776452666
Ni 4.021467247094539 1.087782831847445 12.846320512541016 -0.2878108305362398 -1.5290062536613152 1.0842293180182554
Ni 7.376863587794022 7.225311010911518 12.066707385751792 0.019707505731256382 -0.3054835652256545 -0.9715630632700751
Ni 8.652459985073007 6.341308941157831 0.4956330223049109 -5.2380614192999015 2.202847912149658 -0.14882599249818884
Ni 5.526813342739616 3.4129531680812955 3.1126668566595885 -0.35008474887479707 0.47042883188320916 0.5038665427163644
Ni 4.257444620405132 8.842783350331805 9.33325910858869 0.6081651422261396 1.1245493577935408 -0.04562371137638594
Ni 7.288346319259546 4.380200053747272 1.3653835496066553 -0.2828113204391194 1.0366950198827176 1.884473092783632
Ni 6.637830552838651 2.6062960116608958 6.390141404662504 -0.6530172655438238 1.687687798797345 1.6461871084503974
Ni 0.549664892018888 8.116945494318994 1.8463904324704803 0.3675523095319412 -0.05128193810342781 1.6091187428431901
Ni 2.4749904020415676 1.389839114042852 10.797923034720371 0.2030760120910051 0.055158390339698556 -1.3137385846001246
Ni 4.018957447267281 2.8833292149815546 11.68180148746764 0.701690562379811 2.0273372112714307 -1.8840845990959616
Ni 7.089997213508361 5.031521203694824 10.570683136181538 -1.0460980583641724 -0.3136910407371114 -1.0328982718444468
Ni 3.415491062682739 1.8928385861392587 3.9853748271906166 0.13168958992821836 0.0907889950591146 0.5239913384906975
Ni 6.890833359305791 6.048945356056498 3.431480735164305 -1.9623170976463047 -0.541469440670803 1.14541823082275
Ni 0.415445854316501 6.724156428986641 6.341811837615754 1.467738150879453 -1.046784800018552 0.840011798691934
Ni 8.385297412416264 1.212982510543743 8.15644487383917 -0.4108435161204086 0.6439358720678459 0.6714171082072502
Ni 2.0254365553711295 9.113841731675633 12.331969815181107 -0.8409695346195131 -0.9036645996558887 0.7739606726991315
Ni 6.219911421901333 7.8894621077372165 7.907507381196705 -0.04399260353086617 0.6453119264797661 -0.9437393561895876
Ni 2.7428740739024104 5.398139276969016 0.7182869172041624 0.42879418706155836 1.7109398273467502 0.49889377209212143
Ni 3.8922406507649545 1.1488046813788295 6.37037673102285 -0.6748505593688313 2.217528139869652 0.2792063766966804
Ni 1.1597429134618031 2.570643743219217 9.048108388513304 0.46384912178316245 0.1884600619500432 -0.23568171394116832
Ni 7.766931432588562 2.855403009440949 3.682241578651424 0.6809211910429435 -0.44878142881676253 -0.5699050703036765
Ni 3.542423252453823 3.3205119960855476 0.4003402307293121 0.7751451799255361 -2.2029533273792703 0.3153434887388698
Ni 4.56520414176024 6.390924312369814 4.769524323518363 2.2962380922770453 0.9569465989084809 -1.3583320549397835
P 2.7511713972119263 7.013317209830802 2.3250907343736578 -0.39170962350443506 -0.5791949802460348 0.010130660676098682
P 2.924544248712006 6.695378015295734 5.892731856136583 -3.5542978952576276 -1.0437804659745895 1.0382515657365603
P 9.1573886316635 8.440016667605319 12.224182341032643 0.7410394964910786 0.6368313998125806 -0.09985084815106675
P 8.667977665348253 3.4626340937663773 8.26224511096023 -0.36304567991083925 -0.3878069460159192 -1.0442692326855498
P 0.36310903597839556 8.381017641815307 8.37302186908205 -1.6215286864717684 0.8101324946339983 0.09193262174525457
P 5.214736591084635 0.9584532213458462 10.982221007408803 -1.7051003378468377 -0.05833935917084146 -0.34318210821769285
P 2.940155578234538 1.32046375165358 8.584198112233961 0.4879938373501661 -0.9558011724501281 -0.40662742115653194
P 4.403958867783663 9.022102929034528 4.438758928075042 -0.4360570392715587 1.1487897183981441 -0.9196170092200872
