# total energy = -381175.14126521396 ev
CRYSTAL
PRIMVEC
9.11739653764619 0.00000000000000 0.00000000000000
0.00000000000000 9.11739653764619 0.00000000000000
0.00000000000000 0.00000000000000 13.34423143341264
PRIMCOORD
 96 1
Ni 8.862811212413753 4.259146079809545 6.757852407214826 -0.43349442075070505 0.8721045654614206 -0.678682788630728
Ni 6.143939823397998 1.8035121558555185 12.512297973765689 -2.292863776488174 -0.06623701675136334 1.339152910908171
Ni 2.258880512481593 3.5882060058130247 2.943524033069544 0.20467858069143458 -0.6910657356761131 -3.409327529060102
Ni 8.811881436858378 6.447476179966129 2.4048436445615575 -0.09884271860152656 -0.20989689166758044 0.6119415785494364
Ni 4.329350031076354 2.7762198115440966 10.899741477095516 -0.01734980413235722 -0.08205444339959417 0.23157977595765275
Ni 0.012943055742644425 -0.06855826124035978 8.010422188320964 -0.9630257152230253 -0.18076809262242416 0.3926097667212013
Ni 2.5374716728593354 1.6526830693871 6.428796458491397 -0.12408452388745081 0.9585478819573299 -0.18093007212158518
Ni 2.0707065708977397 3.65526445536723 11.35550005828188 0.6624071913991559 -0.0872904949875529 -1.2635493653402432
Ni 0.25593716586960724 8.02010851011653 11.953282144620625 -0.15907723791255182 1.2526584294593521 -0.32759350975081647
Ni 5.258914167622784 4.791264678223151 13.450584723322113 0.22441231167493608 0.33642473488920127 -1.1915044836578512
Ni 7.408896499074407 4.854539408325965 8.940181437147539 1.0896353195251751 0.41929241821871016 0.1815340242541712
Ni 5.545382758376438 5.177988158344317 4.5427499846556625 1.3495792484478177 -0.04301686988115817 -0.48105931501386184
Ni 3.456259047016497 2.285466840000296 13.199072229861569 -0.25962305524811413 0.6273080337031778 0.20730110591594622
Ni 2.0688830916440564 4.532029750123258 6.735340644088478 -0.17032967089791956 -1.112083364116046 -0.24737586244964493
Ni 5.071734022232189 2.991736824536932 3.93808244065501 -0.37607680206318456 -0.9310643318250803 -0.08194825683903306
Ni 6.956181304762442 2.357567209690936 10.338736232084685 -1.0699535248255314 0.49032839902061354 -1.1682632537417235
Ni 8.755390049579267 1.9607690066931704 6.491261563805574 0.48168872106774463 -1.2844308367749426 0.3155635751694759
Ni 6.44010020638498 0.4503246130103867 1.426845163818417 -0.7949015366168568 0.5934265504643844 1.5925747224415798
Ni 8.731320123430647 3.8674900883071666 11.039695333294967 0.06700860481006524 -0.17301415970861816 -0.3311907401837716
Ni 8.499145627455414 8.962737875515602 2.708358119378644 -0.5172352507137866 0.8210488844361858 0.15125697053718468
Ni 0.858935314613513 3.3107454025725658 -0.09166447860340837 -1.5847344004615547 -1.3158800564231594 0.372170782140559
Ni 3.0373602754640894 6.260305151971802 8.070377274442446 0.3949013909688554 0.47896078061362035 2.232444137749536
Ni 1.0114292376405443 7.949886324057184 3.892058736031669 0.062223267606279935 -1.3029774894288788 -1.194719391050723
Ni 4.909982295034207 0.34819062827195535 10.913019141281213 0.671460816960992 0.6059390811090983 1.0607029527615408
P 3.062624580523872 0.36468126290264075 9.982752965222115 -0.596492848094534 0.0894957301689878 -0.3441318737254718
Ni 6.553666494304379 2.7842613550528403 7.5681673827477525 0.9650090642016412 -0.29292629738593423 0.35125691480602733
P 4.256802908968562 3.6628501290625524 1.6683494913951202 -0.9874995319946736 -0.31247156650771346 0.15070212647497916
Ni 8.350787355375738 2.0709162710119133 1.2037324479943636 0.7803799459619141 -1.3576414566306618 0.5649089026406658
P 7.802020391376001 7.055679450239674 7.8768195103620915 -1.5147206902765784 -0.17302675811410845 -1.0824511430719101
P 1.5231704553942398 3.095893959507325 4.889966875006151 -0.24944791448732528 -0.91669932135266 1.9163336889376548
P 6.887344962935896 8.895734130339006 11.895234417798495 0.47780121308788037 -0.2689456182006207 0.453998711351644
Ni 7.799485755213381 -0.1166944665790929 4.988367285972665 1.9741387728715805 0.6475189614334138 0.4878454846977598
Ni 6.357031608983435 7.518095554181235 10.111938264688938 1.1693904253676313 -0.057744920119952164 1.2475722731856966
Ni 1.6902102724279031 1.1461934718840123 11.456969384832343 -1.4938587592259045 2.035804625312494 -0.021413689789085703
Ni 5.544270436031692 6.305509202670612 8.316804996004095 0.7093483360353848 -1.3299735584017482 -1.9690703572097379
Ni 4.637363029212277 8.173016362934147 8.943290469275068 -2.1758510718458397 0.9794190689793844 -0.6707540207019544
Ni 4.561597466221734 3.79462385732998 6.556621442434973 0.06310644154218165 -0.7412112461822525 0.16196535809362428
Ni 0.788887270822894 5.895910175311989 11.670771415587089 -3.4432588917002245 -1.7066885082695638 0.5339273666574869
Ni 1.1368572581051535 8.676861915519394 6.136064216501341 0.035547300976990395 0.26063581278334463 -0.8138320549727726
Ni 3.2158971291922263 4.644675181019548 4.5663822757834 1.3498417580805848 0.3645096660508754 0.9821269548288507
Ni 6.892487174431282 5.106298071485757 1.9704890628549296 0.7881932713587457 -0.7916377782639206 0.4586752908917068
Ni 0.7385127447002645 0.9546187414920395 4.391720315469339 -0.7108130935063695 3.303087746663557 0.9861641010127018
Ni 0.9160248030878314 5.100152946400843 4.168977765933784 0.3444961990434261 1.541684877570248 0.6264112329205213
Ni 6.79206817193094 0.20894701724181414 8.886217392114032 -0.4861758103048207 0.8550617510465209 -0.6969404492893352
Ni 7.571714961635794 3.689627921902892 13.033550459306596 -0.8236981491335749 1.6219140948356454 0.5332321403626752
Ni 0.6949671483826793 4.165856881191105 8.943970627036693 0.8499892216196201 -0.22873690719221898 -0.4270031565994065
Ni 8.252629467149962 8.46439011288021 0.5561666428111831 -0.17317408232525014 1.0981760100063345 -1.1399896036080108
Ni 8.280948099959666 1.6261879158310808 12.118950705255518 2.7422771824619807 -0.48737702970177355 1.2221553757744887
Ni 6.2242184975414085 2.8050581359410987 1.641780486929327 -0.5411079435663261 -7.79044257869626e-05 0.4401000989926808
Ni 4.238112246618307 8.812191428331504 6.4936895264318535 -0.3988413494532099 -1.152298759992667 -0.906718041770232
Ni 4.423268330037315 5.90281204428718 10.34367421390366 0.078926953514206 -0.7401115853601705 -0.42993755663738215
Ni 4.1679082953514985 6.980105352570767 4.402088618505783 1.509221357724904 2.184355252662109 -0.10770094032310483
Ni 2.7153247218673413 8.760413734923166 1.812640492999457 -0.9141683274006902 -1.334012247247496 0.2150928340462231
Ni 5.684413934073526 0.2449643794605677 4.408747053000607 -2.0377494077436906 0.46874784463636043 -1.5512200707541932
Ni 7.963252426986683 6.291021660000098 0.10527857471140827 1.582597299513894 -2.0048863384670828 -0.5111967578291905
Ni 6.2418150723394525 7.463126772078951 5.9142434357285225 -0.42406721389953417 -0.755218359094622 1.6551975394791234
P 2.0466184099565825 5.460782438401799 10.067421665668766 1.1576841926742965 -0.12763855978729632 -1.833608958943913
Ni 4.47961383897613 0.20606409654174074 0.228020610235342 0.8207966592160638 -0.2799527679444017 0.18280337788489806
P 7.2605108748059255 1.6135512046030551 3.4781872967816665 0.047248648574318625 0.44331063551017846 -0.6869568557140622
Ni 7.01901839984437 3.13473406761078 5.29088067067948 0.4140645941608675 -0.3398679562427953 -1.1683578703380588
P 8.446410607438892 2.3568287005931943 8.717545561148324 0.4140345122538805 -0.11463726243162192 -0.022672759007167403
P 0.8815318695251572 4.754913619300974 1.5736717133250004 -0.4643988236390454 0.5350416827675882 0.2166879464474849
P 3.9143717399193654 5.848809706189348 6.287547932021831 1.9656713588305181 0.09953511668286084 -0.5724862007672914
Ni 1.6556097535892618 7.718933559181919 9.695945207327275 2.5588981345792705 0.14214189560979393 1.594212772265635
Ni 2.6272506739144355 6.3758407974851785 2.7948293290675617 -2.1540535163547743 -0.2602552895154744 -0.6409240818247155
Ni 8.525421963500992 0.33484549535387376 10.26783844696185 0.9205814300158854 0.31298553002965457 0.04909855729886383
Ni 2.6525605659555604 8.634602783815282 12.46567343272826 0.3388533989353519 -1.3172350277891574 0.3267103358149147
Ni 8.778165305457772 7.130569743188449 9.763480496706318 -2.6016951751401387 -1.5100767637466639 0.31576309277479164
Ni 8.661654098543675 3.5261803589989853 3.2470913887849875 -0.4063859945696872 -1.6254915277742585 -1.102393390521792
Ni 2.5451941074986846 8.832678217746636 7.928274447942529 -0.38100663526463413 0.21768167781932188 0.44963837750041924
Ni 6.645934544540757 5.135792848414084 6.533349288459839 0.6396997224993112 0.2692166124738202 0.9639137742549335
Ni 7.193962999442751 5.861820230664379 11.360410687912049 1.3011355511241334 -0.38276912648169564 0.1762717474139674
Ni 2.9199737985082237 0.20690654395694247 4.260012232455044 1.2614780846335114 -0.2745385389073659 0.5408405488375525
Ni 5.146688136954842 7.284617270539619 12.192717734984024 0.2736898177538254 0.31549878336981146 0.2723906393264276
Ni 3.077577110404076 3.29465319815881 8.614314753638801 -0.6613952051948738 0.9465727118733247 0.2658806061220518
Ni 3.500688119032492 6.962636421320481 0.6173480187307668 1.9363564119164842 -0.2808248861367099 0.5017464110495681
Ni 1.4834733120415533 1.6308924923055839 9.093012703836502 -0.5699148404956895 0.508642109728137 -0.41627497154862503
Ni 2.1685727024429253 6.747301756253014 5.366409181367045 -0.7431128340803396 -0.28099715004851605 1.6915321122440998
Ni 5.28386848120944 3.962885405463611 9.028359423417903 -0.659062186186323 0.23430257420545456 0.3730457285463446
Ni 6.71991309786269 7.177834325443921 3.666341180093729 0.2217522483442697 -0.33279485144609783 -1.2053192780537563
Ni 6.363979064939969 0.598781352969763 6.726733822011093 0.8834878675976977 0.18119618129877826 -0.19422164702416872
Ni 3.811582214389235 1.5490456260040066 2.4581010913842603 1.4581587347211338 0.7484093065925885 -0.8028673284311527
Ni 0.8358765077110603 6.70125890509751 7.558505677922112 -0.4392760604294886 -0.5487119811658292 0.1973445089238666
Ni 8.626698001250565 6.828109239379992 5.602054670101663 0.09246946808533106 -0.2683126126023121 0.03772142581017375
Ni 2.830039801716561 6.310596709788388 11.911047629886438 1.9269320332787911 1.0458219218846505 -0.08561670682955576
Ni 6.258901072946465 7.226074469100115 0.9999112309346534 -1.9244308641234922 0.7188359638108459 1.2505508961980463
Ni 1.4709368921724804 1.4626218267756843 2.327140634863976 -1.0585421976647964 0.6731911693885374 -0.6234518931818811
Ni 1.1439050054206397 7.046498232197378 0.6368756580584619 0.6684425989599585 -0.4441544715677125 -0.20197378016576184
P 4.636998333361541 8.276279993070236 2.6107454514497204 1.1496911471664908 0.080690473172532 -0.5365516916542115
Ni 4.6145968907300405 1.4215388391901984 8.593871727725757 -0.030773533737430872 0.5306934331012215 -0.3135902534931889
P 5.870463522326838 4.324171349995893 11.224686391841518 -0.6693815658344602 -1.6471201617876279 -0.08806722525257736
Ni 4.774625430033291 5.817044697590185 2.2857868606093175 -0.20386868319562956 -0.662361168652569 0.43543868896126936
P 7.954800600645861 5.113245527442289 4.513512318302104 -2.7508330424517915 0.1542546197129279 0.2784918671281591
P 1.0738104629090517 0.42256670007119185 0.4918962930358597 -0.541799570316712 0.3156286240794564 -1.4364390836558552
P 4.725847359997262 1.6625572095457954 5.855047828716199 -0.6009321148128103 1.2207685227292913 -0.45555757119833157
Ni 2.5599004676796406 4.724233580857752 0.15357706970371918 1.6139940686576204 0.2283353008784261 1.81925474710477
