# total energy = -340870.3361538791 ev
CRYSTAL
PRIMVEC
9.27212507211637 0.00000000000000 0.00000000000000
0.00000000000000 9.27212507211637 0.00000000000000
0.00000000000000 0.00000000000000 13.57069228381080
PRIMCOORD
 96 1
Ni 0.4864982014196079 4.844611155487036 1.8890814294061369 -0.4132379844945141 0.7953854182318109 0.2828779120109967
Ni 5.196998267565853 8.387823929104995 0.230726632239391 -0.5240826126529232 -0.0777344758680016 -0.43475528974099964
Ni 8.077810428450997 2.939143099500795 10.135474853665144 -1.3591625212608787 -0.13518243357282525 1.5781595754575144
Ni 2.8046509258209307 0.989196659706052 4.28183859907775 -2.2673023830793015 -2.7208238976842107 -1.5630887971673209
Ni 2.4287960652702956 2.2074704406071897 9.094996852010024 -0.7097795100355324 -0.9818173940082315 -0.09019944110423175
Ni 0.8665551890375796 5.432417522287104 6.994714958482553 -1.193885582295518 -0.32859546865276956 0.4985919245809865
Ni 2.4556017787558857 2.824252198151798 5.805921899140542 -2.8552257443372695 0.6119045546639139 0.619281049633643
Ni 3.871167836220977 2.618874628554488 3.009409117465686 1.008421112638689 -0.6115091189977081 -0.7714535900065617
Ni 2.7206640172244327 8.290067914826691 0.9648666036056753 0.7939605128598262 0.12202224204178339 -2.318326696645969
Ni 4.516155398131953 -0.1687656566712634 2.562676278697635 0.1278460478124121 0.5986389479032593 -0.593253772331946
Ni 2.7687307134227375 5.9871224027006065 5.926552245888217 2.024571732711152 0.12500060794381698 -0.39612857850773714
Ni 7.630597293605964 5.956830370200634 6.4618348059840915 -0.8220989229672551 1.0589985684759247 0.8362057946822825
Ni 0.876611735854069 4.1277831687796755 12.885019685958728 -0.1765417132459024 0.8578411135638709 -0.8633790126629648
Ni 6.38873522660751 5.966278665614614 0.4777898215836804 -0.7340836339985357 -1.345115299139193 -1.207374103700256
Ni 4.556628223923928 1.4363356175507784 9.668018815436596 -0.3287129680672403 -0.7381778586725674 -1.6703089411992653
Ni 2.5380402424709962 7.067046805905967 12.144426315565818 0.18238608784182136 1.207485946687772 0.038370372248082305
Ni 0.6132231159549272 2.685578296079682 1.1022377721099168 -0.35405530348677083 -1.6792952038582756 0.4994051645109012
Ni 8.752867491861027 5.383201082584055 4.606598487392587 2.638840416731868 -0.2850769765448445 -0.9845605039710075
Ni 3.1263380318980905 3.0782064308245176 0.5662672203362048 0.6491783514137077 1.1460311818164004 -0.22522940825959276
Ni 2.3917168372423205 0.18093810242148228 10.659182092863261 -0.7892985886077826 -0.3239929368837517 -0.4274556707557928
Ni 9.204447797599077 8.338199515900262 7.865912700526786 -1.8172269180414637 0.7825908375703039 -1.1357038317484633
Ni 7.378942547942731 2.23639947072654 1.6075166627945068 0.3612983582024294 1.3640974966686505 0.3498016704167395
Ni 5.328115387731793 5.364962812633811 8.756855432839979 0.017290154539015383 -0.5854545880025014 -2.412957176938361
Ni 5.3667801491413085 7.47025443531945 9.676270079508138 0.47968968835984477 2.188134517198883 -0.024548635873641592
P 4.718445350091525 6.493324797039007 12.09957519233078 0.12852019106130125 -0.2416579861292612 0.29790909531250626
P 4.178167896237544 1.8932103066856711 5.400836664406813 4.731221909998142 0.18922316536831282 0.6730399885226538
P 0.9529426508064817 1.8354356955723148 7.626078059862319 -0.47633722694784414 -1.6659326665084406 -1.3072277800648002
P 7.618432265555775 2.129102439783873 5.017450983900108 0.03348321935911008 -0.4708615485452536 0.6562082616772957
P 7.963883828105978 0.21383838369471644 12.512680815222597 -0.5446442388543588 -0.033067729088246275 0.7687163935810567
P 7.509364258730802 4.325715221971269 2.409191084089413 0.4042038993167039 0.27512449331782296 -0.47204374177881286
P 2.850390318634634 0.6150552878624859 12.816704523101883 0.4092599736833726 -1.72755095354087 1.529732076083746
P 5.717563183588507 2.7621567767706163 10.763431376305855 1.238355382573119 1.3685339351734496 0.9478500359238515
Ni 4.135636658687075 3.213431102382404 7.380176667785323 -0.05953543636147166 0.44533126548463303 0.08947773244685882
Ni 7.559044304685763 6.701196568271607 8.961732307685224 0.5041514209466349 2.1585560322108184 0.7070140314752533
Ni 7.976475373907927 6.842550114479779 2.704041878668356 -0.8238231047472134 -1.6246932002426795 -1.7602055063510975
Ni 8.572441210741657 5.90503627973695 11.232000996751495 0.7257995396128726 1.001950674422997 0.6798485268040549
Ni 3.6769724494198006 6.008244303537747 0.7611960322279075 -0.3100886680978337 -0.24013306484430255 -0.7291699987470023
Ni 0.2981906140177219 3.544232707372166 8.630173170079836 0.23654277638988297 0.8722326063988527 -0.16245875279027505
Ni 6.592564351323432 5.340910920284583 4.067204667054751 -1.446197705704516 0.6006346381770494 0.9388928267305637
Ni 0.6953871247689047 7.5486687967679575 1.7644204899043328 0.2829414182590804 -1.4658355345401013 -0.48020262344052145
Ni 2.8851329711529696 0.6195587589935656 6.839601578717613 0.04420806197578193 -0.09748337636015471 1.399992410793047
Ni 3.036120255275886 4.861310252680931 11.864530531461075 0.1997389772979721 -0.33889505080656473 0.9322879198195363
Ni 3.2591241345709157 6.584330704289463 9.628962770350466 -0.16950228990061775 0.6908183955519973 1.0994055115380614
Ni 6.504692422335906 7.773981435197513 11.875753511607376 0.9737567284872842 -0.31896694442407003 -0.0647735448319594
Ni 3.7445569688236287 2.3315592899941335 11.888618585097952 -0.15563915876528034 0.5272579250571112 -0.7715703180900841
Ni 1.117949387987237 1.7176518912113832 12.365655510128526 0.7873116400847409 0.37956321794988823 -1.6105457050977037
Ni 8.174954482476776 7.1612237799195055 0.20581057783659676 2.016979779296507 1.3840803675484807 -1.233662862193456
Ni 5.41003461244476 4.0931795981369135 12.632115985052842 0.17536106267423993 -0.09978605635140234 -0.02671710427987012
Ni 1.9943321023528613 7.452498315871195 7.80332400209357 1.1296175163450675 -0.02362355295621093 0.42711191426312894
Ni 4.4981303870575875 7.485442176132108 7.106849257057677 -0.2283674396679422 0.8360972941288762 0.5157573806166795
Ni 8.654638599205771 3.372605672914098 6.3197626700854554 1.98249151571165 1.3737579025765503 -0.2728302979670076
Ni 0.46070593120069875 1.028733000869164 5.566358931739695 -0.32400836350271944 0.35690305734821115 0.125386530528326
Ni 0.32276359979410074 0.13319778502452378 0.3849981030508568 -0.10562837406479227 1.002786025840099 0.7975009219129168
Ni 2.4758799162145455 1.2208977922869635 1.7808683125096905 -1.2028186231190898 -1.1870883568680266 -0.08913731838830455
Ni 6.646370492920416 0.7335307927512711 3.7662472509256144 0.58334011276266 0.12558810501617082 0.3021200480700603
Ni 5.247373722898684 4.9240639949398295 2.207679990633054 -0.3458120896413722 -0.9294633058865477 -0.2521437161519335
P 6.800695742057103 9.143474303347524 8.791013014268401 0.4088660806790636 -0.10932382063850848 -1.0095976494452934
P 3.5606072801897217 8.783882750113985 8.846829352573678 0.25382136096467256 -0.1439810057010617 0.005373091386455262
P 1.0525901785925897 6.223441053550569 13.51874347037323 -0.0959491991038154 0.7819287785062726 0.49269329970836445
P 3.0212292224644512 5.177155919983991 7.975862486442897 -0.4626175633689064 0.5680898714718087 -1.072809506217088
P 8.995556092612269 7.501955830825238 5.650822427563161 -0.16371807911867287 -0.20674677607437297 1.8589955173378176
P 2.393404363999283 8.186006855522374 3.0654155343342473 0.7945559803519799 1.028223492076597 1.384647038685228
P 2.681174036686512 4.247384309648105 2.4828942788059845 -0.6089277314237771 1.4096196494701658 -0.8981696379795885
P 1.4736837372048628 4.442673807203795 4.9768882184952625 -1.4201112930301092 1.287300445013254 0.038653193595823754
Ni 7.02817805774561 7.6513761258166895 4.6169127992851395 -0.9598210922427985 -0.6524002007851151 -1.399862570083402
Ni 3.526393138798567 4.162674175298622 9.711214864352305 0.8771696386891539 -1.184384327673302 0.813832569193405
Ni 6.754650369117138 0.7580713260900162 10.838721958828975 0.20559183653432334 0.4300288307996078 -1.0953084586505524
Ni 5.981976373304376 1.5676845408426747 13.012082105845439 0.6908569620994167 -0.8035900655297902 -1.6325749169836012
Ni 4.46956296981473 9.145375088980366 11.446526444911546 0.9410515249447793 -0.8824792238275254 1.2109474228738113
Ni 4.1256413078958385 4.610907243897862 4.3071338833946085 -0.8427399962563744 -0.3578296829275386 1.5991318068338074
Ni 1.0320895101330116 2.6540252545745067 3.568725952873216 0.15826168398979196 0.3786764444695607 0.04816061886562674
Ni 6.897978877958457 8.753535084863781 6.435968358764876 0.7861780407009299 0.11508334883010503 2.1939033013618605
Ni 6.400343927155403 3.97179820926114 6.28747805791476 -1.3578504873176744 -0.14625283245437393 -0.27432873688940496
Ni 4.262071355708698 6.795401358660261 3.5702048568168174 0.7773442444593839 1.1166175045409736 -0.19603144653939786
Ni 9.566700450718596 0.6078749542328626 9.812913386196877 -1.1560343157756994 0.9409113998224892 -0.4893688633208217
Ni 1.7906698758876278 8.250281226287546 5.516242168695433 0.1915476997364314 -0.7506124848914943 -0.7380770714286451
Ni 5.439835222317706 1.0704946520414569 7.169586309491507 -0.695156617916035 0.24476619274093972 0.1036617372567247
Ni 6.175986317604789 2.9910669997150134 8.493529863391098 0.8402673663461657 0.5002091484694353 1.2038671189882622
Ni 4.917888759664352 9.05393339185311 4.867766433345067 -0.9539268382455507 -0.29035699399686127 1.9748391413727153
Ni 8.026127603487772 1.469409287562228 7.473950304359697 -0.6133775396650146 -1.1230514330917756 0.9265697863888365
Ni 0.35316040730700654 8.267165765982206 11.842980258447165 0.4279516365556049 -0.3664099683973819 0.36044680883541147
Ni 7.20802019498757 9.235425967351881 1.6807571784716697 0.711142194711014 -1.7346137739249223 -1.055010273252138
Ni 0.032472836308970666 8.415788658220366 3.7829528386070357 0.28582542467509486 0.6536842097038613 0.4525439811829884
Ni 5.96639920324011 3.107163277318983 3.89180295049361 0.9952902316836859 -1.0568671239552183 0.2459571277252474
Ni 8.276493523770688 2.510511303232422 12.697825680773935 -0.8943042414869115 -1.4293721495067446 0.5808638833080254
Ni 1.1976803911911773 5.366539073890315 9.88395548102747 0.4501176311296829 0.6357859892672018 -0.11888549618501462
Ni 1.836613255452173 6.178128178488625 3.652633121194385 -0.21217206085500234 -0.6404941933761485 -0.45656235831376213
Ni 6.386815896724591 5.492621430160483 10.721633563845911 -0.6844957957680792 -0.9430644416097501 1.4848925511715523
P 5.869282965589446 7.3864715134737935 2.0155467244403846 -0.0909391474837337 0.03230102612555082 1.2277727219612662
P 7.628353439346706 4.807374301333412 8.307109153434496 0.23322091110550155 -3.1943344538165372 -0.30500431159639085
P 1.6294368935974415 3.373310354417005 10.79226953959983 -0.5137552625849863 -0.19176238685039876 0.277286019745516
P 7.805497388202536 4.484982513753345 12.673913797512785 -1.222917450751494 2.0002493539157036 -0.21983703359942786
P 0.3789795666885266 7.625673795210651 9.854005589941407 0.39779156803245685 -1.1431057806394893 -0.9509644131831172
P 9.384781357468066 0.8375158206302741 2.542238660688317 -0.42484600104708775 1.492699705920797 -1.3123872127785527
P 5.335208563386057 6.092194123634092 5.789379500859794 0.11692965801022442 -0.5387826378672592 -0.9700396846470132
P 5.21240853937943 2.0301317771255576 1.2090322538755105 -1.503790930737952 0.10488532525118065 2.4702477831297136
