# total energy = -340889.7022462479 ev
CRYSTAL
PRIMVEC
9.12182481678245 0.00000000000000 0.00000000000000

0.00000000000000 9.12182481678245 0.00000000000000

0.00000000000000 0.00000000000000 13.35071266754421

PRIMCOORD
 96 1
Ni 6.544188779228466 1.8717072619980306 11.681753839120724 -1.2884592412080456 0.45267587877516235 0.1434428738094046
Ni 4.597655187145296 0.37492342483157387 6.016192009869434 0.5736398547557605 -0.3414512415695152 -0.8166319863154129
Ni 2.6016174510450525 1.3513892448839915 4.750918265631765 0.7847220249806937 0.07749536327400201 0.24619572609861476
Ni 3.356028861914418 4.267946824238143 4.937160390051406 -0.389664053829316 0.35423116694300283 -0.6127049390780223
Ni 5.215293954677274 4.723755295288289 2.6131218966751115 -0.9187878284505726 -0.622841770401708 0.15950481236827369
Ni 7.271225593415459 6.270661736203597 2.7575094394828237 0.786870181671948 -1.7169343543672881 -0.31680876043048667
Ni 5.129001490626875 4.939085095116377 11.28234013865675 -0.2541013540989366 -0.5532638622025697 0.5086487945963561
Ni 5.885018342687876 7.988657125927498 12.327287147357366 -0.08474715974040889 0.0022103773877574836 0.8549519649415339
Ni 1.7889449442042389 6.436669828513661 0.33516686295871356 0.10227796953532063 1.5063430077358446 0.06265212761358242
Ni 2.556309346506117 1.9259912422902 0.22116411906769065 0.5062340145072766 -1.0160822287283726 0.8356368095526898
Ni 0.6557059674236406 -0.2885789663789458 4.904944840866755 -0.03828141207870181 1.1652249811360318 -0.30329349955287116
Ni 8.35786299087886 2.7623987376573496 1.6440465791991883 1.3552834979214465 -1.5677229535052226 -0.12691967934340076
Ni 6.731441601852842 0.9605555329703133 4.612844850056154 0.20287135227936676 -0.5678656712761446 0.8699024156037792
Ni 0.7045980369864031 7.35951573713045 2.61095911197888 -0.8544523995972961 0.012057445385166331 -0.3835247737007975
Ni 7.755877274965326 3.7621325087985364 3.9677648965196504 -0.20597570223630332 -0.32363349666180397 -0.4434412475507718
Ni 7.40163120293602 4.013019182291367 12.644593477059137 1.2261480418736497 0.00045842769365727503 0.1859036140767766
Ni 8.258799971894998 -0.11906718110463616 6.90784583806124 -1.4872551378664578 0.4844017491235335 -0.2466173870170656
Ni 7.085477871908242 0.6655931134896266 0.6451064068288664 -1.767430563344627 -0.3954953157991124 0.3673232242402706
Ni 1.9565493558809859 6.038812311386579 9.101274393038038 1.8062195111873667 1.1015297569699158 0.3719638083360755
Ni 0.03794223088981338 4.968767513511726 1.265674192353084 0.10505244695666424 0.7011945965799987 0.5455675219995766
Ni 6.582828829727144 2.0404062926690747 7.42525216865045 -0.609423440113273 -0.7663445509147705 -1.7192393483513813
Ni 3.2870769870986707 4.654237867325489 0.7777404781853164 0.6053937501285895 -0.23071717084704138 -0.2691718752788138
Ni 6.2282999811243105 5.518494294272539 4.814948003703157 -0.27255287593590477 0.044792730834658345 0.4036331144148984
Ni 5.524496455091268 2.7301895737501654 9.632739280244 -0.5503752278008649 -0.4278102258817341 -0.7586728933021256
P 0.2806530126777416 5.596367313891806 12.491126981876228 -0.6613165294381385 -0.4248321170900167 -1.3565104283500122
P 3.8189888437273036 6.230616924662239 12.608492942627226 0.3613289543300487 0.13003765614709217 0.047669281051504996
P 2.133357688934779 8.633287373493845 1.2053588614023392 1.577871097682818 -0.8275221508653554 0.32348642956097834
P 6.592543573301528 7.844815068251943 5.758976614224579 -0.2789089000609197 0.7403072463107443 0.026558467214818776
P 4.736379901022513 1.2140692920494558 12.94806838358547 0.4059684474162944 0.289706762007372 -0.10585720224614671
P 4.326882935256074 6.177108299491029 8.259565293008512 -1.145817780254014 -0.20404403243122923 0.05216382648774887
P 4.653727045128151 1.2741547530113986 3.7906810843522925 0.0776858820182533 -1.9083180177220296 -0.47277547773851486
P 0.1649873600978828 5.395732774062152 3.7496146284162566 0.17970571279618083 0.4476853675391064 -0.3166303258710934
Ni 1.3860613015283432 1.047705448566245 2.702531288311771 -0.1724289766291095 0.5775535879878698 -1.038122496357864
Ni 1.6171718585242107 6.511395818524323 5.137233937646482 1.0750916173830454 0.3989305667329065 -0.03938544377615798
Ni 6.281972799144664 5.75983041704013 9.22998881621241 -1.2260356846655014 -0.37215509841127514 -0.026915079223289128
Ni 8.730717585811213 2.3280447988954207 10.346254813303942 0.09413759981637336 0.20784849377898398 0.40739258145733065
Ni 2.52586069481476 5.166182049133157 6.960087441746551 0.64192861182983 -0.021401862714543786 0.5128738884212973
Ni 0.3151982759552539 0.06721872807477697 9.54817631420459 0.27693789237747785 -0.13454659976103925 -0.5702028040497535
Ni 1.3361193099135509 0.7376646524391195 11.679377603720605 0.46333490115090525 0.47502236479116255 -0.7209326984388745
Ni 3.896953081596094 7.023285269382278 1.425922764388157 0.20770039823689393 0.7762013891041922 0.9271611401159323
Ni 5.820682111298081 8.078890218357364 7.9606959959006796 0.32013525370055834 -0.1978589866664399 0.22229423689066877
Ni 5.288596939995351 2.9852631648961814 4.812785219006925 0.7314971042182822 0.7913372163043662 0.6891073263981616
Ni 0.8984878994461981 7.721314680220405 7.41682816330684 1.033384467452246 -1.35021996735561 -0.23827672836185415
Ni 5.144371765671793 4.4222789806090415 7.165728039110122 0.9931826984223798 1.0444553805544272 0.09098979821601104
Ni 8.09797307615794 7.188180499048141 9.012384945423669 1.0436287708880736 1.253169821878132 0.043840137113401914
Ni 4.5494280986215685 0.521756528909044 10.762156212369511 0.93388688887554 -0.1843190431984761 0.045952555470714404
Ni 8.367732805477436 7.02838436953071 4.8916607271884684 -0.47364451060702945 -0.16255156961439748 0.10088263184969079
Ni 7.345148862830304 6.00750620814969 7.035558684855831 -0.09536453024493897 -0.35399951054817097 -0.687764696327338
Ni 2.2685522565553886 5.520163588238843 2.9547132609478526 0.46671281648420265 -0.4463381094825926 -0.4715128089760073
Ni 2.4674718932939776 5.249117681601046 11.280991932928773 0.04119370062949034 -0.7636397503890977 0.865373160274858
Ni 1.1015333376107908 3.2611983697085036 3.761456581569558 -0.13168393350126353 0.31569187321722403 -0.22099145891884522
Ni 3.491779860857128 2.713514877737044 2.6622657286065627 -0.2457588956715122 0.9745848808155344 -0.22889503003663805
Ni 1.0713400970181035 3.3858116203842434 8.015567421719789 2.5790090463965325 0.24606305717549237 0.9235546537115965
Ni 3.813196484882483 2.6663915300325662 6.9915951373148895 -1.3801172691356747 -1.1240819312388188 -0.16011776336192424
Ni 4.637736485986465 6.863580358114372 6.062491656780704 -1.0629616668887307 0.11357899637043667 -0.01472059403962626
Ni 0.7329641760411099 7.103128603191278 10.907144883441592 -0.2492669088247707 0.8032352532935327 0.6213204486611751
P 0.19753403152830815 5.642204484277984 8.080439104234294 -0.28394723381577547 -0.9468503910147434 -0.7521368919558208
P 8.91583590139671 1.6563227312202269 8.12368202760399 -1.5856414856568564 -1.1800561326115935 0.46454460518829027
P 1.9473636781538455 2.9563104924970305 10.407201374541398 -1.040969993108988 1.4078571582531045 0.8258421920597713
P 4.214173666143312 6.1423450245971525 3.940049143584055 -0.5995298351486449 0.46023183674554935 -0.34155048615154077
P 6.975304470132267 4.0458851175951285 10.453514704190095 1.2746922693309402 0.11028875565493908 -0.11685972400423744
P 6.471725001806017 7.947836959265178 10.224776733864365 -0.11860910259517637 -0.21181416329495137 0.7723853577922117
P 2.6393635626983873 8.409246230836143 5.799229403374854 -0.769190762114314 -0.026335809681051415 0.5329182086666823
P 6.979719433409264 4.39509594225067 1.4559217101093562 -0.43408011805084595 -0.5779284548287853 0.6358754636572146
Ni 5.170660865184822 3.449199181978982 0.28570924024889766 0.7094365248738169 -1.597255929967333 0.0351534079726814
Ni 1.686899088460918 0.9960850411601975 7.2133503506395 -0.08404859101148751 0.2936310367624427 -0.6828664876947723
Ni 7.048862866549013 0.7642684549130083 9.433146452823918 -0.2834006172836861 -0.5497082836408275 -0.2298679354728686
Ni 2.9646204750287337 1.4616903522093005 9.377527037358707 -0.29929466280612327 -0.623381702065578 -1.1611603241483552
Ni 6.131216398155135 2.2493781805052895 2.379644226104077 -0.3669205894852132 0.2000667929510361 0.32829413536226687
Ni 4.2711212193216035 7.174953852867054 10.541482847484263 -0.4407058508974797 -0.33478797061672666 -1.3823944952056257
Ni 8.377164772478293 7.343023477616377 -0.051952441834317374 -0.134950005847045 -0.2887791079867801 1.7942885640777355
Ni 7.973898013154395 3.680346226274659 8.190542267958135 -1.2653805050117108 1.7921419500483782 0.8925471495864886
Ni 3.483770898548856 8.381296959181764 12.528468996684166 -1.4928768549286096 0.8096936073243668 1.1982505441324331
Ni 0.29003845837134157 4.650488797270023 10.375559588146258 -0.9116440183169396 0.3132169293141703 -0.8402681376771141
Ni 8.768025849866829 2.187869714850761 5.776827113474074 -0.29343640425313333 -0.37254976274653256 0.5922014198080316
Ni 3.8213240309151364 2.842926208337785 11.683369314319807 -0.27742434509559316 0.037940740909831426 -0.8458250629396015
Ni 0.9280909579644603 3.400342687533534 12.402357942351232 0.03931268155669359 -0.19110109911731604 0.8363739448290305
Ni 3.297010654471914 8.379591177915652 8.014606893552294 0.23440901787633175 -0.7353529876292626 0.5943426345207506
Ni 5.441150340500517 8.084591358952661 3.5982707818997888 -0.6598417446648249 -0.22849625193632261 0.6404283731352196
Ni 2.732524760937999 8.376097518958854 3.4014546379952404 1.488360969336127 -1.0750597357038452 0.46478526044418667
Ni 3.6135014930229334 4.036334566869889 9.332362145471524 -0.5261168694741326 0.9141390168246514 -0.6198896297519195
Ni 7.516757755661187 6.166426642471683 11.387169975375564 -0.5532219532210408 -0.11321569949374696 -0.5018705953322583
Ni 0.36583899936140557 0.36130362799503574 0.5449478566682125 -0.5668984222668689 0.3061006299843631 0.16878469500830287
Ni 4.399118667054711 0.45239143542295 1.6808276017725516 -0.222086748865553 -0.31125286360926396 -0.6102634195160651
Ni 5.670737552729322 5.845502596993761 0.3356585293236518 1.0145274826467432 -0.479432063823084 -0.7779448541578603
Ni 7.990873729390948 9.061401983988281 11.890452072208364 1.0072240070067944 0.0642796359146764 -2.4100826836040428
Ni 0.267802185684697 4.612906878465832 5.979918160763429 -0.856447575650454 0.40725065656282766 -0.1592710990909128
Ni 7.621649620789679 8.634828961910813 2.7465887906497226 1.236988327022263 1.2462622961250214 0.3753214119543988
P 8.651850287272127 1.4257594837215075 3.6925539646085546 -0.4761037707807994 0.2873022663309374 -0.6683960619927393
P 1.689060960974654 3.487501724954418 1.4843051806314729 -0.6875536087577966 -0.8142560298840686 0.7906358193619674
P 4.80168304585727 0.9883497336005 8.107967859758364 -0.009398153385448329 0.5177121903502051 1.301770613604971
P 8.385638947859142 1.9410878625865438 12.764483446774486 0.8346518199316012 -0.27752127568477364 -0.1407205897822351
P 6.384638938984753 7.569217370962861 1.3260488151660201 -0.39168082714902863 2.0348219496842503 -0.40142556524061834
P 1.7732554052859841 2.9570493603181807 5.955726168806974 1.0254119907697308 0.6918049278349827 0.3728572666846224
P 6.9972880682677285 3.7824012038429324 6.0879515824055535 0.2084169646879443 0.5613669509256785 -0.2515791018977151
P 2.2888391952496896 8.427353053366803 10.08966791139831 0.8437452975924372 -0.0030079335883883684 0.4874608476648315
