# total energy = -340858.7361825743 ev
CRYSTAL
PRIMVEC
9.41212683727458 0.00000000000000 0.00000000000000

0.00000000000000 9.41212683727458 0.00000000000000

0.00000000000000 0.00000000000000 13.77559901870757

PRIMCOORD
 96 1
Ni 3.2443130495256165 4.198589762171008 10.478960319866205 0.5410552359515198 -1.2990190190017628 0.4014309645572571
Ni 7.227976896072908 -0.07243384547654953 13.459793115212026 0.24100646858819139 3.7554298962483843 0.795943861838442
Ni 8.060310093814822 8.410591805041111 9.996387401525507 0.6785506339282379 -0.2066123073790377 -0.19808447241368465
Ni 6.766039124542517 5.55698555137519 13.617317293081667 -0.30222726307188597 0.25769549920809814 0.14271345184254777
Ni 8.687242448261077 5.931089355548429 6.443963674929594 2.144141656557701 -0.040389973781272376 -0.28092875870442585
Ni 9.358938877798483 5.6352097372630245 11.117886547501833 0.19522617702928316 -0.40591882512528155 -0.4428920599155211
Ni 1.637597118788677 6.512824677070441 7.523901692566982 1.554331362689665 -2.452023289701887 -1.225417077244896
Ni 1.1223114125197178 2.092428734580249 1.4318357910363326 -1.935701551941305 -0.028236369137873953 -0.9082149380307326
Ni 7.298746677530088 1.2699688578582282 10.873272901505429 1.5309947448462535 -0.1923131171475462 1.1755237919588786
Ni 1.8034199688635035 6.407502978107034 4.9553718180381 0.9134247643664463 -0.0546804222620155 0.536086836202651
Ni 8.594429465823351 2.4086573710210497 5.872317212131342 0.2866247806479386 -0.6766683293038604 -1.198484257409794
Ni 3.1609686666551102 8.095709102733624 8.50348479055669 -0.2925668571639865 -1.0749442931719035 0.9190110002049721
Ni 5.054923883269196 1.8980400796480552 11.87659150087547 0.2448196716866945 0.6794564335719588 -0.9755991810126619
Ni 2.0427609414229746 1.127431609502389 4.24433081602466 0.12782470765617338 -1.1232131554806206 -0.3912414256187649
Ni 3.0986321508164463 2.7117749148205608 2.123963124232349 2.27781228147169 0.5430398704817164 0.3691957586726351
Ni 0.5747863483008603 4.078745151545355 6.926756837037563 -0.18859015977000423 0.6659907949853562 1.9208215495056788
Ni 4.174645311575574 4.898974354214263 2.9429499261628154 -2.2789942175949336 0.8824146891381771 2.4229292005494076
Ni 2.475982314067095 2.3788679896788523 12.193830058522593 -0.6452782450283533 1.2194613738820934 -1.1136255117921852
Ni 7.497182546989026 0.17262970018120147 6.329323029215188 0.21820669708485646 -1.3960719926927183 0.995434470571034
Ni 2.87046337277615 4.23351816474949 6.453358859907723 1.3226155753747801 2.3274741674731914 -2.2224098934419856
Ni 5.197028173791941 4.19106947285271 8.858702221080245 -1.1164310995617805 -0.975755504084868 0.6895958359988059
Ni 5.788636816333847 2.3830657982344987 1.8896406976860405 0.42243147806832404 -0.6793592458724623 1.0000195188385552
Ni 2.466447829612231 7.203458305742283 2.2342365431085933 0.5961562906907216 0.000593153499308656 0.49071689270828395
Ni 6.156330962151941 8.639748856396077 3.8986318693403996 2.1486223180368738 -0.3576193666889454 -2.039118520177075
P 1.5114369710759417 7.29562185143037 10.839811849496062 0.9089937251782861 -2.7050928601021993 1.8706685828003717
P 7.597845243183275 4.268239500538231 5.600125093379558 -0.06815994480568907 0.6791419876553336 -0.11338924895713375
P 4.370408137021499 2.409683292842945 6.415406340986352 -2.885999792295333 0.9847402240819816 -0.8843592144590575
P 7.964268751882507 2.2264291839227 3.3728450531935605 -0.2632048590621015 0.06826150338055986 -0.10288089322664218
P 4.852431387156708 0.14852336100469757 7.050048168499713 -0.07407913850360144 -0.6056696294977956 -0.46181615051353364
P 6.178270629737615 2.104165656707807 9.419313906410695 -1.597148457855191 2.4405795666413193 -0.9781371169431669
P 1.767220929166161 5.913328672264787 0.7704305809490255 1.660762692271727 1.0058713496336418 -2.777886704135474
P 8.923750370651828 3.4204233541998184 13.242248745910773 0.5066595320804693 -0.3725477058640036 1.2050652530614214
Ni 5.985303205953185 3.943568186352106 3.6448310463682847 3.415378363239873 -0.9511456759559878 0.6149417988283409
Ni 9.36047305446792 7.15311283945495 1.5204679067466644 -0.5298354559763003 0.7096663814964358 1.18093699255465
Ni 0.7525560109310266 9.282286517087313 2.3236545714072583 2.6368773794682263 -1.3383836368423143 1.6370203543494646
Ni 2.921401803052286 0.6830483956785811 7.80329785317637 -0.50998808223307 2.354575651675674 -0.12493890146794613
Ni 4.620742473690824 6.578662504081078 12.671002298501794 0.9603378839782171 0.06055976386092796 0.11349363574548195
Ni 9.135683229951116 7.723393602653595 12.175205341998128 0.37133697338535404 -3.158722875260515 0.20360051713590743
Ni 2.6254845362596564 0.2068192508053817 11.773990847771787 -0.10465444018729718 -1.1076975763435246 -0.5207584333756966
Ni 3.5851073369310726 6.4335275087266774 10.667631107763524 -0.8095357415902639 1.2286926626723742 -0.7095640515906168
Ni 3.9574134248842934 5.324778970934956 0.8129093916515857 -0.5938209576893257 -0.09975674577536367 -1.948564523946902
Ni 9.266097658980337 5.541935560611786 13.710743004974487 -0.8885411137508891 -0.9241496069831181 -1.7068337755981764
Ni 6.262575049542373 2.5005197286513314 7.113623320226096 1.8320223311830837 -0.006624704405369236 0.6380385327468043
Ni 2.152779291662766 7.642270481709395 13.057945184851617 0.5025748204881344 -1.7246630904701135 -0.24796027419820524
Ni 1.9489596856705782 5.058604024850491 12.390696926442908 0.7034432834048594 0.1646966409818583 0.6909970872217067
Ni 1.1242879591490578 8.851295818496304 9.68587192605618 -0.4063620833102873 2.0426422170596177 -0.7156035729164772
Ni 4.1417028677532395 0.5151614661951152 2.6000341453752016 -0.010074867737498779 -1.2554372777560703 0.21068107813177264
Ni 8.328668653318367 0.8068545704770406 1.6438975964728686 -1.7165409755836116 1.1026777545314301 0.09254480140795675
Ni 8.238236938962656 5.381901168522884 3.0057805786588143 -1.8241341866842584 -0.014308446202872131 0.9190799057696944
Ni 6.664152851863439 5.396442904438743 7.624615214245985 1.2361635171281227 1.0052766534724364 -0.36735330614725764
Ni 6.996287982607024 6.91738612358913 5.551827705885293 -1.3167663156828548 1.0957979966924611 -1.1378023661487051
Ni 4.0129167366615235 8.21799145420213 0.7523677683948989 1.3462895219529523 -0.42025015414628913 -0.48250041833576257
Ni 4.7514863271582675 6.79753210083667 6.925131362738101 0.3548006662932277 0.7499717659837019 -0.8714949569018796
Ni 1.7593429790292199 2.174549540965926 6.396478553978719 -0.047655911315066316 -0.8019715560897608 -0.7194044347198062
Ni 0.8066070315420328 4.824599728190238 2.103974590533637 0.7660283052259323 -2.363657302261968 2.299594153233472
Ni 7.695693713462416 3.5878180294513107 9.646872778633938 0.6678502167915982 -0.3865576469898504 -1.2816897836946959
P 9.208316612515961 0.26397250841177117 11.939022137982196 -0.13830195303841344 4.342705339509708 -1.7340149639986588
P 5.34177727194728 4.391905434647275 11.482719406770787 -0.005602690898758093 0.5377382557631448 -0.13946434877763078
P 3.5332465182279114 5.900961137641202 8.417827848129857 0.196971441855164 -1.8346800805209047 1.1774166381062172
P 0.35547908764877184 3.6911631817853774 8.924796999152697 -0.5081314886403056 0.6191152134797403 1.3843842719421446
P 7.136001592920949 7.5410054093995385 12.825151287698665 -1.6373983065141737 -4.8473948923479995 -0.21346378308323236
P 3.3350553640659393 3.2478802455852356 0.047564182816048114 0.3244464794814025 1.02652245022509 0.5091244486811941
P 2.527137223259778 0.3257847687873193 0.9080678760894624 -0.7973394566343881 -0.013966746592737235 0.025466519702220653
P 1.8815594456100815 3.1473210827858575 3.7966655935834677 0.06855280936873355 0.6599497309975989 -0.40624869766087457
Ni 6.4247177580359045 1.3191378082947642 4.646165569407541 0.4196318038359999 1.3725194021837588 0.06958485017767371
Ni 9.02060115548949 5.8070281121135165 8.788432223556484 0.12499160908275249 -0.15449476074819202 -0.034078172630631634
Ni 4.020117013668405 1.5820279221238018 9.7565814699018 -0.38325300809664964 0.4279590927547726 0.1979430617398139
Ni 6.887069663145775 5.659116539351233 9.932744482486118 -0.6558099977976125 1.436262705978991 1.7068890543161443
Ni 7.588527237644958 4.11772076865058 11.821364905626345 -1.3612530852413203 1.2544468888183429 -0.07222974399968851
Ni 6.30810150690484 3.0970697377665872 13.580247631654734 -0.04689383633806117 0.3177942642722075 -0.5272936633910532
Ni 6.421329392385607 7.150053898242876 1.9833007715363413 0.3695438860406733 0.46236559525910054 -0.6970234959214447
Ni 2.8242686544104303 3.215756656795056 8.373856274115804 -0.008336030669521127 -0.3509254996085376 0.8674434125403254
Ni 4.422654852923722 8.733004208793703 5.1491806859590215 -1.7670119877499697 -0.2761326228673632 0.28009520705953694
Ni 1.9940061245659193 8.715205877002836 6.092203318582023 -0.35249952896387676 -0.4357467071199915 0.7754778806746064
Ni 4.445827509121034 2.2064942993467844 4.166237458699434 -2.000362225344484 0.8721834983284721 0.8570957507574142
Ni 6.2122389953818455 0.19723394086576296 8.674218888399087 0.50051433841468 -0.9525484698407853 -0.17052018964217083
Ni 0.17922101258371034 7.991366264958079 7.706469657443042 -2.8671276379811785 1.9202551354792474 -0.24677859518527823
Ni 1.1365707846313855 1.8662365031692927 9.394944968896294 1.0062816976981832 -1.2543900674384783 0.2609836830410667
Ni 5.322567121135456 7.479610106241513 9.16033264884435 0.4968343184599314 -1.0330427678421112 0.9962590233548584
Ni 9.2782863631946 2.513386105995655 11.367885812456851 1.4411925391804405 -0.6219817363942579 -0.23232796697758695
Ni 6.162326486927606 8.721304935173372 11.352430159028094 -1.5048304277460598 -0.6116718698278175 -0.024297953315416218
Ni 4.371725834774393 1.2543635516132479 0.16583226220163289 0.18734934538436768 0.08828911145539634 0.5876554523085621
Ni 8.303961820451617 3.456377678600195 1.5431012480779696 -0.7374520362501363 -0.4690424930586439 -0.024367887321403194
Ni 8.227102392950705 1.6918768540810782 8.17780167273888 1.2453279572362101 -0.3727479948002677 0.9398636752842652
Ni 0.6567932679521803 4.448105243808178 4.817905823605539 -1.1738985976506298 -0.04185987345857952 -1.9505990378784277
Ni 0.5532570494439436 9.08058463962656 0.06073739549425944 -0.06987229951110548 1.5933339692051074 0.3440105176562592
Ni 8.76336772987109 0.34076510981235586 4.161704578429481 -0.16576956233106288 -0.5317036195332908 0.6315647520970026
Ni 5.474309429507936 4.453705459257975 5.8710635168407315 -1.4019616187042758 -0.2907621998550799 0.09136955015293295
P 0.3195144099089081 0.5889205391260032 6.82206198571946 -0.5874245672446787 -0.017197080604576833 -0.016936884964654703
P 7.248354150608724 7.510773658097441 8.208356259990436 1.1363139545286365 -0.6894693377232707 -1.0132833258269969
P 4.076072107532343 5.922016065307077 5.104010948202517 -1.0815826244240276 -0.24581160328631857 -1.0477001127439698
P 6.148895381974899 0.1785734582594313 1.6119650738568587 -0.7818169355187568 -0.6728114174516154 0.4779032858833834
P 6.001266173016808 5.0500295773298784 1.8004156179869066 0.8056896283712962 -0.6349861190737257 -0.04969556745291442
P 4.23151338173973 8.969352125028745 10.408016414063107 -0.626222771058799 -0.5401113839810118 0.08718610819920468
P 8.148812322175226 7.405404898500002 3.5158359660614673 -0.692041212215505 1.7105621322923572 0.47368719091950673
P 2.226175056498928 8.293297880779987 4.03923963170093 0.12147896794380368 1.426231032774602 -0.5282128327712129
