# total energy = -381164.3606890866 ev
CRYSTAL
PRIMVEC
9.28122595889420 0.00000000000000 0.00000000000000
0.00000000000000 9.28122595889420 0.00000000000000
0.00000000000000 0.00000000000000 13.58401235154309
PRIMCOORD
 96 1
Ni 8.172620527645293 9.108465090322348 2.184852534748189 1.590597287000235 -1.5173504145899415 3.0932669596495503
Ni 8.056271080666958 0.7474199002871303 8.413175979265267 -0.8332749941887326 -0.5424657431458012 0.012606633020416999
Ni 2.786567398885974 0.5791577728856991 12.781292102899911 0.5684068884915953 0.46785207229496845 0.2777665589263603
Ni 0.5248709548958314 0.35590995118956065 0.1637059736425236 -1.189776959443783 0.4699791459403002 0.5187969387739517
Ni 5.603354469067534 8.66224231496941 9.88996193935913 -1.5627874638768182 3.083579814268773 0.014268594103872198
Ni -0.06823185979626137 5.767298042091251 9.832556629491094 -0.10878491741590297 0.9512536622887617 -0.9076251269655337
Ni 4.925992045697009 8.711145093856523 -0.15848064350142574 0.6551847055087877 -0.13518783288946393 0.3236162702706233
Ni 7.529682170870386 5.577014350168003 0.8277693285242752 -1.3497371141819205 -0.15122277486513955 -2.417543510757462
Ni 6.779007344685417 5.223028397092563 9.081333282859697 0.5222388745759652 0.7821424371789755 -0.5571760527727824
Ni 4.990849251782253 6.407396343762827 10.07197420282457 0.10989177732683655 -1.207385673664482 0.27146041420267447
Ni 6.2187554288111135 7.870089690559634 7.913040419323326 0.23016746899115845 1.2704381220402765 0.572225233796421
Ni 8.649759066230908 0.010270604501134832 11.506812734666735 -1.0729601728623392 2.49757012509375 -0.3674654062450897
Ni 3.566014025137379 8.207248781209124 9.252940364049497 -1.3856556824554007 -0.8197422498096204 -0.9825509297401467
Ni 7.987478634830692 6.332023508814593 11.745551850392193 -0.002452061084918358 1.019144412593464 1.196366953956475
Ni 1.6745651699957096 6.816967558321456 3.4946228360693063 0.8402920489365141 1.5404067821887728 -1.1014019731428
Ni 8.091428364102976 7.51769082710076 5.904454141130533 -0.5459886686973952 -1.7404789744564475 -2.1397342715186247
Ni 7.5461285030373935 3.2461272957535785 8.200152355941125 0.6664520508924909 -0.3403487525339558 0.19230051874205592
Ni 9.47353282703628 3.5525284040094656 0.876344480139664 -0.5635958402561971 0.1474039153396816 -0.7492989082863935
Ni 3.158855929293999 1.7929657678820072 6.321537579874251 0.4578306835032245 0.1477219608007327 0.8625650014021016
Ni 5.596904017117155 3.771277615546829 4.942257393960373 0.6754964204829463 -0.17870426811485995 0.1124875630784708
Ni 4.286237149381065 7.987033135990954 3.723431968281512 -0.5692448110118583 0.40534084113462454 -0.18467848342042387
Ni 3.9152015844598043 7.274485585506926 1.5195751955281505 -0.838380433736098 0.08359324864162378 0.543364857921303
Ni 7.380505028138829 2.0078168645716605 1.7177934074116554 0.27310643444652966 1.7222992182236272 0.7542755355653784
Ni 3.904138363272968 7.911771675752655 11.448061647053656 0.15251861085842763 0.4556259625424217 2.210044172787781
P 2.434484097105249 0.15803050404877345 10.696540373073184 -0.668895627336977 1.0202060210887591 -0.9883366831839882
Ni 1.160004728872073 2.4341499729754457 5.253657370447157 0.009091677888623053 -0.8633044506712875 -1.5253858832999083
P 2.380922142852539 8.103920894067308 6.2162615634311615 0.1347592299924776 0.3542136834415061 -0.20522056923783366
Ni 0.45842480294885457 2.3430361790231222 7.446877858401765 0.17585985668752938 0.0909615160812369 0.6522824442603283
P 6.640420080623474 8.135300718591377 4.089915091934196 0.24826392148155307 1.316191159905675 -0.37977559107101044
P 6.046913532607869 1.7006454145720598 9.114668661665704 -1.4279305319642117 -0.5110640889060681 -0.5636220655084422
P 4.1710478556312145 6.3295547027443755 8.016169688232425 0.06561943777202248 -0.4277186946091924 -0.507878492089235
Ni -0.15174432979554858 0.21864990242100554 4.192949692339852 0.7305517095858772 0.013452011739847801 0.4865931003478975
Ni 7.370379210760609 0.33248506532256783 6.141956997575718 -0.6484242468565026 0.909547283688911 -0.3286468907159953
Ni 1.019106439578988 6.2456988273894565 5.576481607805483 -1.673195004497809 2.1069624764042425 2.6310160355914434
Ni 8.708490663269748 5.167201823737849 7.291218707552016 0.5823818626144486 -0.9786438813762564 -0.38463086228078275
Ni 4.392284435690451 4.260732340806043 7.235931373417902 -0.2287086250574448 -0.07874466230007084 0.5165235693587428
Ni 9.00588898247259 6.56044375766461 2.069605697398206 1.8736585186666312 3.2531520381753776 0.9847906177039426
Ni 3.3154302090103775 3.775314948781958 5.077853318937989 0.17208393458486493 -1.0404290330038533 -1.5717475012835833
Ni 3.7668319083752735 0.3827150595030682 1.5809612231537657 -0.516154101834466 0.22491213412949007 0.4159582116391546
Ni 4.517330391269512 5.079067303276275 1.2595059666050537 0.4162307485742509 -0.8949624438962006 -0.7920144448770489
Ni 1.661320860739321 7.764645683929061 0.9831444738636914 0.19450549681317472 1.0162213254093981 0.984575416369343
Ni 3.280941173833966 2.45749225593257 8.584267024299038 -0.06531347649582946 0.061708275643074365 0.24220614532324736
Ni 0.4471174855227452 9.043041729461603 6.436118953332375 1.0049964032278562 0.5690077553003877 1.0868209900048316
Ni 2.069091517487341 6.5325351116001675 10.726316401774197 0.3414625544234248 -0.9167587138356856 -0.8532614646129886
Ni 2.095283136773626 4.497951191740894 9.309381354554016 0.9694388178382207 0.4097363990991589 -0.2913137014831757
Ni 0.6764250195619084 8.512610392172286 9.411574147777083 -1.0488110864199613 -2.1490185250340277 0.5815426545426049
Ni 3.9187284502743993 5.467607260108923 3.495587155432823 -0.6450054509829407 -0.6324949772207559 -1.3989845383538229
Ni 2.5474830215597195 3.0489198093627303 13.382031510203186 1.1808359482004116 2.0436657732281254 -1.1639484284164536
Ni 1.975843041594605 5.27559726018169 1.523216220420429 0.552118692854533 0.426822150936852 0.7965113043061379
Ni 7.4151240004768315 2.297400391627424 10.52163288797899 1.2283432497527556 -0.23279899307673457 0.9102373677774
Ni 1.2086661958876612 4.603497291855574 4.195530801242586 1.5866174764168803 -1.9416210027495333 -2.1067015094333716
Ni 6.6554371040129885 4.414587221354853 11.242549319792019 -1.3223296687032453 0.46293895126406726 0.4875960876911151
Ni 5.97686812128484 2.163388771898628 6.9076061535113915 0.38586036381250965 2.1595842163650167 0.7605821945096966
Ni 0.6492774340153519 1.3997387920062794 9.58111615622018 1.337375250182458 0.17271179797685093 1.2938269332778622
Ni 6.153350630402026 6.042272919693927 6.799708190771926 0.2881396746305683 -3.4367059210730555 -0.6595851485693286
Ni 6.663261177385894 8.31833577314305 11.79571780411448 -1.4429033512239602 0.48364867300759296 3.1109867455268163
P 5.72281312669821 6.5068910846377275 12.35186092131478 -1.0482171615897045 -1.4830457277708005 0.2353973499315301
Ni 5.309250985033592 1.1205873627810556 11.439259332478493 -0.5226520508539837 0.9688322946024734 0.8693948798397415
P 2.104824236924689 4.757695577760015 11.990471334396437 -0.21778735015925071 -0.7368642820674665 -0.8079195461430795
Ni 8.412957870458312 5.029848962711015 4.801078811647286 -2.4786563189083832 -0.46976471593664904 0.5196402606108534
P 4.681125464679983 2.0702516707158267 -0.1020136655645883 -0.7435650911264098 -0.3021958956133183 -0.0008209532393985862
P 7.925118078493149 2.2235403964891347 12.699380644355935 -0.6000378851333149 -0.5246693383943286 1.2277503533637628
P 8.358801917752618 2.7375346828372704 5.805765938780076 -0.7943392363554835 0.4645808577428644 0.47181902736251646
Ni 3.226256191256082 6.124318956012409 5.607113365527826 1.721856217148938 0.7319748151856491 1.2005398543872419
Ni 3.089311704165675 6.304940891848831 13.218806304058546 0.4324675221480875 0.5456251147103893 -1.1213874151257912
Ni 1.86987928631767 7.035150615083319 8.084592741280742 0.2201062281004145 -1.5731124999519102 -0.8182507528657585
Ni 5.199778926393717 7.878582012192146 5.862519706594995 -0.9566403805219718 2.115117244300893 0.3809665260553181
Ni 2.9534902454004417 2.578361659889085 11.053976157788847 -0.48675559406769076 -0.35691077065769505 -0.4240106496299859
Ni 2.2602476446384103 0.3969895848263516 8.032579823618706 -0.04179328188670221 -0.0680604431133473 -1.1017207899347992
Ni 4.864318300070729 2.71465646117154 2.508192808262544 -0.6542984462490925 0.7103729206451571 0.015474698596831414
Ni 5.253220224710664 1.1216547037512623 5.199892157348816 -0.3123990613985652 -1.2925737775970512 -0.8396826974872894
Ni 0.6984864933547852 2.074818033823145 12.076050733387593 0.35438749001520903 -0.2865985553956935 -0.1604790033560849
Ni 7.550388585692391 7.949277109323128 9.925715077493301 3.9882653989900088 -1.9992761913691568 -2.7375065005462145
Ni 4.782198013945625 0.45052091103382974 7.810317668105488 -0.5937888188998096 0.11300178371072796 -0.32756317073351326
Ni 5.805620223534579 6.196341268436778 4.481800002555213 1.25705244476199 -0.5986906270768012 -0.05410629492610037
Ni 4.562186555695669 3.9464700342739403 9.993051298997171 0.7384172283768832 -0.004114279278689688 -1.1080791280526594
Ni 6.455862905036029 4.7554866460129785 2.768000306617295 0.03598104608029932 -0.810061789297063 0.017182425316557504
Ni 3.3377144322231236 0.8883376801544539 4.219030865038785 -1.8675351793777129 -0.09619988166204078 -1.851076005380425
Ni 7.242483918852387 0.23278892184720182 0.4452352529248507 -1.7339501721989943 -0.5049428064996788 -5.058215838491747
Ni 5.718107545203474 0.5502226232446925 2.6818918777539493 1.2743891362682247 -1.1019195362091667 0.9459631033137837
Ni 1.10395540609749 8.16237405433131 11.918395190862267 1.522553813167752 -1.1751993187399246 1.349566135821695
Ni 1.8568577264811508 4.184152946500185 6.7274139384308 -0.17243386172511593 0.652395829909741 1.28946839919885
Ni 6.101338640862572 7.429816180962369 2.018325996576572 1.43137812419318 -0.23882540177647252 0.19340635021172498
Ni 6.363208427596278 3.5757593122566553 13.944939712909429 -0.6208486512310791 -0.604057033595037 -0.9123510716862931
Ni 0.7352856256397566 5.943864082240889 13.362416567538538 -1.5887468640550573 -0.41192466499972924 -1.5185050970196752
Ni 9.517989898751836 2.3260700982097533 2.8732085701118404 -0.38775475262174514 0.013593165303402396 1.009182930505378
Ni 0.22637745104530055 3.477740286288388 9.988731816496873 -0.5454957882213767 0.5714423328838094 -0.634822596912668
Ni 4.379030845208234 4.471026355614207 12.297103545175439 0.540477766181495 -0.1287672740751008 0.12935374270619013
P 2.65868138820358 3.652895580112187 2.594329080803374 0.970942913187573 -1.1691667393925995 1.0007075460445152
Ni 8.761245150875434 4.152299779458891 12.027556328436907 1.130360050938047 0.20503082182453075 0.9120559090433775
P 8.16908438060487 7.062827230502065 7.893044946399735 0.921845898550606 0.11540782204905932 2.444766093918841
Ni 7.161291755310071 1.879754510598537 4.212076442525952 1.0103134445653956 0.8235811639397365 -0.6776147523775298
P 8.582525866333725 7.669513119193264 0.11955054176637238 -0.1578266533349024 0.27920046315940944 -0.23652657843996683
P 8.660766600062777 4.673199297822973 2.64047347937444 -0.27548830441514494 -2.604995443157965 0.39055108441995967
P 1.7121726970502897 9.419887341751117 2.7876291711206838 -0.6564463458300308 -1.0342049064710124 0.40943712269118515
Ni 1.9711931474548359 1.781781890759409 1.3787771434740066 -0.6034050018333349 -0.13685802150303528 1.6090817189576676
