# total energy = -340897.6408978258 ev
CRYSTAL
PRIMVEC
9.02221156625521 0.00000000000000 0.00000000000000
0.00000000000000 9.02221156625521 0.00000000000000
0.00000000000000 0.00000000000000 13.20491860634199
PRIMCOORD
 96 1
Ni 6.6284384009632005 1.9653534587491408 11.484396573373306 -0.5412899776701452 -0.00839028094622426 0.28544978650323094
Ni 4.589138896133733 0.4308701493703915 6.101412227274812 -0.13801604636687842 -0.539463980205 -0.7852930669928153
Ni 2.7525323965800856 1.5749984526838146 4.7184082413795005 0.18355928221431614 0.44970008397629 -0.11885618560897594
Ni 3.476113765008855 4.302719767428749 4.900702026281038 -0.6692820641421183 0.7806529971176426 -0.25064116346447796
Ni 5.187997211730092 4.524548883458152 2.5802144710185937 0.04983594968552062 0.1958291007206047 0.2131681062196845
Ni 7.283180295063897 6.14392759488637 2.6167661567781386 0.044200091555981945 -0.5758998544345307 -0.964010704844114
Ni 4.944848609745612 4.494658296505477 11.445177921871773 0.959725704315515 0.31506375271492193 -0.5271185712657696
Ni 5.600438591734491 7.691363191204226 12.476456402787353 0.09630426845038899 0.7033409534990402 -0.3831653334788498
Ni 1.8888902156389933 6.577796727384763 0.28583719605830515 0.04553140877289578 -0.08390820877888129 0.32116678028886625
Ni 2.920255309785707 1.4639891614475604 0.3544872039432741 -1.6073050866732188 0.20125927059724047 0.36026194651811505
Ni 0.5076473654433983 0.11338032843853697 4.863186768325132 -0.2169553411762586 0.022102231215678062 -0.25528020489838615
Ni 8.53874734688461 2.2576370249787967 1.5353756061036572 0.40014438453534956 1.1097670572780436 -0.6490860488102176
Ni 6.88106032510292 0.7280536787072005 4.933700765121789 -0.3581032483038994 -0.20197300883481345 -0.4326680681946678
Ni 0.7895021573118722 7.6513045718049275 2.6382769136186357 0.111482261742408 -1.4143440515290286 0.1027983608151649
Ni 7.559341169206493 3.91924870879623 3.8466587011158393 0.17375052365401045 -0.3646695886675075 -0.1719425239109942
Ni 7.822095036946531 3.8169097628849142 12.757152742689412 -0.27233484638782773 -0.23112314803620843 -1.069004530648701
Ni 7.9333479278953485 8.670652080131852 7.001512262975054 -0.31064171238782634 0.5416579025325252 -0.21255644077761457
Ni 6.916409350059329 0.6766631615679204 0.4575425134537576 -0.43541246370902437 0.11691551694283736 -0.41200025543267105
Ni 1.7432446541608682 6.379623850108729 9.205069249543643 0.4094263240579078 0.9968619470461801 -0.46046837823638764
Ni 0.2551508500445903 4.942728390025153 1.2940567086268742 -0.3562546251309348 -0.5774000931291412 0.8888344766215919
Ni 6.339754697152535 1.9646497262461802 6.992638015668489 0.2550536907098769 0.28439743397931666 0.3278007406656161
Ni 3.415006326001772 4.296268886151609 0.43928245944424416 0.3327696546351172 -0.12022838336615423 -0.17905136704163357
Ni 5.934197264580943 5.5893773603418015 4.770316633463267 0.4723648725636575 -0.4572275027015867 0.11860344616822156
Ni 5.13102194562501 2.7863747122032314 9.62320364505276 0.034545342075037275 -1.4200722122620575 -0.7296757347388273
P 0.251307387913036 5.567462408422681 12.375121629024491 -0.00594387628826073 -0.5507557510687354 -0.7852071921472283
P 3.9384209083961195 6.081972067991104 12.560782503286347 0.069381475917616 0.958924034349826 -0.39158672477332557
P 2.3253577450713947 8.444095325236404 1.2908953256904971 0.5044884925710796 1.0330417394008466 -0.10205942576661133
P 6.233572289109665 7.783949126401433 5.758057530195681 0.30344262353622575 -0.40274094161793217 1.146396278465303
P 4.906251588621693 1.1991331184102167 12.603025400108297 -0.360193812284341 -1.3452561955924318 -0.4700750480882162
P 3.8205727807849397 6.201227660608204 8.156942690730256 0.6142648273659743 0.25691439806769945 0.2835613112312665
P 4.738276053491932 1.0101809413652825 3.7980118385169477 -0.12107607607843018 -0.6556788715363869 -0.017259044190763823
P 0.16940826232809633 5.615550796124992 3.547673436127219 1.3224582238613094 0.43594931004910076 -0.6495496187101976
Ni 1.3703566497074884 1.0951791966267217 2.666284565015312 0.6663193819693686 0.4725512775428507 -0.5728335568043812
Ni 1.9605536421904861 6.599892123535413 4.781989570800838 0.17286246462210228 0.189683392834183 -0.864167312892215
Ni 5.788777258392229 5.54023337388505 9.18713760403551 0.3983590105001526 0.499828625201565 0.24180968121577712
Ni 8.53807068101638 2.3350295558813157 10.046394087929304 0.9940548166146881 -0.25268441914675194 0.21730372565461287
Ni 2.2847036597080526 5.29499161881484 6.968988092463223 -0.12881921035895877 -0.5232477754564537 -0.2821628882218431
Ni 0.6189543896616742 -0.1628915189064492 9.080084552575514 -0.39251489301454984 0.22615500539765568 -0.09699358120792972
Ni 1.476502968904053 0.9942838045676329 11.371877866140316 0.037079935571432916 0.8742702056541717 0.14662538530244426
Ni 4.171148856009837 6.668136131899442 1.4837838936462227 0.35908463838056226 1.1842485734263861 0.2808575391468583
Ni 5.701198650619934 7.962273138209347 7.998456717736573 -0.9401364693296776 -0.35591498240332897 -0.13759901343411787
Ni 5.20518452478317 2.9090226563730655 4.850351770136519 1.0707824484847301 -0.5928786483807145 0.22743824298545345
Ni 0.9291344147743144 7.481389261186236 6.809314796426082 -0.1479549027471452 -0.3722810824661782 0.6535119457920552
Ni 4.961891567413467 4.52281661883548 7.138196061694322 0.10702371175042213 -0.44290851497575334 -0.6529146785276885
Ni 8.032014833695062 7.1170813799420305 8.932995437245163 -0.03855934833043682 -0.22483011593864508 0.9247008515008978
Ni 4.604909721969313 0.36084425422001865 10.434764207447818 0.016108475526088385 -0.16400090046641433 0.22817152160705223
Ni 8.092093740582433 7.088986213093063 4.771412832169802 0.22388497841655636 0.9230522601538812 0.28066753462323923
Ni 7.038967072113399 5.997424923308485 6.98847877613176 0.643686475061201 0.4241841990933727 -0.15718773419932283
Ni 2.446408757792203 5.163962040090514 2.5363349450166823 -0.34841378893027736 0.2568820021678672 0.5045918509181633
Ni 2.3058156347968723 5.243285324270386 11.338020212757492 -0.44726730616508137 -0.3233694443671398 0.08399074119035857
Ni 1.0420925037110749 3.5029638666602767 3.769264365771005 -0.03320811132085249 -0.43387931489394954 -0.6611203542669323
Ni 3.884982349228992 2.597855601313965 2.4781146137140526 -1.203213287454347 -0.0014863547375393756 0.5552310132312696
Ni 0.9673885918583291 3.4312463068393257 8.041716417803185 0.021113384939847508 -0.16820953923112322 0.3034477657425484
Ni 3.5135018097815336 2.602646395661043 7.201526573633835 -0.028005998294622737 0.7587399990946352 -1.0415369213560512
Ni 4.169723346580763 6.660945429273037 6.003233423121383 -0.0007566756603664388 1.5396557629553613 0.22632007022061024
Ni 0.7527059696186068 7.475885712124621 11.345929985646537 0.5894302848207978 -0.6464023313304674 -0.29141166051362066
P 0.18480917748904285 5.547252654491503 7.842863265774289 -0.5557048675438946 0.38147868980504623 0.7630350269255632
P 8.514197909185176 1.537023964158669 7.970369670878024 -0.6047910835475843 0.2729097450546913 0.0487655994394773
P 1.8497067507626075 3.252913272819836 10.326589695088874 -0.3802255341242355 -0.5075175092053905 -0.5549888153134765
P 4.114561545002539 6.098924803543194 3.724209245600686 -1.5285920489420322 0.2808621671325485 -0.18023664559898636
P 6.803712905258283 3.836650361814118 10.349368072655858 1.1821731789545964 1.3201231479702298 0.9120883049432099
P 6.207155253613911 7.649698618144325 10.198950663474966 0.44658493538607597 -0.03046345869617979 0.2994738686964649
P 2.45984283082949 8.698431469575644 5.767155528349342 0.18989602306562134 -1.2984999132734991 -0.28116735707779317
P 7.04762839522676 4.023807118755345 1.5693252860445626 0.13148390167531548 0.1351001582716641 0.40592216755939126
Ni 5.392675103552724 2.9090407007962185 0.5946250939247039 0.42982262832607265 0.12051737536148276 -0.5833473118515115
Ni 1.4519354867814651 1.2476726166913485 6.988689895882648 -0.41810019768282186 -0.3083161495784432 -0.7400753328055965
Ni 6.780760399007875 0.7432218208094755 9.27384105728489 0.26427315242561583 -0.14315208204186314 -0.4825690667901689
Ni 2.511161170276159 1.458115701711312 9.103735378001938 0.7019232472159073 1.1479695364896938 1.2092006153860335
Ni 6.376348787306489 1.9214062661604059 2.7669192151598425 0.35510611334878844 0.6684320574369972 -0.6094051852808279
Ni 4.004923629925901 6.6970703644250165 10.336863287410942 0.3479101098209815 1.4209481871091076 0.32571429045023265
Ni 7.964880557354932 7.088309547224831 0.10426157919825071 0.11057620498837085 0.1289261682504683 0.5240432747745556
Ni 7.382686266540217 3.830208502748555 8.271006000585128 0.9453594082915137 -0.22449947207210372 -0.48278658211761366
Ni 3.2144064738116818 8.34965983666603 12.288973041787058 0.11135216392244694 -0.29723906582867515 0.3732879264641377
Ni 0.13233870162406533 4.711822929149873 10.087263804149323 -0.12684948822709766 0.21806734329351476 0.24754478392734142
Ni 8.543087030652869 2.554142986226217 5.852789849526919 0.25895302576428303 -0.0018884752719644893 0.18582211010656383
Ni 3.5148370970948433 2.771217396754848 11.643397714648003 -0.3388297447862681 -0.8413873388832218 -0.570723966660546
Ni 1.2350595649075156 3.375570239201246 12.618105124537124 -0.3542576493055641 -0.38845126446813744 -0.11388110099188774
Ni 3.1372755870448787 8.443301370617679 7.978609656710767 0.10793465360046574 -1.049459518637238 -0.2301150184866682
Ni 5.661915941416208 7.707242283578722 3.6593467621354976 -0.46645699171965466 1.3869623170819663 -0.7993395177835524
Ni 3.1918058338127526 8.256027324925958 3.2955513425088325 0.057801998610132715 0.2233193357210735 1.0944486817534185
Ni 3.528695214076223 4.2321119396316975 9.149173039943097 -1.7874000644880188 0.89079442856144 0.17531452570702064
Ni 7.334092634989626 5.91286875641429 11.224642590982427 -0.43291797942194477 0.033148975948142916 0.10466395326899396
Ni 0.3257514600723809 9.007658749145815 0.3821240424441595 0.933163123335638 -0.059370885759149374 0.24136308059666173
Ni 4.605081143989264 0.3630889804602316 1.5286414273830182 0.8244098304886188 -1.1971958776156737 0.33455322889810124
Ni 5.939042192197481 5.4820220647939975 0.19572154239072112 0.6213137637929558 -0.17910510309770444 0.9898142961707793
Ni 7.873720131586798 8.760594507337167 11.366477170290672 -0.529288839444211 0.13993537487677835 -0.2937745043188425
Ni 9.200761143515901 5.0570398106983765 5.664553133859995 -0.35920856555293623 -0.6759386502266875 0.5172493917811738
Ni 7.922539318426799 8.985906197035069 2.645196047676591 -0.3614917051601581 -0.6345104649888879 -0.11247033668729016
P 8.495314420355733 1.7747051059278398 3.708654050621783 -0.1588502095034103 -0.11329643213301131 0.5513023676008247
P 1.9213160440446417 3.1612385809918466 1.5524230748773 -0.7315698664377465 -0.4655882159614562 0.7643110654245094
P 4.699417388232297 1.1038405197400836 8.222597324371856 0.35632250225439277 -0.43637894138735167 0.5142072625207402
P 8.68587255106127 1.6312158530164786 12.330621374866121 -0.9876144603059831 0.4529643565498586 0.7226674217417941
P 6.364069557350983 7.788261743534961 1.462299301219297 -0.32304394270692105 0.057278007785862645 -0.22630695759448766
P 1.7627957866469672 3.3653751401198937 5.83327300144481 0.02009008588165572 -0.808104408460376 1.032066519971771
P 6.832421582494448 4.050179043193216 6.048235312243402 -0.040812148920355514 -1.0052720254867462 -0.41818478697682815
P 2.4950294559775226 8.506104985401128 10.168210184191791 -0.4913051611115862 -0.9145051419148185 0.1942879814857299
