# total energy = -381168.8895976647 ev
CRYSTAL
PRIMVEC
9.24306793828512 0.00000000000000 0.00000000000000

0.00000000000000 9.24306793828512 0.00000000000000

0.00000000000000 0.00000000000000 13.52816423130092

PRIMCOORD
 96 1
Ni 2.7879496037570277 4.463015344082012 10.653835525414063 0.5126849123389429 0.21464880453026902 -1.4080422776807169
Ni 5.49890445175926 1.41307098019657 7.779898585125068 -0.5758558885704728 -0.9880338072315887 -0.5761111991143885
Ni 4.169400048607001 2.949536917095004 6.149078486615526 0.680376374283067 0.37050393596109743 0.2767949390417104
Ni 2.5229508465553474 6.771600959489073 0.8120007436533117 0.4551063425935259 0.4941706555848393 0.15736205499365802
Ni 2.214444968664853 6.348268448856463 11.750577295034562 -0.9224045992675532 2.7288151434198036 0.42358333228458017
Ni 7.9729964413014205 7.562336176784035 8.830278974683754 0.6074429193481345 -1.0142359195482533 -0.19552519632694068
Ni 7.7908340587785485 5.184233447567631 9.785516768937946 -1.1493000823756594 -0.6701361846122975 -1.6676504205304956
Ni 4.658829737919389 8.083802339499318 12.604218059657304 -0.44231561858676083 0.22531785420834102 -0.11148097619082736
Ni 0.58420256190017 6.057102566379653 5.487064081756632 0.3845591285025829 0.5223543171079069 0.3924639851719564
Ni 4.001693824307479 7.028438087719387 10.189034914875293 0.4337918973864658 -0.1519902491587834 0.5200827474649108
Ni 4.746380077236247 7.654489563923928 4.573155741389832 0.5989302538914331 -1.0140464292452662 1.4957418351812304
Ni 8.034139335577287 2.85423164379516 0.49325169789637474 -1.252731705899449 2.4206499175969283 0.28426142262208465
Ni 6.835239482102732 9.132391422495544 11.236168214674475 0.623699747526629 2.4393567499778115 0.941069008446276
Ni 3.0796053688334775 9.30823154656268 1.0794091686611473 0.011491031358735049 -0.269398132357007 -1.08758615030563
Ni 4.059712561627149 3.1586890579376834 8.967900861524607 -0.09639477128166625 0.25857224538609663 -0.13921880842572798
Ni 7.374590981238847 5.166052332973432 12.069557417489442 -0.41934384028193583 -1.8913492510781746 0.40799087716296195
Ni 5.792381101215505 6.067574962330455 8.90688921881317 -0.36101913639911376 -0.9287655084885746 -1.9466053433380022
Ni 8.874056917262557 1.461199634844256 12.564971993278569 -0.7901791914405231 -2.9006854193319658 -2.300482469375696
Ni 3.5754405042128616 2.7180165518913872 1.1020556093664085 -0.9889547763839613 0.6304946589612754 0.2166234117581366
Ni 1.5548503989868239 1.5882178741698747 2.4114896148420812 2.6228826078510314 -1.6068083495424585 -0.015615337939753754
Ni 4.126817234709961 0.40951135117521037 5.746398686938319 -0.16271354911355848 0.16075976782129733 -0.20405663083671957
Ni 9.113794369845046 8.106632717256142 4.223601398876643 -0.12708551549730374 -0.16773671335976273 -0.5733421210096835
Ni 6.507535752147086 6.906364889729761 6.795143053475563 0.09958988118019624 0.692085435189879 -0.27152494889202267
Ni 2.3248534149422886 5.08780976304974 2.6543207222566396 0.1322935420608044 -2.041536385589948 -1.942611648797577
P 1.0525081437933492 6.948393119551736 9.637396605556122 -0.011651725306315417 0.2282136876988973 -0.007995102390334618
Ni 4.927211457978962 1.2681581613822017 2.3306589859014224 -0.9408831176877152 -0.4528111188014459 -0.18553440366281596
P 4.120670594544661 5.722429563214029 12.30295874701432 1.0554548169887243 0.5479933578322498 -0.01590664392792744
Ni 3.213759256591594 2.652178179113307 3.6283616895758968 -1.6634374108904129 -1.0823765810802328 0.5016867614562264
P 7.534440597808287 1.987213386975069 4.577321592100359 0.9893635817866057 -0.5794315217368731 0.5057174798821742
P 9.095788873541284 1.6058074324173386 10.234583829267137 -0.7567934168912256 -0.3438125427128401 0.22380758821140168
P 5.339905197438252 4.427540449413716 7.3576299516097885 -0.46267335630750644 0.5562720529012743 1.7822768843288401
Ni 5.658144025846129 5.131353856010226 5.362428705340207 -1.1086041473181938 -0.44835359725072466 0.16832678153527783
Ni 1.0208321500392454 8.451796602508404 12.820722136721756 -0.41680461879984987 -0.19009219823682746 2.1293192468328876
Ni 6.444608945763093 3.2130105680902568 8.862272929974226 0.9820112551865927 0.9423905554711769 -0.02852150447846056
Ni 8.386790105842922 0.6144403342862732 6.603963133892143 -1.3592838773300913 0.4213410732176227 0.31406847868118815
Ni 3.2532271566003548 5.202035596377203 4.904473510901316 0.9949248779244673 -1.8706724394551137 1.2792883733420548
Ni 9.044443631258224 7.7277686063757915 1.570335310669418 1.3867445446442053 0.6774697421592332 0.0860926180247098
Ni 2.848584129297419 2.396154440859755 11.524466897483201 0.5930982205906883 -0.8029331486720818 0.9851518576981033
Ni 6.36858471213966 7.1475535039753355 10.869297908724187 0.19890722542529612 -3.2490518999640754 1.3034210047242003
Ni 4.623401058590682 3.60521242597591 12.525835919408054 1.003404119040072 -1.5700809122144377 0.8728111046101419
Ni 4.640260414472643 4.1058539566725205 3.0673351961726745 0.8448125625146871 3.0012165813795084 -1.034241673246219
Ni 0.038784837289639704 5.6728405038353396 3.2175387470631587 -0.2883379066843034 0.09311712897165898 -1.023629187837695
Ni 7.605048393631923 5.2458847105789745 1.2375673038016408 -0.47885125161894954 -0.01065773682416229 0.7840401684223207
Ni 9.208434142254815 8.678889538179423 10.764319764848423 -1.9908041493424038 -0.19156235502445074 0.012190371418604812
Ni 8.824403156408444 2.881323075862064 8.323866072379305 -1.1433405223581148 0.7424620878702181 0.6960032821870464
Ni 5.478052090536833 2.458822441342049 4.314361855681333 -0.6937332552059472 -2.4788679206985567 2.1828125907653377
Ni 5.818446552743539 8.437026179975852 9.118145081913928 -2.27232529021519 0.5186460150183843 -1.4551996520928099
Ni 0.9168309984423892 4.836509232502155 9.17910311483144 0.5326716398735148 -0.7245116740393844 -1.7132044550112107
Ni 1.3019508176894687 3.906351578735964 4.542040801858335 -0.7870491304519736 -0.686562705599437 0.4147785895087566
Ni 6.845379127608495 3.4601055027352694 2.9831086640790367 1.0967698736874272 1.6324191081320276 -2.2929031143665415
Ni 8.863501333700494 0.9402880562040364 1.2438646059739988 1.2669653330003277 -2.734065850295782 -0.34550792813739206
Ni 7.664573751022185 3.022631098188512 11.211560394957068 -0.8614324304595552 0.32401530548125484 -0.5985631003600014
Ni 1.3403372787518537 8.606091135259282 6.085928922294716 -1.0089695289429914 1.507113824463598 0.09471301270386914
Ni 2.4193545413332886 6.864336659907784 3.9091522283150404 -1.4852375932157968 3.42651921034804 -0.6458009503010427
Ni 5.828734087335986 1.9016410641926083 10.725791884846897 -1.7001861883746718 0.0679902519970442 -0.0395826473886286
Ni 7.848603233264441 4.657461763867563 4.846491745853316 1.2736239759674257 0.06051914043097965 -0.0007134811272568358
P 1.5007599655321942 8.619317965449572 2.6570400328380397 -1.3982975395891273 -0.6701922346612136 -0.7907846862350059
Ni 1.0882418443633421 1.7894024904674597 7.142600143878218 -1.572156049575912 -0.6601569619123986 -1.490694245454994
P 6.065744834882743 5.829334886750639 3.4379665064586926 0.7903375713952582 0.45265068196418173 -1.0151825997322388
Ni 7.0705864774242935 7.6307903377828366 2.5702975376571926 -1.3985520788020946 -0.49812218403341957 0.6081851968307977
P 2.46959061546622 1.794134941241344 5.422345044503389 -0.8292419617699396 0.05494858832173762 0.3377948757638505
P 8.26546559635463 6.999941709328986 12.47813521880496 0.10171309817078612 2.1177716512046043 0.17561663032847175
P 8.621647218564842 7.72695521639903 6.673118843745901 -0.09556044830582897 -0.9935776198679535 -0.2955621923468846
Ni 6.3935225093817305 0.10451968770704148 5.402256160690968 0.6737380430309429 0.13995362970922348 -0.5238147037035172
Ni 5.274150012271431 4.711006856315046 10.686140047786573 0.6827813841801338 0.053904720438255546 -0.4781580822066668
Ni 0.5890958420558229 3.3035926336841337 11.664199901036465 1.8022985788664057 -0.22190394343078557 -0.1342825474663752
Ni 0.39894190301127164 5.947516753146896 0.2577642079424631 0.5748577863232616 -0.7099183496062419 -1.072702034104946
Ni 7.242239491724691 8.757132108103113 0.1062860379861221 0.4399417190379455 -0.2574957244924662 -0.3404623952936846
Ni 7.405009917756138 0.7515362905626066 8.986218773523989 1.5808481780332708 1.1796437276645233 0.1800309573460835
Ni 5.137574440718867 1.1945371254173818 13.345020375447037 1.1547086549857404 -0.7023600776430097 -0.5172067114686963
Ni 8.704123113594859 5.27878078929822 7.3620407436201365 -0.890676414926337 0.04924768128221841 -0.001996975825370754
Ni 2.818174435848046 7.084709885202604 6.276215961517283 1.9744812438126642 -0.9740732312864385 0.07436144563071065
Ni 2.2633130687459584 3.6119598655558622 7.247457203564256 -0.3787106401416058 2.063389476909298 0.4161453879492962
Ni 4.354196705486428 4.999834242608666 0.9151487600813601 0.30214781598420226 0.7286195255601708 0.3364584163406141
Ni 1.7035159033757956 2.3545883644336665 9.544038846666547 0.5286594333903282 0.1706960530984028 -1.0601344818525806
Ni 6.7964925413915545 3.0399341213305267 6.343518436253534 0.485898388273718 -0.438898879595728 0.7912215166621084
Ni 4.521958388193457 7.2186973977382 2.3856783476817855 -1.2979666664778484 -2.0134900209756936 -0.4096433251647203
Ni 8.986129115765186 2.516369782197915 2.861138988450089 -1.5161941894983113 2.5893489948699595 1.048802087558897
Ni 2.3509096234024045 4.502390813411595 13.068978000697236 -0.7365135835962671 -1.0245797246764226 1.2689509959717886
Ni 7.112513033499173 0.9517494604220372 2.65404990036665 0.3969364191210132 -0.9312877606897962 0.955564888069606
Ni 2.5993170736917373 8.178377410433662 8.583782066533018 -0.822348577084216 -0.31921351321723734 0.6524770767696375
Ni 0.19802718429688446 5.418397330195721 11.1662952427503 1.0306269593117667 1.7484666206476143 1.8263358223212676
Ni 1.3851476720170697 2.2999248607681366 0.18714439613053432 0.5020251186322514 0.5206468474984969 0.07102595349957445
Ni 3.0583000972830807 1.2125148925173912 7.752964285212766 1.2207898628855298 -0.4869263153176001 0.5423893813819111
Ni 2.1839798168079736 8.569497829372938 10.867756164995505 1.5306764422748862 0.6611509503945516 -0.18095218360877222
Ni 3.9211404874043523 0.7454081365331433 9.923489892359674 0.15600579807607973 -0.25803102817064594 0.37126883915157993
Ni 0.4126512213468675 1.3307244881174012 4.802525244688991 0.45358759195615433 0.026923563863721377 -0.7662959570650223
Ni 0.5795625418054633 -0.11705698503066754 8.417480788556993 -1.057807890601933 0.39438614189533366 0.6025246561109108
P 3.396069528201149 0.5294198226585015 12.317962094858398 -1.7397320689880944 -0.26563120911540705 -0.4300902801651625
Ni 3.294626857803924 9.215523575347722 3.472260137047101 0.4705463312976799 0.4204650983705726 1.4358847538142818
P 4.233306620190273 8.318308215640366 7.45077142271009 3.036941545584944 0.3121329522213721 -1.0690315272318942
Ni 6.02308807644236 6.382236723454167 13.287106084794836 -0.49814018175554853 0.749739852478554 1.531561673093317
P 5.474780044493952 8.604676945867867 1.3054206653857894 0.5266850832727767 1.454006146005341 -1.183850052436387
P 5.840454297455684 2.818229894255553 1.0450083184848928 0.09913351036906796 1.67522051956827 0.0423650952297722
P 0.42622559089086426 4.114625628126458 1.4665615385433384 0.54557060732337 0.1136810691659397 0.17921206098921394
Ni 2.9603605496266803 5.825203235391409 8.22640901286821 0.5070562532982558 -1.0959982856287254 0.687344578070784
