# total energy = -340869.6758261114 ev
CRYSTAL
PRIMVEC
9.27710549499978 0.00000000000000 0.00000000000000

0.00000000000000 9.27710549499978 0.00000000000000

0.00000000000000 0.00000000000000 13.57798163612580

PRIMCOORD
 96 1
Ni 5.92210533405877 9.177896286272958 7.335789657480114 -0.46689099393327976 -1.1296226585513902 1.980270082580299
Ni 6.990095014068827 5.581672664974511 2.546577562298317 -0.05762973469832655 0.6024151271162399 0.5118778430566152
Ni 0.4595813201320541 7.672472520458971 7.1641372269827235 -0.9975438036045529 0.5688118372394978 1.7965866160832928
Ni 6.925387202131213 -0.1170102781945157 9.865028309310846 -1.0832890655921732 0.3221944502224322 0.46798011323240046
Ni 6.354038096209796 2.9696571825235987 10.977730855442154 -0.002350759620363693 0.1751250354040339 0.7479282531911119
Ni 2.0329014390969826 5.720124189756872 8.284266096190168 0.48182498953529274 -0.4701151572975323 -0.4839695466821214
Ni 8.0170984412989 7.0164141628096175 9.45239378234156 0.41124640798578205 0.20130400779224686 0.2743865867105339
Ni 2.0632932372199395 8.135734068404021 13.539868907054156 0.2551315951356638 -0.7372689737050528 -0.09823953779988887
Ni 7.4673649915516265 4.616065122963525 5.9954937337569625 0.6039732156319791 0.9009497718278872 -0.35713368530177847
Ni 5.240015417943906 0.9122836664215646 3.1980493189122643 -1.6651927030186224 -0.5238550700231493 1.1880396650377023
Ni 1.3347250217778415 3.022425359484337 8.196103905737761 1.1675731696532343 0.6328083946961166 0.28288074022447407
Ni 4.216583676390675 1.3369515271348344 10.18094715441461 1.2897496778846949 -1.8469946362221996 2.5465195584092597
Ni 1.2608421523482838 3.121254366017873 1.4135498053893583 0.42150356693741603 1.8811262877985861 0.9146514376846957
Ni 4.708177505003464 2.534264059963579 13.308825373869539 -1.7454435175505747 -0.2870896360994991 -0.31242451531986193
Ni 2.1382800822223396 1.0250830663596668 0.5985903989642279 -0.19720566935315714 0.7507405258289264 -0.1247085306246949
Ni 4.636391261451742 6.568432007876933 2.709676501382592 1.0182422124941688 -0.3780858620734134 0.09251086284622777
Ni 8.56796369793598 4.875109744144029 8.317111688758645 0.7780595253588536 0.19280368363071956 -0.7938067608907813
Ni 1.2698594990441063 0.66582529448203 6.2067946583990095 -0.22628433188666833 -0.37075436140900664 1.2414982990774748
Ni 8.709179800203273 1.5432743568828706 9.981120154045602 0.18277843818423362 0.3803052383222354 -0.03936641761276446
Ni 7.345964786961574 2.130320325571089 6.222938677658341 -0.4245816916421075 -0.5068431088461852 -0.3410972006642061
Ni 6.928782622800627 2.9965978973432166 0.08179067428914502 -0.31684681275727367 1.1084437104809297 -0.7530172376782451
Ni 1.9448431522279015 2.2953693122638636 10.350753440886827 0.514096962195121 -0.9004610051169267 1.0730735585117521
Ni 3.167686279816835 4.44525505365953 6.275797770254489 0.35459369248874417 -0.62480943565104 0.39711356812882576
Ni 4.409361931883669 7.362088396588464 6.634840313280951 -0.7969496773951371 -0.9125115085235576 -0.5966501996080048
P 2.2335374030790316 6.721281600634515 12.057261254885958 -0.4837522884649927 -0.8425494775121232 0.491842521672295
P 8.682934868307717 4.318334971205264 4.1740481469664505 -0.0017956584478420687 -0.181857469031861 -0.6439430711566974
P 3.0714548628664584 9.127976180748039 2.324401086697924 0.7160656001545603 -0.961963592507098 -1.520460163863517
P 7.535505332581272 6.75379785595227 7.22802123193825 0.9450817291500949 -0.24777618321185713 0.08336930555627577
P 5.6614557736001005 0.8628700908653624 5.58928081932147 -0.4170956676777075 -0.4592738437076542 -4.161657767973653
P 8.696961852056774 8.236622592392775 3.616020037053812 0.9352176918718216 -1.055438619038808 -2.2828053638109074
P 0.1936094841596049 9.122855218426954 0.4970654655275999 1.1278974483301674 0.38577371763597434 -0.18899408007664223
P 7.314060820616991 7.445433913785244 11.597185465022537 -0.773157460071546 0.35202593176156793 -1.5576861380945108
Ni 3.5134996701804946 6.860540233608785 10.419852106930547 1.5540850510068136 1.8858100664275006 -2.562691025962799
Ni 0.984310187009729 5.679453358569129 3.4169806629548396 -0.1439205847767715 -1.1592289114535972 -0.962671160097084
Ni 2.628491622092662 3.491058351603134 3.8725218035745166 -0.7947992067110377 1.3150349348140449 -0.18025078666637345
Ni 4.365258571603896 6.661861738919759 12.95932804485062 -0.3217743319658781 -0.29902675385671723 0.10218926647625627
Ni 7.4661033051826635 1.6943798537774755 3.4629960347099313 1.308071359012018 -0.49618125825696485 1.1774986562970624
Ni 6.492183476505569 0.8164122011705685 1.2245835126096496 0.40328935792223447 -1.3559517276330648 -1.1612487700971033
Ni 3.486688834840035 0.15878508495510052 6.1641867675506825 0.5412431835926097 0.8564871706391379 -0.07350886782242824
Ni 0.1513513401944395 7.2375710844986205 1.4260822474175339 -0.838660426870362 0.13588485895648855 1.7961880950932936
Ni 6.115959733807644 0.9266808066862219 12.27215984110068 1.6986419838160036 0.5602153538197384 0.3632451975161551
Ni 5.628522048527909 5.9066960615672475 10.865494575817257 0.7843466439191459 -0.19090698082863894 0.05823600082375777
Ni 5.131593884163991 8.415596514672412 11.431629020650483 -0.04921040028637977 -0.8293592040740941 -0.9349387271788221
Ni 2.631951982501656 8.219023922966876 8.271543473496083 0.4728394982072308 -0.7747993665503431 -0.8945639229062012
Ni 6.1502757476223024 4.3898150702704 8.949410451117185 1.3109913608722905 -0.14625926021227714 0.15629736117456952
Ni 1.968351337955488 8.616798382099363 10.585001286364387 2.6516933614351363 3.1697199977019666 0.8525901495775767
Ni 0.25874125982561375 2.225549815110819 4.903049603242597 -0.20178300431119445 1.7836169432965026 -0.8637222549349963
Ni 3.1279709905114688 4.832759756832887 11.239540981818156 -0.16892507724090908 -1.5874528278339821 0.13932550920692136
Ni 8.960941893445279 6.410971693609243 12.597095105189702 2.928185167414131 2.522612926994991 -0.9167330028040728
Ni 8.163435505887279 3.5429544806323836 2.038014052022978 0.03667318705131748 -0.1900297204300082 1.63206095346166
Ni 7.018649945272265 5.507316663156592 12.881892971666094 -0.9901472540301657 -0.18369040847554172 1.4410485574034084
Ni 2.7499289351053324 1.1544151962840092 3.8387809703104154 -0.8831428255534531 0.4954842321899402 2.1320459017354314
Ni 4.004230727967449 3.2187567464428666 9.200983291403846 -0.13387451339467912 2.376993871469874 -1.1383160725603299
Ni 8.427712414656716 9.37961767161654 5.2394986831589705 -0.7038634016614136 0.31799146788467814 1.4119102452765555
Ni 3.225649635943891 6.116238046977268 4.477190562163336 0.21195171731408013 -0.7053119611824821 0.5982339991553568
Ni 1.761499713185166 8.110453955496494 4.181760204896736 -1.0436362270872412 0.52615954978661 0.5158465978963761
P 8.184615138095676 1.9970732570607002 12.075714345742604 -0.3123484106662879 0.047278730481305674 -0.7336164645541301
P 0.8887513602192774 0.01731571770344916 8.884249916423647 -1.3991570593759453 1.1231625047483431 -0.5366265107562048
P 3.135949301374028 1.2795911828752973 12.222532892114433 0.231388228772137 0.2961414618891222 -0.35147108769936247
P 0.9217194105823887 4.146420926328427 10.45522292765808 -0.3408694009241162 0.7586294416586999 -0.36941070289691863
P 5.245052886314102 4.487336004906702 12.472734576185413 -1.2565294823789843 -1.2611911495207118 -1.8539983212335425
P 6.015544342207252 2.546036707038681 2.1826738159090877 -0.8614177751715357 3.467616237498667 -0.7314757640620434
P 4.194300068609435 5.359124177437387 8.94831111409717 -0.8508001475566895 -0.12564415506508686 -0.3108101196448905
P 9.010880553181504 3.109667261055854 6.970162224860346 -0.6848729766018399 0.7411184293581301 -0.43352553109895664
Ni 5.00946078822726 3.0848788347479963 4.220959687127732 0.4416065083348782 0.6556901843902966 0.46810095508098093
Ni 4.198818019063 8.500908778267869 4.2925974969889875 0.876530205332942 -1.9916842379545117 -0.6064959820538328
Ni 1.084113289636949 6.707421604787233 10.26704518885897 -2.1087488788807036 -2.7041608352062334 -0.6275800564176417
Ni 7.596993988856902 8.305301005550362 13.631479397678207 -1.5743196328861337 -0.5942367050705056 -0.4645309783415355
Ni 0.9382679116482406 4.870786612909201 5.8747447819838285 -0.5393284830684002 -1.2911468153425376 0.4781187443282991
Ni 0.04482975765249257 8.98764140351789 11.525195125146425 -2.6482118306444393 -0.10546896566879255 1.6920267924923313
Ni 0.5112696419946511 1.0615513686860847 2.5342083973296545 0.14831434296909296 -0.877587700063179 1.1763907679448644
Ni 6.578924414371763 7.479313903634157 5.359799550729008 -0.030608983135108573 -0.23275862675710235 0.7159874386184573
Ni 5.780147063339146 6.813477476625342 8.542424753780702 -0.32131744693411757 1.3093597388061384 0.013748974154976319
Ni 6.5640532140081795 8.29455811720287 3.1850140577576345 0.4282467991985206 -0.5986525747500141 -1.383216991106921
Ni 9.154313883700137 6.742229305201559 5.129231933064448 -1.965321688800583 0.6481596803412063 -0.2148928022202751
Ni 1.6720498604679646 5.5057673865123515 0.29177053908604245 0.5354661718995165 -0.03740260901817429 0.4159384141448127
Ni 7.977188332774797 4.770259896040958 10.598890968949762 0.7200063299698632 0.39146948246917096 0.3310498437305331
Ni 2.1273516517617646 3.377116939959007 12.809685547517672 1.2210626569309422 -2.039754353988861 -0.3717419221332566
Ni 5.006724042059289 2.322031713913857 6.890812357068805 -0.44191324094201956 1.642947518467177 1.1106651436122807
Ni 5.3088422647919575 5.022420904826092 6.868082520505601 -0.10332826517670593 0.1105414950956935 -0.8564509180845638
Ni 4.468317938315718 9.095265106211547 0.05391668264072104 -0.5772545686902123 0.1524201376073504 0.983387823819145
Ni 8.124035638174153 0.2561102726621002 7.895773381264645 1.8180779531878495 0.1067131224885388 -0.5700225697181474
Ni 3.2014456672922442 1.3466553796490632 8.060880813723042 -1.5987248012033757 -0.13446406734956196 0.5218632364041013
Ni 2.410655904227841 7.002173805630515 2.131457698724286 0.7728859515777141 0.9830409820026875 -0.3863511874059991
Ni 8.809214830471847 1.7889785001327239 0.578327344794459 0.04639169989066204 0.07882462360838684 -0.987584378398996
Ni 5.041327646149225 4.814437473165964 0.8981694778793586 -0.421333617018455 -0.4638771468076205 2.333932778614342
Ni 3.5330836402163803 2.2903875065275914 1.9576186544242156 1.3403651860487173 1.3020956010445577 -0.20099393275099578
Ni 9.266984331869647 4.1557815259334525 12.565580777282593 -0.9103834064369611 -1.9640037413201081 0.5632243158493913
P 2.492925277168739 2.4828503404283446 5.73984731637757 0.2525314385086554 -1.1306590702357044 1.3440698885938143
P 5.598464226208502 5.650351078132098 4.575182773766868 -0.6059365100059371 -0.4593576616707121 0.16712607635895735
P 6.237693914201247 2.257889805421145 8.933986335256614 -0.412369980067264 -1.3494969731466566 -0.5511995234743732
P 8.796727846261376 5.237120960979815 1.0099354082475898 -0.29385318007557776 -0.08445482531097068 -1.1194148647804527
P 4.549177191197188 8.7112578718698 9.236408847054738 0.3568032985455532 -0.5506282243519356 -0.10980281715745606
P 2.155554052950345 6.867321797841961 6.216352860354467 0.8600329790088672 -0.10732684481313774 0.27808486149772754
P 5.8495676449490634 7.127015816418254 1.0781490384119035 0.4179078791663577 0.47034218570667385 -0.7873890302898955
P 2.8888999778043245 4.8599416763995125 2.186286320850809 0.6160319465687263 -0.226965417114093 -0.5577537796531233
