# total energy = -340873.3011223198 ev
CRYSTAL
PRIMVEC
9.20248602172326 0.00000000000000 0.00000000000000

0.00000000000000 9.20248602172326 0.00000000000000

0.00000000000000 0.00000000000000 13.46876849433339

PRIMCOORD
 96 1
Ni 7.688557292694724 9.125930367051549 10.29409852168868 -1.6417843513970114 0.0641035153481283 0.6476241195527105
Ni 6.759271866912038 7.768775361821376 12.285684864429616 0.1038604835310921 -0.4152377885333623 0.39167979870776415
Ni 8.152804298694655 2.486060754001884 9.34306946234715 -0.8058274395007412 -1.6695023861375697 -1.246113686362299
Ni 5.320131915272627 3.314707794563843 12.405638347194213 -0.6908667322914296 -0.6087266711565645 -0.29858863787803414
Ni 7.210727417584901 1.1436297261266113 6.360437050559827 -0.11283697599808955 2.3092674146571777 0.5771049304862255
Ni 6.315123090001544 8.134150859883167 7.427567432090481 -0.5903813358801574 0.023057653150411903 -0.8857828342794616
Ni 2.837880990411322 0.3281118721222982 0.5857244204207607 -1.0301657034046323 0.034887298795488304 -0.41371261013808747
Ni 6.238944912161641 0.08545428357348853 4.529331018004264 -0.8441546172157139 -0.6671578187102639 -0.4158713083523031
Ni 3.3009132682794733 5.2853005063424465 6.636830031974462 0.40061361086228425 -0.2381445736593641 -1.3187594348534837
Ni 2.361643145352997 0.6265678133546628 4.895560506752638 0.25365681036235027 -0.8684235170654077 0.06419504662067009
Ni 2.0129793615890157 1.5368887563042397 2.696878661769312 1.9615383104987507 0.6530028673661206 0.17854537393949252
Ni 8.240503988814764 4.722770951498574 8.657131811551785 -1.3090820596647197 -0.15907363836812602 0.6044743236381137
Ni 0.5981394940766938 6.273297791827787 1.8872034660291392 -1.1861259929547572 -0.5130014151380972 0.21272253404183367
Ni 4.565804150409515 4.6773750888162535 4.266892686127734 -3.022192155189911 2.7891620199389773 -0.6485733708398572
Ni 5.137232509067254 6.999033433164857 3.250108184416398 -0.3377611943124377 0.42133387412877116 0.5613540954098719
Ni 3.6518684710193106 3.416993424751149 0.5565994729641881 -1.6790833449577858 -0.14447234351518345 0.9856483377185477
Ni 2.5219780562619887 4.568252011644767 2.5844951438623003 0.41455438931309246 -0.01998878441710106 -0.10520645603602526
Ni 4.222045291601884 -0.01770466252068001 9.804751735541572 -0.053329821771392026 0.5174969890156056 -0.21521547566701643
Ni 1.0442612839527443 3.0421301637812963 4.039674108084118 0.5016273689732006 0.5151336309897515 0.2249771830394706
Ni 8.56200203435896 0.5583194175689571 12.851844799940055 -0.6693756522971891 1.5981319048143832 -3.4105194924856743
Ni 0.9435124689018556 2.975559381165464 10.35334780656479 -1.1611636665824647 0.4569107427921163 -1.2059651391678716
Ni 6.914950319982543 4.811602547377841 3.6950216879007622 -0.46516192705731507 0.6364287650575233 0.8258614753334809
Ni 3.184087710454205 7.259684642289936 4.7507446679757095 -0.9543842374979435 -0.571153597998797 -0.9556443351572895
Ni 9.12817577359817 0.9056562028738285 3.8064895584660166 -0.7658380435919973 -0.6431486002798601 -0.6899935856578568
P 3.276057354007236 2.6342391811072376 4.7584351853978895 -0.4605527104200778 0.005892454225035013 -1.0325061786123508
P 2.2034800211038537 6.455488606622954 7.930262423958388 -0.021827380287736602 0.6372283781406832 1.5178803189514827
P 5.3775922369001155 7.494440056242089 10.402481718998084 -0.15509254223319097 -0.011032860775393902 0.27457144902783037
P 8.93340516065041 6.890407290229097 9.05514760666363 -0.36826579065919807 0.7204814698340688 1.2611991199405117
P 4.664353571343017 5.305996897011925 2.1080106721832803 -0.4344074194832776 -0.5991696235957487 -1.011446272618258
P 1.2334459879914883 8.763241994857026 2.2459577755241495 -0.7789995206746197 -0.5206195938049872 0.630889580406849
P 6.853551334412619 0.7248706076674691 8.473309396015978 -1.7577061369680114 1.5577529867767044 0.21193114848878986
P 1.8268774903089535 5.751369604540045 4.258218422968529 -0.7577141289332822 -1.1406730028282805 -0.06416085094862498
Ni 6.924033173513346 1.9180005051640776 2.8782891057646705 -0.011785165560386156 -0.9810905431445361 -1.0707176566850656
Ni 5.9064222885729665 2.8527890174831563 8.104885114393138 0.749504082318664 1.1711786276163054 -3.9417047776216494
Ni 6.765271887684158 5.098048324331533 12.30085056110516 0.673588404826956 0.4547499876953717 0.8397413186393667
Ni 4.155897823335005 7.410209703286226 8.17454609175633 0.17992297101330948 -1.5711852010222103 0.660559596667456
Ni 5.586037743816236 6.43521553030243 5.789078630794522 -0.2502801805806335 0.5548512612943477 -0.08709329137508227
Ni 0.489619179728173 1.6444198034242283 6.023003980523293 -0.10854760459411629 -0.9826131504366495 -0.46493824108228315
Ni 7.347292307551578 6.41290870460976 10.432800228868988 -0.5402363395946501 -0.15028046555652827 -1.0057371380486229
Ni 7.483259035938213 2.649202423094153 11.488064925148764 0.8757874136296466 -0.08955820797580705 0.05365043833560438
Ni 0.10964577836758573 7.717342668423549 11.359815401393266 -0.0632625075040717 -0.931965246372795 -0.8606215045224855
Ni 3.9837377181128617 4.175821205193351 8.869682547404167 -1.6722069295529265 -0.8605418003244857 -0.44702253714412693
Ni 2.051602194688082 5.359306897522502 13.47119234289931 -1.3796914944521659 -0.41275718820335366 -0.4004264345521426
Ni 3.092670216051983 7.180672098809215 10.752683238147068 -0.011336250948425637 -0.7942016823363548 0.45146566051714504
Ni 8.443529231567112 8.602456162141541 5.6688831226521526 0.4760610904683221 0.49612340843583597 0.30778778787879896
Ni 1.0229943391607637 5.307460092261567 9.516990923360373 3.237856288358572 0.5825309865978031 -0.30280216173874946
Ni 6.716737977328076 5.963072791445936 1.420349395788808 -0.09419699229939907 -0.07282546860215845 -0.6038590586516182
Ni 0.3561343617744229 1.2773786554241648 1.260149761421765 -1.100100737832873 0.9883994181011234 -0.8893684947481909
Ni 5.055523637233418 1.10343326794774 0.9026699962165383 1.0586041612509831 0.7795091133211866 0.0919580756665513
Ni 0.9384326967144159 4.879470880498074 7.129679284234865 0.29193590844820694 -0.45581596706604083 -0.713561602785784
Ni 8.338786537658708 3.9082773341690102 2.156093660732869 0.7975361460262265 -0.2764370414816594 0.5293670009803141
Ni 8.60771078156007 3.6332058297219776 -0.18178222442356912 0.11361782002817207 -0.48615472725889824 1.3815334327569109
Ni 4.357781957842349 5.588402782678866 13.310618167358303 1.4388752039011736 0.3416589867049471 0.025989996305858465
Ni 3.1427409415444822 2.0476083158305665 10.552604631362868 -0.8642341615744085 0.7471075570620295 -0.27485632725810083
Ni 0.7909140878442787 7.979263820595489 0.09020000552468904 1.4717986941020718 -0.7151379461339684 0.6323653936214271
Ni 7.939656321510814 8.565655421240143 1.0919430441194116 -1.2153483801549843 -1.1376231602583635 1.3550333295838533
P 6.530976598024347 4.085250339489036 10.144433893119068 0.41692803175159165 0.6357322532111309 -0.5082600437983699
P 4.425521456160726 8.390099598740527 5.810332692106318 3.020141700418786 1.577069170606813 0.8684780244524269
P 6.115401539668201 8.73982166837689 2.3531961835942097 -0.9470270258019239 1.8239521525804394 -0.8563858691745833
P 6.821333431462933 1.9966265442392321 -0.08064414422136032 0.7864595764970906 -0.16779430607057552 1.089787014611691
P 7.902561101062318 2.886516128111719 4.510528498922059 0.932097143964969 -0.017749610673937172 -0.1343439968319299
P 2.194995329153094 4.489349897994209 11.300282679953074 0.7404237172839506 0.8515277697513336 0.017874823397891797
P 7.59515206134959 6.799302680345667 5.057993584434703 0.1538285879191028 -1.805224237153633 0.2334512819487528
P 2.974611525123243 7.369120603980215 12.995651126019588 -1.2791891287600292 0.36494238271291984 -0.7421188455981864
Ni 5.754342007468566 0.7251393202541959 11.87643651509315 -0.6802951274231703 -0.4132595817610689 0.9709835366175213
Ni 1.9490865023546056 9.324602833998354 11.70066903541906 0.5979501493663508 -0.26017070022146804 0.3091993235143449
Ni 4.75989377940461 1.4085324837129176 6.1884140623768005 -0.28266065379386807 -0.5011733121549174 0.3449620829362511
Ni 3.8761606585636397 9.220706768787856 2.860497019628445 1.1833006076908201 -0.05750349353310742 0.6049144964993259
Ni -0.016564474524260107 4.910243993169811 11.471093700750076 -0.6935437649029604 1.0172399964818999 1.1343383188595042
Ni 4.867553661326454 5.354788476971717 10.658590581109179 -0.22839366492018728 0.6120271962847073 0.884881662621431
Ni 2.6337974617865907 2.7777611503741046 6.80893400203294 -0.21223042489676353 0.5884036433284964 0.016343474355029915
Ni 9.159004101184987 4.860044432875456 4.889970916849286 -0.7949321327444762 1.60095266209263 0.07183765076759241
Ni 4.243744753228665 2.380333394107871 2.7548478808641295 -0.5907901412828019 0.43142108316144406 0.2153430023838162
Ni 7.495581164487094 7.353448770583095 3.116470605197591 1.501863631808252 -0.09405815272868961 -0.23522328624751104
Ni 4.711129806902357 8.060227291075734 0.3998268443264977 1.7603656860780459 -0.5651161335554654 0.7508999342249262
Ni 1.5389317081622318 1.5715177105457903 8.58898004186747 -0.7803951154705656 -0.625180960057846 -0.5222411885688102
Ni 8.25335986154276 6.494737208759605 7.050832385499387 -0.6615037057482801 -0.6726841478451318 -0.510835774945346
Ni 5.85997734250411 3.5882884963036923 1.5143748746800163 0.898938397824813 0.060401898126825004 -0.8840676513605678
Ni 5.5301326422968575 2.1169582491721353 10.025666610780123 -0.06665430679444005 -1.1136597074642305 2.2428486209123117
Ni 5.4972981727954355 2.8299852575547586 4.569629623776034 3.257060372090849 -1.9865104070630561 1.6748022010839287
Ni 3.149863665589914 9.276841932453404 7.218074682284994 -0.36046737766070175 1.1589262926115138 1.4340137620438143
Ni 5.871277995123994 5.381825380389649 8.194910272686737 0.602183213611092 1.1443324539577389 -0.0032444750792266705
Ni 2.8404484839625828 7.284264481986769 2.1758661218233275 -0.46740341479332403 -1.2151074677887719 -0.530268429748661
Ni 7.507921698007667 3.976550576666502 6.488417861728599 -0.6553592834134391 -0.21119349899181694 -0.8394443562242383
Ni 0.5133533109756837 7.546719378337823 4.095219392406887 1.5057601386491808 -0.24541153963442253 -1.0129429117684428
Ni 1.5588642925064249 2.6204078448794808 12.418029494386946 -0.13956410758028867 -0.07125066791587084 2.6390430196609773
Ni 8.553949859243 8.739425961485479 8.043952694855648 2.0150866760388517 0.5240173066326266 0.26902789350178186
Ni 1.852672058137565 8.44341880173695 9.135232239745505 -1.0658281898032482 -0.8255791682063717 -0.2742338631827535
P 3.7936603729469773 1.9671141721285088 8.583107015400037 0.5032561628258752 -0.6202786376602222 -2.017909747309944
P 5.211229697761464 4.375441528182379 6.3322608793940605 1.0418511101623604 -1.2255096369587022 1.0684766831696888
P 8.263215723884693 6.351564933954916 13.451528471141843 1.1848769510390045 0.32306965373853397 -0.6003836985085079
P 1.1818936622776521 8.794355599505094 6.704267688757064 -0.9087003623075833 0.2370433701753853 -0.386966709502811
P 1.1336634339545149 3.496447687552517 1.3103953341453538 0.043333886900944724 -0.7931295323180986 -0.5146962863420168
P 0.3516481499241024 0.768556648479451 10.450242620543035 1.2192497720919195 0.7891497217347442 -0.1336891368567504
P 0.02450806030722751 2.9450347356115913 7.4941170489888655 0.3727757627144096 1.0940190504151677 1.586686381981603
P 3.5597607901785775 1.8781353364756916 12.532150441621836 1.441575376441156 -1.6953502004386094 1.7597218818464597
