# total energy = -340893.201226396 ev
CRYSTAL
PRIMVEC
9.09312174477036 0.00000000000000 0.00000000000000
0.00000000000000 9.09312174477036 0.00000000000000
0.00000000000000 0.00000000000000 13.30870282030636
PRIMCOORD
 96 1
Ni 6.430255676030055 1.8197246380470653 11.22064775492383 0.5816544975301208 0.6568824049261849 -0.2913209005720273
Ni 4.834421884210996 0.4135851891090195 6.23616571804602 -0.7898421198160783 0.2534048422525442 0.1667067294333516
Ni 2.9935011791280486 1.4616193132906954 5.0226776952150995 -0.9065606902567613 0.09582758592428657 -0.3343452266523532
Ni 3.415140146260955 4.302055972292189 4.774497301897326 -0.6266572874930563 0.6724463208027128 0.6298953348143798
Ni 5.0315880453174 4.608412340591586 2.7106105210786713 -0.4761420802179026 -0.18351557346057426 -0.36002771902012193
Ni 7.267404846167947 5.894943592631358 2.5297183201499247 0.7124974231873278 0.511477522294403 1.2265403922160618
Ni 5.076880885259795 4.6911415631966715 11.620839684857751 -0.264323546047577 0.053443207420804724 0.3806387104022541
Ni 5.453108801866236 7.629201978396032 12.432484466826514 -0.011464806106489932 1.4780313052753449 0.4912573385927862
Ni 1.902008297681426 6.445532120740601 0.4028089304027889 -0.9509644131831172 1.0208624237258355 0.07559557514812787
Ni 2.94778096245863 1.5080578865863832 0.3819474902510428 -1.156093708258725 0.8457407307559112 0.40874935259554124
Ni 0.61121509942985 8.995534467804701 4.761094949600377 -0.01238963191360447 0.848087633721533 0.4993491144619851
Ni 8.558900942738646 2.422325823146975 1.1527677923552422 -0.010344833569433796 -0.17670215008316664 0.6285514191919755
Ni 6.677415821076089 0.6990828451932262 4.771595686714507 0.21703478826394235 0.5810688002299799 -0.40370999039942085
Ni 0.7812091938195557 7.738464930563838 2.7909018777153647 0.3724854851675004 -1.3765722320968938 -1.1511782732349787
Ni 7.936276703321699 3.8726514790980886 3.759442112046725 -1.4394994677487338 -0.6400439932126074 -0.014288134487897973
Ni 7.152376854746279 3.6388309438082276 12.720498189727035 0.8545549866134314 -0.02899870122519522 0.20727770887717853
Ni 7.944460512988062 9.060977665770055 6.62113303406395 0.9584206123508461 -0.5569587945556537 1.0505663785481714
Ni 6.817777249976077 0.6718307590042353 0.1760710277230732 -0.13784969599234323 -0.1337495577810406 0.04240366177719149
Ni 2.115460240023893 6.453161249974021 9.093250973845453 -1.536256250355509 0.5371255618798104 0.8966560295485396
Ni 0.34642430042591366 4.830639145520765 1.4009136318099802 -1.795922500136733 0.9960458789027878 0.21798378244077296
Ni 6.681898730148886 2.094591525374666 6.9458120428941506 -0.9468581043242272 0.6631296713874772 -0.08239974255415486
Ni 3.355343776965391 4.276704348570165 0.3669383833229319 -0.6311163517056744 0.5332411392237397 0.26507765060478217
Ni 5.900590421301149 5.631215779571863 4.723418508520809 -0.06346613887444554 0.8455952063169825 0.5582600298655805
Ni 5.320812972048541 2.940606489317785 9.042957826196906 0.33187799605878326 0.5606239021120667 0.8133828832504959
P 0.0333217450248773 5.609874222586358 12.569018600739199 0.931863430687608 -0.1535928177592129 -0.28885521264035413
P 3.7890402236734064 6.207637866861261 12.622746220511063 -0.04227947749450138 -0.20201826025045208 0.5564859686842932
P 2.371095174635539 8.578742134618652 1.324604153232065 -0.5262045440919325 0.2412065004141394 0.3999605506593177
P 6.187623905666076 7.863149817391814 5.893133152070721 1.1201841388463096 -1.3244569994588933 -0.05829179376235768
P 4.8719401049703475 1.170175664827783 12.44704437353516 -1.5856682251297336 -1.0027292044602345 0.6649633821621064
P 4.178698681254534 6.255722295212073 8.207344484339735 0.05940045344550414 -0.4256268450771702 0.7811481915865063
P 4.7461549503983385 0.9709271788173828 3.7188776954671154 0.011538596767218837 0.345289898589315 0.00014063934292233844
P 0.22104106183974143 5.656621962024997 3.554248542969804 -0.028301418047854483 0.8663388666222369 -0.43236210691847476
Ni 1.4437513288524682 1.139531844188177 2.591989837213471 -0.35122194780303384 0.724182829945056 -0.15331925238285207
Ni 1.8042663308994895 6.739449098347125 4.88405487121312 0.9789210462970431 0.07035001047847238 -0.5546111202590835
Ni 6.003160835786239 5.419118712385272 9.336015503788463 -0.1964068276009456 1.6924870199582012 -0.368337781547714
Ni 8.998753432940136 2.0593374919563416 10.1480722041771 -0.4156409375090519 0.21695894072068445 0.08330837041135329
Ni 2.630358264865939 5.214850823112835 7.114912283405853 -1.0478433231900535 -0.8052952211463551 -0.7377911647571099
Ni 0.5713017503748095 -0.16749530450490924 8.908752440790394 0.6613496966689192 0.393672917878393 0.6834868948875906
Ni 1.616820717052356 1.2152775492112982 11.712044606340635 -0.3652357455836226 -0.3530006369700114 -1.3591458090903301
Ni 3.9447508422587525 6.980416827412276 1.5677124031810632 0.9597763550477922 0.09789860952070237 0.25051003720325243
Ni 5.704724576619512 7.999392062093066 8.236822566757978 0.006754030894381916 -0.6352280598812028 -0.4872173641954577
Ni 5.232327803311448 3.0129149942810334 4.745577537160767 1.544869703056133 -0.938873543456854 0.5264598546358481
Ni 0.7527440851755726 7.262649143439604 7.006033970292366 -0.5978994986340734 -0.20729159283424944 0.31831388422110335
Ni 5.07384378256139 4.652204815428483 7.026023380058551 0.7685605847294827 -0.46730519865256287 -0.4207880289276302
Ni 8.345549024736545 7.161879167081112 9.310822100386657 -1.149158928812105 -1.1109279103553642 0.24349066846262582
Ni 4.683721575765835 0.17905811825129594 10.260557758729083 0.13664461994064853 0.35735942815933935 1.0342445014596962
Ni 7.999219292777887 7.21647427067761 4.786261982948816 0.3283540420659248 -0.18789056259981834 -0.06815994480568907
Ni 7.413995063536222 5.947701885613848 7.214913890967891 -0.433878286452685 0.5277222662880395 -0.8237218032826588
Ni 2.4145784833294845 5.141260187968523 2.658732442291407 -0.33955351032617004 0.4137198092269391 -0.5310415604692597
Ni 2.05224485691216 5.204002728743977 11.572808905925863 0.2722044914575506 0.45940856951330555 -0.11698725072103723
Ni 1.15665419263458 3.562330509671431 3.9556262159931643 0.8828890576714343 -2.0460242461579727 -1.754358046431385
Ni 3.5817897904336733 2.644234368811351 2.7925913797553763 -0.524987898076012 0.01994816098715274 -0.49608972698442305
Ni 1.190071415438898 3.4162040415175823 8.391562949241766 -0.009800531030189573 0.1541000964129346 -0.5944429075440407
Ni 3.6076506289793824 2.698083836416024 7.226213004180583 0.6270195559284815 0.5144931691922752 -0.4772139731258427
Ni 4.081056738812965 7.0657284966231915 6.037705605700145 0.17195460809585222 -0.17132803025544688 -0.4346969256992384
Ni 0.9281349473841524 7.476783069920935 11.224200437631216 -0.16996431713870083 -0.5261610924485067 0.551014918267393
P 0.20571642358338293 5.397486175500517 8.16664639886891 0.7350948488718695 0.9130082456543179 0.10756544318650507
P 8.651023360216346 1.610673766680732 8.03060420284839 -0.5653827569532909 0.350516437095577 -0.7142372886965699
P 1.758909839104132 3.2284947271367543 10.553322637797018 0.2673463920343009 0.4418019121751359 -0.2457573530096155
P 3.8242851639698796 6.248947919432694 3.847506269242094 0.8106492863694168 0.9097113200706011 -0.08154202253954988
P 6.869444368336386 3.9028133642795644 10.581230338071505 -0.0783415133243812 -0.17211298805058747 -0.6890852149109745
P 6.394619731493967 7.670348354774138 10.353119373992211 0.20676168847270845 0.02044386967664866 -0.10306678398520314
P 2.3109168942222116 8.618879174471239 6.123200955972461 0.2443080221575986 -0.42744975721852196 -2.3188617432138323
P 6.789006612437882 3.877425368070134 1.5678588024428728 0.7694602137256168 0.4528645977472008 0.6170416187801631
Ni 5.050101641407084 2.7815314156473785 0.6535544933948749 0.8023744479551342 0.014373752223168793 -0.17940103707156843
Ni 1.5804664158899984 1.1838789994580163 7.219359518241096 -0.326360922895296 1.0306400719378896 -0.7248024658069259
Ni 6.950445897789683 0.8336137643620226 9.177987957755352 0.027634473887816924 -0.6386661390284742 -0.8084533071593625
Ni 2.8955864430309335 1.7249561221105745 9.355884884346208 -0.8449398321211706 -0.656067108113741 0.6156323971374623
Ni 6.463927506246216 1.9733438386065627 2.55525726218209 0.05413689105371967 -0.20357763431777198 0.58605571192161
Ni 4.0761919186224045 6.987227575679062 10.5787688299863 -0.34383413997939494 -1.0513328244005506 -1.166395090184733
Ni 8.28185170616668 7.061209215062989 0.6721271947765945 0.5661504883572508 0.3211364412715631 -0.4686660835558316
Ni 7.7128405131862685 3.7762098287409187 8.463775976425575 0.031542293582655354 -0.3824420821595801 -0.302357360891847
Ni 2.991255178030724 8.482355042992591 12.419482211891033 0.6798593254373323 -0.5614538542125298 0.16835274967720681
Ni -0.09400014714003797 4.654368978429144 10.395121413136543 -0.06368416842252259 0.6276343066943448 0.22971598327603662
Ni 8.828666588707545 2.5644695039298604 5.834601636024703 -0.033840602698528816 -0.3125155323717715 0.3385955172882749
Ni 3.596875279585337 2.8667703398834816 11.62197086921608 0.33686387930914885 -0.5777435925114889 0.10042368993540124
Ni 0.824524279759248 3.3497333207830065 12.582300923827706 -0.4440099755700483 0.37989694714022315 0.45827137058506884
Ni 3.1788553749493333 8.346040053316527 8.014980400883118 0.38636378581148945 0.5444832877964623 1.1347522664684715
Ni 5.907073817181279 7.965883908070232 3.43533596989317 -0.8428986333214258 -0.4091918394495985 -0.7034944483577691
Ni 3.1024367789092 8.48409182926623 3.6151224472047723 0.6024678347310464 -0.28307922938852537 -0.17506898535511783
Ni 3.435881557204261 4.546879185022384 9.719718875869034 0.7017345282438688 -0.6517849357986194 -1.032878731460421
Ni 7.1251156754354374 6.043006895739579 11.829081268379301 1.1618686630692894 0.08505749189197609 -1.36394811557498
Ni 0.2845956183965363 0.10656956947538739 0.20685942900011836 1.2051830095862082 -0.5290307006868179 0.16206126024154024
Ni 4.684058021274342 0.4149391549527101 1.4719163644753512 0.36094945950344287 -1.1815113770008812 0.8296417683115196
Ni 5.972089638419612 5.672234852244047 0.6269171022430463 -1.239265295981898 -0.3422549684177332 -1.2737671864135096
Ni 8.087131594838336 8.85408186428253 11.284635144080756 -0.4915180484533406 -0.6027640258152264 -0.27579195169849274
Ni 0.52062305435976 4.956024202731308 5.608913079606652 -1.523366024656402 0.5833030888771373 2.42102504154816
Ni 8.121921879042233 9.170686180908584 2.26637878339349 -0.9433686031137302 -0.208744266120376 0.5413347148651516
P 8.433233998750705 1.5751014739976048 3.8558637575358214 0.8545228478239154 0.4475547554985131 -0.9079007492244234
P 1.62860540297192 3.2400611781318824 1.4861161835586771 1.8817616073897399 -2.208004773760249 0.4605177434170843
P 4.661816245225535 1.0724882567769556 8.279064664319192 1.5436569136949545 -0.23564289028343285 -0.4590149336193126
P 8.450356347197108 1.6268686166982802 12.271502565503846 0.1806145977636954 0.6512735433798397 0.872091452835298
P 6.320456229673009 7.782048263598151 1.1721879726935234 -0.17389450543104246 0.37467632217123215 1.4798570456301738
P 1.9167300619590293 3.2285220065023092 6.028230572730866 -0.14229230514472913 -0.1278884710145733 0.22468484861003238
P 7.09992772790674 4.199203671029701 5.908478704507338 -0.37786988940786537 -1.1133264924945279 0.22737165141357615
P 2.4103138091811234 8.654151394133267 10.161926484630067 0.07254676101947505 0.134330112874859 0.5617808985346454
