# total energy = -340857.53136549186 ev
CRYSTAL
PRIMVEC
9.39263253680591 0.00000000000000 0.00000000000000
0.00000000000000 9.39263253680591 0.00000000000000
0.00000000000000 0.00000000000000 13.74706713946166
PRIMCOORD
 96 1
Ni 2.763378214394196 2.4814019956967206 12.50235271192867 0.7950097800599469 0.09382829610607066 -0.6872623027696229
Ni 3.3347414387899903 4.21366641266944 6.460694990174354 -1.9648529766942804 2.846253108525014 1.926631985539869
Ni 3.420608884622318 2.053699084580894 0.8115027796469386 1.5998468306229607 -0.8918776343232898 -0.07697317222194486
Ni 0.9486934476972723 6.282581561814803 9.74634019989957 0.529596600492617 -0.4409115391503826 0.8121641803520463
Ni 8.141355345218896 3.943844260358645 1.788163729719002 1.6512262135362012 -0.46376658937168513 0.3059412215883634
Ni 7.254653271673162 1.9269549023383392 0.8590680096228184 -1.287732133234034 -0.07603934755376582 -0.669959292714801
Ni 2.27892501803237 4.861128745152471 0.502828942481534 1.030390932041561 0.1436472765107268 0.3640137002510634
Ni 2.5879520181777895 8.186468158862812 11.072794992727648 -0.9234788061683387 -0.17334814600926918 0.709788508896597
Ni 4.3790800626971285 3.938913128323864 4.5175199508629404 -1.4379907444136912 -1.6816986710934456 -0.8734919327272505
Ni 6.962241838326845 8.097163009554807 11.137420061017382 1.6298462051985285 0.606060180067995 -0.041174160245464574
Ni 8.057310070081325 9.117127752261455 8.856891720626274 -3.605894022167364 -1.5038942890850358 0.1622903455332108
Ni 6.4996734755670005 2.9309709551496357 3.3296356037916905 0.15338995771978745 0.14887535767888554 -0.9746432448572955
Ni 1.0185464552071195 1.5933943462408258 0.23687937252872066 -0.992992951009077 3.9910522177065264 0.18977132456229898
Ni 4.266415436492931 8.17985574561998 9.691393300083435 -0.6419491806551202 1.1898834031146603 -4.8930898232819535
Ni 7.992669973579676 0.7945124468131934 11.856185623460108 -0.018928461473386757 -0.3472326241379826 -0.5514851730355922
Ni 3.162170602837533 1.7854079313589928 6.00559846652626 -1.7109580821791952 -0.9589916543629676 0.1707976116732736
Ni 7.873909528917244 6.619288649782129 9.309170454540208 -1.0655245425199005 0.004654982273508112 -4.134570939059189
Ni 5.62061700483329 0.787261334563953 11.390971356139888 -0.09451915152550819 1.1719862111192654 0.2219131994021662
Ni 5.412776834041586 3.0589549648752214 10.257800032336839 1.1111261424090992 -0.5221951658222233 -1.4106146663935835
Ni 3.5948516091503775 7.626291559711636 7.5590581573913145 -0.8910700508203299 -0.1601136495968662 -0.5945246686245697
Ni 3.3352674262070336 7.261059047002155 13.654095148606329 -0.13963866957196597 1.5864457267257066 2.443695229452165
Ni 6.383289366913711 4.746303813485417 5.318740615769927 1.1703309349040294 -0.11152802737867888 1.7799346093489088
Ni 3.9400966000122115 6.372318772215378 5.225177786173605 0.2640412389204678 0.1713254591522856 -0.08402108020766175
Ni 2.9259365041579355 5.878022097048883 12.145698490433219 1.1479821348951842 -1.1841161616135798 -2.5981637649481124
P 6.716013978723423 4.6967482846939745 11.315746702133486 0.3066166503888333 -0.7195759273006639 -1.3866764104104314
P 6.601010587039872 2.1148169439148425 5.287341984762172 1.0399135268200155 1.187361150913439 0.7679509761699419
P 4.614243401277745 5.6752539477786685 0.35337431424488763 -0.3269995849205594 -0.5216459781869726 0.42350928451353514
P 2.7776831936112862 4.095018679596374 11.049507839101297 2.300597911907638 -1.467334487683131 -2.364350728784567
P 8.810448910227835 0.9367375658552279 1.839810997756436 1.3983219650691594 -0.44495639864371755 1.1016786238429543
P 7.8053339194202165 1.8267730846564738 9.782522498612686 0.10435027868331706 0.44385545227005496 0.7045141478715351
P 1.472379669791065 2.917135607554906 6.703743443694398 -1.900499293008559 0.3737054736175306 -0.31976270085248804
P 8.965117388735925 4.310617164789468 4.076156395115902 -0.4271615365541418 0.37859931137472214 -0.021685198282917494
Ni 6.934477216812913 3.86199686121372 8.280284589535206 -0.021104386078783007 -0.13539660646616036 0.08177470737564627
Ni 9.22590382863251 3.963024015815833 9.702858886511734 -0.9268299820287588 -1.1856706505848937 0.2628343630965603
Ni 1.0315646437789427 7.161262327250625 12.573122440365363 -0.7338380936466329 0.5004667730061961 -0.22405415700456896
Ni 7.068181339698845 0.5051179270089173 6.591059092962061 1.003494107650717 -1.5943220441499897 -0.5483278583535331
Ni 8.652605721952593 5.538656894098999 13.433922451411448 -0.3775202193779305 -0.5928308258619145 1.6296294612020321
Ni 8.465898974167095 6.058154002121338 11.255452576665155 -0.3327493429201431 -1.6085091342836493 2.213023567131079
Ni 4.125967403509907 9.339479540184087 0.19885142153973062 0.4816208439442866 -0.45101983122897804 -1.211242842627043
Ni 1.5720355000558865 6.507807495266278 5.8323306972462206 -0.868010597897705 -0.22817075027610384 0.25525397964614105
Ni 5.143659129164331 5.7581157512278915 7.996215692328495 1.580259909629969 -0.39165743011026094 -2.256913840756126
Ni 2.2013888371807107 1.8284543658645234 10.209410129232095 1.7299068553675563 0.008691614236726966 -0.5512298624916764
Ni 0.5110193179754948 2.124303502686517 11.81609880743869 -0.9570509856968291 0.4256458712405637 -1.2223111846260626
Ni 7.617509448373501 0.4228356489816865 4.2891127328015966 0.38456324226764094 -1.2492841136704809 -1.9578644611915894
Ni 6.352885415682115 4.448895499677187 0.443726742070755 0.24225602472457633 -0.3567781017345727 0.01959309164057916
Ni 4.953251684194637 2.837908752862751 6.5145016244114 4.356641747085142 -0.34342790567991177 1.2112875798220495
Ni 0.08554433927614429 5.1083146532655075 7.657542726389969 1.6390116737478806 -0.4974526687702207 -0.005760813743177175
Ni 5.187701182709266 8.28193487505618 3.885443689591672 -1.3781187506484072 -0.4619542187532947 0.6614491983612608
Ni 2.213270517226422 3.7739033614914046 8.609471935965303 -0.19832204234578746 -0.1998518487267526 0.3963818321691238
Ni 3.484882668458527 5.634424174530678 9.469420035248424 -1.6181980794366388 0.3107697533252583 1.0290385317787245
Ni 4.9178884230309174 1.1974948885912275 4.384447952140706 -0.18698142052198766 0.15912428910040338 -0.6405947235097549
Ni 6.262828855778334 7.542546848812376 0.9271157531763132 -0.9660115373242266 0.03343565395062629 0.9406298640263284
Ni 2.1934050996005885 2.829530524719846 2.2876629839980027 0.21133028167999732 1.4774486932989974 -0.1261673745584085
Ni 8.19590775447225 6.26180505884159 2.0835883195543827 -0.5470258517126579 0.10048668196285275 -0.49240610748524877
Ni 0.4554872571578976 0.8035688230187865 9.10952159850571 2.8636306805715135 0.3271291685198882 1.1136355390945143
Ni 0.3552180879942735 2.4564739491818446 3.3290861347935294 -2.039275100359598 0.07709067163641561 -1.0767111552643394
P 0.5280068330195058 3.8041382453389505 -0.14621886635858497 -1.1153332385119112 -1.9448063424560504 1.3979003041507088
P 2.880692193659759 1.6809900364434391 3.823609172402002 -0.3385453807766298 -1.0108729166132913 0.38518750611520114
P 1.9234232725381908 6.350950533397992 7.910365153234572 1.1174042621083273 -1.1336369219171056 0.2195920074681573
P 7.588016582489284 5.523074516869089 7.0916582245006285 -2.3333342257983944 1.0165293435681204 -0.7426433506430887
P 5.879637629829801 7.952215905629573 8.213239979127074 0.7515619932889572 0.27590559445822166 -0.5838707884551493
P 8.77034236967828 8.532596057174683 6.092219201480853 -0.7756568294546319 -0.3529543571131083 -1.2033989211025922
P 2.070342829277337 7.263923799898552 3.920264995863187 1.6281605899659894 0.6861734405808183 -0.8019257904534899
P 7.033137428038332 7.729995614561202 3.3311346679302645 1.7935964231067174 -0.3725415352164165 -0.8497349395169688
Ni 6.046939198979379 7.271832396419096 6.051692810260907 1.3917821070681127 -0.9178617170918772 0.3448324993369222
Ni 8.819324947890442 2.2092410779065723 5.392300895306684 -0.03900954849397798 0.8860191186599836 0.6217495657787937
Ni 3.2896380177785223 8.848601783228373 2.249707356278856 -0.3803389197736482 -0.08512356924322113 1.5803077321487689
Ni 4.345050555340913 3.92915418321122 2.0475290643263264 0.44957255725949025 0.04845578150854236 -1.1621995640461469
Ni 0.5458443812999887 8.112379074119277 7.844296437337702 1.109376249597528 -0.518563482606907 0.11309588608643102
Ni 5.6070164730497405 0.473877092226276 2.1190276610409233 0.36971537862153103 0.000926882689643565 -0.5170521881687031
Ni 8.634421585534808 2.0165512232522067 7.730030367301257 0.10198974887094048 1.3437567282287697 -0.48984580295724034
Ni 5.615122314851676 6.374075194483005 10.169076286977317 0.8471293835733217 -1.2972688690798755 0.8748525605202029
Ni 0.04864444344406334 7.710825251736462 3.4346912584504095 -0.7380806709730708 -0.17800698493751924 -0.1835723948404387
Ni 6.249434961908624 6.28621651057187 12.576641859743331 -0.7561035899130527 1.1537311215638195 1.0214689469615827
Ni 8.461841356949904 6.267788165710458 5.076297047779483 -0.3579142722215449 -0.06243229829329248 0.778688417192104
Ni 1.9424339606113292 3.9020470459685925 4.624100969031085 -0.8425949860380778 -0.31630302443866176 0.4036256582157307
Ni 1.1169624579889106 4.853689780254286 2.5755405936620557 -1.0081897133541733 1.7386126106716702 -0.30325621855703255
Ni 8.246064411740313 7.931805715321802 13.36920157827075 -0.24507138268618442 0.35651122122643114 0.11023939047424239
Ni 4.791698406102748 9.153514810361917 6.382405520200429 0.9450858429151531 1.2586367585299743 0.8649828668149749
Ni 7.708674338906052 3.1049506859691736 12.453082719163623 0.2523751154364492 0.7122300284585541 0.004836759267011026
Ni 1.0249522305361118 0.31079281504549366 3.6184064528014726 0.9976209366993914 0.2598063749035138 -0.6869864234004169
Ni 3.537058741702739 5.997656056528905 2.8560083555885103 -0.0683995716203209 0.566614829588179 -0.5668161469657076
Ni 6.128363929664179 1.3857702059954078 8.33283918586704 -0.47572813260893554 0.7478626900604991 2.236197177034065
Ni 3.054380752873434 9.011526385657554 5.047208065090495 -0.7118577327207999 -1.49971598933763 -1.848446538177378
Ni 1.2674981782202301 9.067234088701912 0.8594953743991661 0.09164028731581637 -4.283996255704273 1.0469097556321907
Ni 1.1389506105478124 0.4222467309272469 6.000044602960228 -0.8951010263565939 0.40784149606929115 1.6799310376700614
Ni 0.9405782132628892 4.564650301956515 11.710906020346243 -1.471339752187782 0.9302672898450818 0.1656795737204179
Ni 4.86764723207083 3.941026470624484 12.187256192695868 -1.3679274119377023 0.6319751001615439 2.30060176856238
P 2.5074759433701557 0.4906288521958622 7.978179020240131 -0.03244809322637637 -0.7468779575497266 0.23457871068497665
P 5.6850035002588655 5.056007083167035 3.397642959025663 0.3714012509643862 1.5002520643467583 -1.9920843016064078
P 9.25333970801079 7.912550818805036 10.60422661636053 -0.11004012997924273 2.2748642545869595 -0.18384596021679953
P 4.283594561238865 2.487441458360272 8.52643918660554 -1.4632965701683314 0.3699588620909048 0.09407846444366377
P 1.7078341799775447 0.28815375305800073 12.266741344780321 -0.13142862295734783 0.9786634217602823 0.6413861090627986
P 0.7682121366977809 6.837864599460985 1.0055846224299798 -0.44504844413689154 -0.30135385932799713 0.2792310592870288
P 4.892941591251147 8.220394347262108 11.472174420698934 0.05859261283222812 -1.1618743194962442 5.294364207656688
P 5.175819502663554 1.7047158260050734 13.403898901793962 1.6817071557338779 1.2463250310421568 -0.4817311442699059
