# total energy = -381173.50907089846 ev
CRYSTAL
PRIMVEC
9.21241628796517 0.00000000000000 0.00000000000000
0.00000000000000 9.21241628796517 0.00000000000000
0.00000000000000 0.00000000000000 13.48330244274200
PRIMCOORD
 96 1
Ni 8.975970507332278 9.000272861759345 7.329684983092388 0.7388463454945017 -1.532695015366812 0.3713806821390959
Ni 6.344959661902421 4.21471734639923 1.207252160242758 1.2076193869418426 -1.1147660531545316 -0.028766273499414973
Ni 4.078557832209669 4.265404061356669 1.8536975517276737 -1.1288592980228043 0.29799188483429967 -0.39139080671243565
Ni 0.3730761476377567 5.208764711730496 1.3087057381801983 -0.5867329404942927 -1.2107293933257344 0.9420789377680291
Ni 7.595296451100641 5.749644102603126 2.9255529858576574 0.5838435347616396 0.10649792115393916 -0.6713399751124116
Ni 4.456976260109843 2.8577744747787093 3.8535279796247193 0.40677860202241556 -0.5740224349061598 0.5556673294377398
Ni 6.632985860220188 0.09875894614444686 12.124832466393924 0.33484633465848784 0.3138432500442595 -0.3680896700926499
Ni 4.696324050242384 7.002864378130259 4.395313872269762 -0.224084238911556 0.8857481243867842 -0.42743561615113485
Ni 4.470896221269547 8.482028377947863 2.0398077088054083 0.022396365417329173 -0.6703189900470649 -0.8439265603653079
Ni 7.746140557009968 0.7406718287673016 1.111351826902981 -0.15781199804688303 -1.7674002243273241 0.20138268354898223
Ni 9.146262024233092 4.02784348000307 10.426166063823151 -0.25222084924677207 0.3099467432033307 0.23757790252261662
Ni 6.8193622561314875 7.8821710973701204 3.2130034081512804 -0.35578874123810983 1.9420840584288814 -0.06302622312354951
Ni 3.1830464725463004 4.323866055744149 7.719365590024817 -0.010163570796563142 -0.18737608485724502 -1.3693091227765772
Ni 6.967396575042992 6.730858571908272 5.438435779690866 -1.3265095111125478 -1.3752627692568509 -1.6331238475085357
Ni 8.59596754381366 3.460441542354274 7.6432120712090805 -1.1365556382257973 0.13602318430656574 0.8883433959177862
Ni 3.029079357482016 4.504125407174942 9.918748932990491 -0.2535961323277439 -0.5064934388162503 2.3255692371409946
Ni 6.257036359911544 6.8756224830026405 11.294557912128521 0.29381152820436496 0.7867642522217031 0.2579412966703171
Ni 3.03741659431162 1.706968632218108 2.208565358377902 -0.4994015649664755 -0.1812280629779782 -0.3406799106211294
Ni 1.6170462358714028 0.920146282321982 10.667692590431054 -1.7091446831195403 -0.572029315735531 0.711624276553755
Ni 8.617718058901723 6.438419626141466 11.283528807230839 -0.766689335848699 0.1580372266838117 0.789397318969176
Ni 4.74221109626256 6.629706239986664 6.866506796988394 1.1522589078936671 0.15207586689405422 0.4784725281232921
Ni 7.090373121383752 7.622408592525531 7.414751514761873 -0.8097195754662958 0.17134654219820813 2.1340390209060605
Ni 2.07968457437516 8.442424199903146 1.2425292663108285 0.19936513889832116 -0.29935919749547146 0.7129427382548625
Ni 7.061639594674873 1.5792569038547875 3.344276656689546 -0.9566496364933523 1.1154823624952659 0.04056866545098175
P -0.1588727267899907 8.685843878078433 11.544336000093635 0.41518713780108496 0.07634505171964272 0.4065749706520418
Ni 4.501785453412821 0.4802561636009232 3.9890619707416497 0.6351851224584093 -0.10318428339967389 0.782737133340181
P 1.0493402884818586 4.330268685132629 6.6998532633185315 1.6848750119388984 -0.7294857302152081 -0.27492677548472005
Ni 2.333624832063606 8.321198012675783 3.772884329062299 2.066281196634796 3.474764418507674 -2.6004811002273795
P 5.610785350412379 8.624037776542725 5.938221344789112 -0.9305899632918232 -0.5976781266518868 -0.2040463464240744
P 1.4738760728118658 7.257025733811976 7.526500889252645 0.0772721915196024 0.5747724256983069 0.555143852834102
P 5.150182955929995 2.191256149229677 1.9109748293678748 1.1724952895451999 -0.2253340521582571 -1.109228154055438
Ni 5.337075247158927 7.488515332767002 9.307254528033571 0.8031084979076814 0.7936190703600075 -0.38396906032706773
Ni 0.19981086272744458 2.253928217905697 4.440685022972304 0.25729620688715044 0.42928938153042195 -0.3258618717716904
Ni 7.406340578601178 6.390330812604963 0.11279958995881147 -0.6981092727864558 -0.23000986036737162 0.27461927154663024
Ni 5.249566503905433 5.133305809110288 9.166906128113158 -0.09415971130356042 0.20414919055052583 0.06901432238618437
Ni 8.951889250898482 6.111784190748702 6.636144797799052 -0.21801412145807614 0.7843841820253007 0.34366521850169846
Ni 4.826421794449757 4.235178123193209 5.997318995907247 -0.8637680205712671 -0.7724689186449536 0.31829460094739376
Ni 1.8637271094474421 1.4686342078880594 13.152584378316119 -0.04625903096753969 -0.31659535886809986 1.055264041134157
Ni 7.06914771402971 0.8276057172382897 7.460958231630653 -1.0786253415679166 1.491739913110689 0.3944612181076432
Ni 1.7849425245117776 3.754990131473544 2.963400356097506 -0.7541652352397592 -0.37595647443523644 -0.5289430260690181
Ni 2.9962186682320726 6.2939505123714605 13.42087481700951 -0.8229476441207956 -0.15160561212585502 1.4230300093388009
Ni 5.346775921613704 1.6490962324793514 6.048380656211609 -0.14665572431974744 0.44921440258912315 -0.5823736350843326
Ni 4.876666313420655 5.223136081293129 12.50944440183061 -0.1358573481526628 0.10158248613019279 -0.10854580482190337
Ni 8.702932910475026 1.3222581239260889 9.129975393303747 0.5864182374673513 0.705471883799114 0.4501533694636248
Ni 0.7313580758007491 1.8243993038943138 6.771085509300704 -0.292981833214218 -0.562455813114483 -0.7818624440447115
Ni 7.409988695490153 2.8191007507890085 5.730052977916014 -0.26667893365363105 -0.17833840013500898 -0.6488726472478309
Ni 5.5646311443170005 6.206506256032671 1.9867110257213116 -1.078532267633478 1.5738267524101155 -0.9979065862606106
Ni 5.696691133214656 4.798922731536643 4.023241878018111 1.9302551841147533 0.07823969763919428 -0.6472453960570531
Ni 1.6704690384955747 6.3506989973110874 3.960221580002689 -2.269465966389524 -1.615203258474373 -1.3291960568057752
Ni -0.1291866362267675 9.45203133651088 3.513451628724339 -0.11715231554399178 -2.025147145598648 -0.30554475748089316
Ni 7.56566932000229 9.172996456586143 5.312327011778761 0.35632198803376053 0.4222239900432083 -0.2887855357446833
Ni 1.4769345950521184 3.0285818869971552 8.655511997126531 0.41376403220131325 -1.2285545944326133 1.099848255502435
Ni 2.567997917347544 3.248767851046187 5.2876386571051075 -1.218614709611082 0.2880082912590266 0.5721403873920985
Ni 3.3916524291977486 1.543558790357863 9.209972332235848 -0.05933951830058167 0.8918961462660512 1.861809332637529
Ni 3.249173197367184 8.537017291357706 10.207183241354171 1.048270383425143 -0.15675964552296873 0.7824694815010912
Ni 8.973980625392837 7.432209043813917 2.0614218801309527 0.2976612409677583 0.9639063180557658 0.5993400877353421
P 4.311143708714664 1.0090728164573275 11.299560254226286 0.5774695129144958 0.29824719537821537 -0.13951962749559843
Ni 8.73197965934104 1.6229237575258642 12.26694688653559 1.6319817634842926 -1.6486229715853995 0.07869555422969027
P 7.103574514065325 3.893996282326472 9.138092453381718 -1.4657033798376113 -1.913331925996853 0.20065454713370603
Ni 0.876131199311503 7.457266816384661 9.843525868229772 0.8319357065520189 0.8165296564095937 0.23510758660525316
P 3.7699050336029685 6.544684849157473 10.99177710772645 -0.15889854624284247 -1.2936999207816946 0.12023275424152842
P 6.041152594314916 8.11758518570571 0.3958971455099068 1.4373628810217052 0.022617480289199757 1.882906005406828
P 0.9999064621529559 0.9674326943912374 1.94701564475437 -0.43970132089236535 0.7309132066903541 -1.5733873508798515
Ni 6.631244713523177 2.3144998556456406 13.158692210380238 -1.1223757471809896 0.5009640243575889 0.30862133952368787
Ni 3.2302232568605587 6.5202074588190655 8.833881881956493 -0.8115556002337702 0.8364654761015723 -1.2140558865958058
Ni 0.9520295341933386 5.427071342836721 8.687426571213601 0.09468498767941112 -0.3802491882733193 0.15867100361306866
Ni 9.199049170126608 4.613375453100111 4.790077890564153 -0.4054405999372824 0.23387037176404235 -0.8294214247705974
Ni 7.831069823675298 8.376619909655783 9.79466229047518 -0.8716808476604407 -0.2212475407937093 -0.4067300081726673
Ni 1.127636615349049 8.15691299125884 5.581710043055567 -2.704046935336188 -0.26310947113481786 0.38517593615097534
Ni 6.858247865698073 4.728503020679741 11.33237856636085 0.8036029210455966 -0.2665820030644505 0.5734346807234899
Ni 1.4984916493960678 5.651743753665883 11.663986864118941 1.5124216098297567 -0.5094347808327614 -0.3642098754222695
Ni 1.943930406506597 8.436878325238592 12.451155600871191 0.14566996336771043 -0.42882195497570014 -1.57176832721919
Ni 3.4007174469218704 5.000462764819796 4.112366479105763 1.1996862481376953 -0.20347376175005602 -1.258284260286562
Ni 3.3254612174621605 8.557349094322277 5.913290703564499 1.1139862375657137 -0.2415147756831776 0.7690843184434368
Ni 4.608806094572505 0.1047562292119302 7.861197188983424 0.2543646350626522 -1.1627070998101847 -0.5358523515943416
Ni 1.731740819880877 -0.003529276717592731 8.513060402545126 0.6453980584356691 0.5720696820551632 -1.422522473574763
Ni 4.520210286185428 7.96388523071663 12.489933425166058 -1.3763092082434942 0.32651416064370864 -0.8364721609697917
Ni 1.9630830201737213 3.7086885267159846 0.3539364313535733 0.06272360428146617 0.7666083460991184 -0.19182049378184382
Ni 7.2582878348569 2.5256392268033223 10.7753562582545 -0.3564590278322571 -1.6462835248189454 -0.8171145823787864
Ni 4.926173839080648 2.9481022174464115 8.372133462875654 1.8136919083050118 -0.5760266098203821 -1.0129264567082104
Ni 8.896817425741162 2.7907449331519674 1.0825796080452788 0.545080555060829 0.38334042560413334 1.0927656376240407
Ni 1.7780792743039815 3.00287924527937 11.346185214799002 0.6812965721044911 1.1531865619142592 0.5170426750870064
Ni 0.4990080371552432 6.93959350238913 13.497999324512362 0.5573963963137045 0.776770888454417 -1.9065706960136197
Ni 6.718495509117854 4.820986468781838 7.053978549208024 0.1323956148563075 0.524578064232103 0.14545681891563983
Ni 2.6606748261937536 5.875467285607255 6.055715582138384 -0.886699175446144 0.8104721373616041 1.0573990851992885
Ni 7.6387974812767645 5.823325008860778 9.116869809752592 1.1235790234604714 2.5188295486931587 0.030872264098824254
Ni 5.051444277101598 3.2203843961599867 10.835937108410832 -1.3405767878388912 -0.900181783313611 0.4779480230783898
Ni 3.0946164876541764 1.5760601953687403 6.842735998986815 0.6449956807909278 0.9124839977197317 1.6756475798033594
P 8.34333544925207 3.6849573421048674 12.672524439184224 -0.08015002728802971 1.1296337142949835 -0.48436549656895933
Ni 4.219406466339858 0.8653231924070921 0.05860110187491287 0.4430265286108564 -1.328173786188848 0.315831741229198
P 7.889854252636297 3.7916555486910304 3.0840222088099276 0.6406651717363742 -3.461306493230555 0.1768394469919793
Ni 4.152137401887072 3.028139691010613 13.231906047127104 0.07528755698940581 1.2754360894755001 -0.47943746313972274
P 8.72106294592327 6.896792615858365 4.299097553047934 1.4652169271194961 1.3486009436949484 0.39077862704973343
P 2.0979896457347444 1.1011232809892684 5.103673150562105 -0.8622713814210827 -1.102160448575379 -1.6322756405756276
P 3.3980458461698424 6.448065026097925 2.29589630199514 -0.604572796889191 0.6220228740448385 0.179242142896201
Ni 5.982487926766938 0.7082468868124305 9.582893711278315 -0.3657913609767765 0.5679559169971057 1.523652959769202
