# total energy = -340873.70305554837 ev
CRYSTAL
PRIMVEC
9.18350640454986 0.00000000000000 0.00000000000000

0.00000000000000 9.18350640454986 0.00000000000000

0.00000000000000 0.00000000000000 13.44098990611016

PRIMCOORD
 96 1
Ni 3.762996839037107 5.164161141010104 12.477485933456359 0.3996648737957697 0.13368887974643429 0.5613330123639494
Ni 7.6308234033683116 8.578597995506037 6.537106364587683 -2.6069116863440716 1.3473205343206278 0.6703161618335876
Ni 6.016923176170804 8.02171016880134 1.4794766526033456 0.6065510036614845 0.4409940715618599 0.752355178614214
Ni 0.13885920817428074 2.5325631041199643 7.220163630354845 -0.16369545341085356 -0.5438914198487343 0.2033866013528884
Ni 0.6466740502025402 7.355593717247933 1.114005241068822 -0.4733987131448105 -0.05014216807202977 1.85900400197825
Ni 7.212275916727592 4.868461419175267 4.236936481092318 -0.9707850474534699 -0.44686775673381746 -1.6806416905838413
Ni 9.433756925831148 5.880667492054418 3.157987438916634 -0.3953927287829771 -1.583703388093879 -0.47831929037487947
Ni 2.664566824783772 1.0995687690440894 3.7730068609880982 0.787056072430509 0.9988000446091573 -1.4492339214276784
Ni 7.673370588413214 7.559678779465257 3.9198364343470264 -0.530768509313531 -0.41821152644970555 0.30261164299449816
Ni 5.216598962423096 2.2674077244952158 4.355592893587713 -0.6519512861731547 1.3590684188851754 -0.9299988666750435
Ni 6.925722967244302 0.9411900180653754 3.484589659710266 -0.1628253921010744 0.08314176292650197 0.65613292835467
Ni 2.6248114256774957 6.206452380780494 2.0183124608226635 1.0806601126097581 -0.23303116369219867 0.17392947243403595
Ni 1.855711133611779 3.533399996104321 3.8302384727299135 0.04115976206776137 0.2827899802828807 -0.3273765086440039
Ni 6.000897957542841 8.511218609217574 12.432821950191547 0.1939766208928982 2.8663804754025084 1.602982290928149
Ni 3.458829924322623 0.533473558845755 13.414229297733964 0.327632590518868 -0.24989040134138255 0.2091996084902397
Ni 6.083769919089398 3.1542038342892864 10.293083331350168 -0.19715887527562173 -0.07653994133926818 0.5429683938138327
Ni 1.1665532645583385 4.474847152348254 1.5083073525234763 0.124984667104217 -0.9531308247068166 -0.7543053603620493
Ni 8.744268450548134 9.176857518439375 10.367612995703807 1.0848556387483446 -1.4102485413034165 -0.13418150311213667
Ni 9.085077555707072 5.819128815821765 5.565739344567301 -0.9578421141395569 -0.022661703263573873 -0.6390286645742156
Ni 8.518023587442974 8.944248485414914 2.4610722620264935 -1.7170253714191979 -0.8882109841049799 -3.4965887134716165
Ni 4.578988114664073 7.0189447404778 3.8026172405996412 -1.2891035596602638 -0.3839837156150871 -0.8914256343875356
Ni 5.7657542767583125 2.240555151848703 12.813268905575136 -0.5856759599846881 -0.9677933118149978 -0.36038793057301804
Ni 1.2149962606973108 7.88999113683522 3.6655598363765387 1.5284665791077612 0.7010315886395734 0.043932439716892084
Ni 6.243517012518293 2.993767977882112 1.914319352959515 -0.3090142040867323 -0.12245804402762137 -0.07133062922418683
P 5.589173816140272 8.594963003869951 4.528713009002878 1.4755956992506585 0.7237542270480697 -0.6655840464652408
P 1.796532618518028 1.9904148051504418 5.515321894557261 -0.6454525658226884 0.43562740793330784 1.1354662618163605
P 7.16267579878511 1.8949063388290557 6.549257061875166 1.813738188161915 1.9350086396393387 0.4683755488986062
P 7.05837871686088 8.398289031298912 8.893083497985781 -0.0186878062174904 -2.5505446204082527 -0.9917757907725242
P 0.021386549650888854 5.085789097588305 7.5432448948035145 1.1775086835993915 -1.0042245580588383 1.035502028015881
P 5.94165515790445 4.328765116408418 13.223380423257893 -0.5489341244789644 -0.044587813912703854 1.0159086792649858
P 5.442513219298682 4.544320378090686 5.881065137880545 0.7397701428603518 -0.48204250486273753 -0.8982411146474722
P 3.875935600462146 7.853569350543814 7.059449513704446 -0.15229003978738936 -0.8352084637660198 1.3995121287225187
Ni 3.9803428844628996 6.552477717561599 9.06063840853645 -0.16415233844261407 -0.384413346953338 -0.5374456642233906
Ni 7.708469949786323 4.675809822397378 9.0964182677321 0.3285615300910406 -0.1814293803555069 1.4288085636937908
Ni 7.980816014904307 3.24722357038249 12.730727550258154 0.3360467827244922 -1.1172052587236434 -1.9186538524303987
Ni 8.581132643266104 2.095510852129475 1.2614262322384324 0.5971456511871845 -0.20312691993359855 0.855605796475449
Ni 1.7747677084044045 2.2293971916005795 1.5263584526582183 1.2947368466866411 -0.3786563898649027 -0.7923155210572355
Ni 5.371396145914758 5.674580425446897 2.1171848455299656 0.5455448962917572 -0.6314729637141447 -1.3011234669392755
Ni 9.024301110503714 7.2313592429791145 7.7488920714555745 -0.24251879146765978 0.1258102483293059 -0.6069412971213677
Ni 4.159164120636941 4.766487764364433 4.164435453297372 -0.45123683233579065 -1.1827316225612277 -0.34527601463224405
Ni 3.877836586282197 2.809657042034886 6.2035008018309075 -0.3741785565992072 0.8274846127592008 -0.38992322102797367
Ni 3.1133372309113856 1.6623340398301034 9.67837247509297 -0.7418604497304772 1.2724099010546666 -0.21867515208084273
Ni 1.828289183569889 6.995875772458636 6.117760831242796 1.2351618153364856 0.08684749391286334 0.7582149798291006
Ni 4.833738581563616 0.9355513451498628 2.2728847676984922 1.3005789072897151 -0.08395885951115863 -0.6652379759797318
Ni 2.0006084972289746 5.269532693180449 8.618524207830928 -0.6755169893082366 -0.25550491931468255 -0.12690091029032338
Ni 5.3871550428577875 4.308322631213091 8.262041612338267 -0.12397216667930262 -0.07406216922273695 -1.4924986456535845
Ni 4.664045750728369 7.059783793336571 11.467369108277989 -1.4980368018629941 -0.7336483462333301 -1.1157572134232074
Ni 0.9257892778710519 1.7118055886833061 11.372448386364733 0.26399007396755825 0.6765729413765768 0.5336841402984293
Ni 5.070471008951375 1.9362413010321864 8.056610248086066 1.4050677684334252 -0.06008410977609007 1.637860847972889
Ni 0.7657060681087563 3.192361303285956 9.391837892622437 -0.23064209463473184 -0.2254862614654052 0.2803818850620204
Ni 5.595464518008557 0.7096673938453206 6.171269449499352 -2.201734881591137 -0.830612616865221 -0.5298328848731391
Ni 6.674168360563973 6.388873551454341 13.141604972372757 0.06278736763986606 -1.1629009609885457 0.8022880588889151
Ni 7.677062357976791 1.1073288319327022 8.550108922023133 1.232527463037432 2.632775955705343 -1.9569473486939586
Ni 0.32623763559046337 1.0288098524088702 3.9205215239227544 0.11125420489200195 1.9534768736468553 1.6216826955511299
Ni 8.177903245262314 0.7734486823352524 12.61199032290664 -0.8913562146021812 -0.09732833883952915 -0.6960570182431174
Ni 0.12009363124340375 6.397597882512545 9.77422073115031 1.223525259538822 0.17605731741031616 1.4154272572908784
P 4.3671062555326285 0.9940043632398265 11.470204975047222 0.9234284125463774 -0.35921345064894267 -0.5598996223515326
P 6.841905104540909 0.8999781148476973 0.8442140274249357 -1.331953050725622 -0.8201682816034456 1.3590563347003175
P 8.273751501319651 7.671065528312573 12.399380211719496 1.435174872231451 0.6557665461541867 0.11285600216148306
P 5.804921931456458 5.549923509884734 9.98070085183077 0.7853977108914796 -0.016536564202442487 0.3615649816002547
P 8.26274047717356 3.1191136564225537 3.158780893867611 -0.5164158401362848 -0.07691917905555785 -0.15097954850608192
P 2.1556169013673085 5.847055858714392 4.243159225013412 1.045063189341755 -0.8355259950064383 0.12546160674063556
P 1.1442557110748457 3.3979249100299858 12.906817611635658 0.20241678124045137 0.2973928177977201 0.8007729077959693
P 7.980944583993586 2.2887134592899865 10.663812300285556 1.1934688064730736 -0.07558914739022467 -0.12795994768245703
Ni 3.771610968018786 5.419793224521845 6.837821199255031 0.29082313500000234 1.5189830650973581 -0.11009052360120396
Ni 3.2581427594648105 2.838676922186384 12.092844870710369 -0.3227341247759861 -0.5939659679076221 -0.6623066612655497
Ni 4.247794140681912 8.753185635240255 9.145034832141597 1.442027890597542 1.5699364162167737 0.10229288193365609
Ni 6.380332890523679 6.606366532982167 5.470267612271423 -1.2565978737230745 -0.13132140795552225 1.4225227306850792
Ni 3.186961401536246 0.8019230622079534 7.170163111534324 -0.3112045268698318 -0.12665074195273027 0.4893246403464475
Ni 3.280183174769746 8.526637716424652 2.211728125331123 -0.6885576245422786 -1.2236268181136924 -0.19503694383661246
Ni 1.0732763902865772 9.0821847511983 13.144790730734956 -0.6388060070404482 1.6699083633267369 -0.8058593211799411
Ni 7.978400752727141 4.526265604553393 1.0815268524157244 -0.6228870218173467 1.0255030078216403 1.7175843292464612
Ni 1.6962946464124578 4.593782743437511 11.133105088113977 -0.1529148178555818 1.1247493896194887 0.473265787111372
Ni 6.400251915855514 0.610872150591586 10.342788141265348 -2.4564946952096793 0.40373621565166595 1.9464438780594737
Ni 6.985176987529365 7.174798027202825 10.728799383162796 0.6642285608786108 -0.09758853447945129 -1.0975417188564451
Ni 7.270829953387702 4.253818520865261 6.912956056678918 0.22264622091344882 -0.7131743946496943 -1.3726867809995587
Ni 3.8610491366249375 3.6049027767560813 0.8237651137751443 0.5021148501325804 1.5929135938382373 -1.985722106833806
Ni 8.753552975495337 3.4113328293404876 5.222778543864217 0.8173966323955795 -1.1231928437656462 -1.1697506369205273
Ni 0.2927628364954552 5.791357892537546 13.120207402514215 0.7115890524404455 -0.839278005849703 -1.2551320878108254
Ni 6.129990506685122 6.633081353033023 7.831876990130569 0.21984191869543426 0.8687089095163104 0.5573763417090465
Ni 2.391614648244903 7.300823285215168 12.815742023842478 0.4211940061167972 -1.4171504106295723 -0.202923802783857
Ni 4.016929973869092 4.471348236418596 10.071615728262353 -2.304313155975696 -1.3972796398475744 1.8764684773116005
Ni 0.9275433275890697 0.2029545725823079 6.785817757693674 -0.2637190796943587 0.7396968664202551 -1.6119387287904885
Ni 1.8804790503107003 4.23360562332936 6.218621445080731 -1.4094751534725016 -0.10534143895199277 0.24378248867143174
Ni 2.535042650841769 8.983829397900026 11.037848249867322 -0.2654656300718202 0.7978179389327035 0.16469098455490344
Ni 1.9428166915981586 8.199778357452463 8.568913069680793 0.7087695807137793 -1.0564513765740389 1.225972435527734
Ni 3.3539359144838854 8.610703533800226 5.1394712841153884 0.7150942373802265 -0.10153080695665094 0.020686067594441793
Ni 8.231066563679093 5.076780077832413 11.421776672518453 -1.1951284535636837 -0.0075888680908514465 -1.0162611775083983
P 2.4348138622425766 6.946900132949794 10.614026675514259 -0.7641164329152001 -2.072019384670154 -0.9579567853405503
P 3.228792273083738 3.3814037820576606 8.266423981581399 -0.06061812790268915 0.4848362655577908 -0.15475418505716576
P 3.781510787893253 2.7122659569062035 2.524621207805086 -0.2106970189713726 -0.2497515617706731 4.384915654329171
P 0.9884299748689533 0.9440920060805252 8.758753595156664 -0.2133725089210067 1.3027705156243952 1.7170688230626237
P 7.774416709079965 6.478219884996722 1.9408789717525998 -1.335893266320293 1.4238249944362704 -0.3158795637479979
P 4.179771908947056 7.355171275954588 0.48304876203061387 0.9948217766876998 -0.32935291564408437 0.4198536900388189
P 1.2490119683179275 0.16563096596467544 1.8812679135084893 1.37620456434483 0.6110326935819219 -0.04214063792379194
P 9.217760855842783 8.048177034180016 5.425200473076656 0.30323384995952934 -0.5074048948869261 -1.2320047577647428
