# total energy = -340885.51277492114 ev
CRYSTAL
PRIMVEC
9.10804821324783 0.00000000000000 0.00000000000000
0.00000000000000 9.10804821324783 0.00000000000000
0.00000000000000 0.00000000000000 13.33054921571116
PRIMCOORD
 96 1
Ni 5.68576294071819 3.2171175151126175 9.769559529277997 -0.1844573685485533 0.8753053317869054 0.16153418409347664
Ni 4.43216759760039 0.6824077715831676 6.943509732275303 -0.9561012201890501 0.4998054852731134 -0.26343085902997854
Ni 3.6821198157282713 3.1744645246753724 3.407248024482143 -0.36993057995613066 -1.0555710308516142 -0.3570943474234108
Ni 5.100989804260176 5.167442125043892 3.1160555213922185 -0.3405598401034973 -1.0032717072272659 0.2901083683211649
Ni 4.882178050626955 4.530680248586775 11.987003159697299 0.9659755418799686 -0.1624016743000945 0.7196029238838574
Ni 5.7938754746686705 6.457797551314527 5.173959844445321 -2.507584314796643 -1.674357400237026 1.1617437074556507
Ni 3.443816838619564 2.8948565482856674 7.538052161396778 -0.18411541182810226 0.1549948403130621 -1.085624398593569
Ni 5.5418193445468855 8.349120224014865 13.11010202923221 0.04683264408282257 -0.21321567162816826 -0.8070183744850489
Ni 2.2260343416258817 5.432695817229219 11.95919537727066 -0.4556820125913378 -0.21316142135146512 0.12912979962084212
Ni 8.246299466157495 7.406291490702488 9.477340549138685 -0.8357607367250639 0.6914593715701058 1.2458786875333574
Ni 7.622434586168271 8.996556733141734 7.687487910724961 0.9929261023268835 -1.3775469373053373 -1.7618972922312237
Ni 8.561929773783438 2.4509667037523397 2.0706738068440522 0.3234092964661398 0.6463408819649127 -0.7211653832749709
Ni 1.4621423262571558 1.3052653014245466 3.064493038056038 -1.0954845792171004 0.9394654114045821 0.18409175767901845
Ni 1.8150883079854672 6.224403812268102 1.0500204435743652 0.04003361888311815 0.41597852335412877 -0.04650508554007475
Ni 7.379686881463284 4.3158304959871225 4.442538932259986 0.7035962640429559 0.28680141543511894 -0.9312183409044414
Ni 7.526189839221791 4.239614347368958 0.028238593113737897 0.44692586366526255 -0.6700009445860139 -0.5110887714964165
Ni 4.206151377719921 0.2429407953300715 11.062650102469046 0.730726801711161 0.7349608943971665 -0.14570261637785875
Ni 0.3720492023439592 0.4081553276250454 0.6414151783606801 0.6326088770908008 0.13381897756639535 0.17078912703284135
Ni 3.4951133669438352 4.45719651447452 9.840012104898364 -1.3741937045623884 -1.4266848324825687 1.5243949801415488
Ni 8.952455563016358 4.893435598391301 1.8911915168040547 0.14929701859733643 0.5913174745411817 1.1707965616865386
Ni 6.167851940044131 2.2213528047724234 7.624941121075026 0.3025537931733693 1.0499950794257336 -1.6388298967543777
Ni 3.4542546620321373 4.236636015557516 1.2142932036696357 0.22114778199105137 1.2098760441865035 -0.8030347072469525
Ni 0.4200686548708102 0.08044592627331268 5.558066281199023 -1.2755710723914677 0.02769386637084263 -1.2502925003303371
Ni 6.899191790599124 1.0552766982788997 0.8225906545895059 0.02924655556994318 -0.504891127326137 -0.33442750195351434
P 0.2397028841405689 5.536800809904366 13.11318146038037 -0.38124471941736926 1.1010710721659422 -0.5291775106773273
P 3.9115060134993622 6.079822652712084 0.0509303847804798 0.45372951685065727 -1.3201671138342879 -1.3696413093050155
P 2.310511490100246 8.929904035294252 1.7161084141185714 -0.2875817452445692 -0.8883943037603796 -1.8486571115262873
P 5.811162550442724 8.313116108875333 6.5396743519841 2.025888908860679 -1.4404852287007708 -0.8230620582114729
P 4.610494076304388 1.7128413571743393 12.892400546693223 -1.6683340768610815 -3.804881723121608 -1.1464029633335224
P 3.722905656253145 6.262320617561771 8.903167359353928 1.311464443853967 2.272481870397712 -0.6154711889692497
P 4.532711343369501 1.0920823216734985 4.036237092474783 1.4746737016570215 1.4958176827244885 -0.17383794116149417
P 9.036686794185188 6.184492344385119 4.359275886631082 1.6751904376612825 -2.5345292188166026 -0.6652572592534415
Ni 2.8816498781737727 1.5365824054464796 5.253582403147519 -1.5751539558619712 1.1463813660669677 1.208376062602209
Ni 1.8668675628724498 7.145355013436498 5.279604097292129 0.7250210095756353 -1.4395827714911595 -1.1380335083229047
Ni 6.634684958378745 0.9026467563933088 9.505481686135047 -0.3262753051600252 -0.1830139512338074 2.3997288511735446
Ni 8.369895682308128 2.5086844061654987 10.248526289628519 1.0862432631244907 0.16008768145493718 1.1573319515412002
Ni 3.7089612342246547 4.997176269132327 5.259701190031086 0.04205733418136628 -1.1845388509732955 1.1718705114770076
Ni 1.7055822426369736 6.725920278731058 9.834106446346258 0.9479623931319997 -0.1144958517577512 0.06090017791948221
Ni 1.6387473838224305 1.3054292462949013 11.827583167764523 -1.2888274231807415 -1.167504521198828 -0.36371185273992845
Ni 4.008078650186552 7.16405383670527 1.8667436934148485 0.003806775340599895 0.6099541158057624 0.9888496182646648
Ni 5.588516308452877 8.0419877255023 8.690891541218843 -0.7412048184243494 -1.1016194884702448 0.7454314549111872
Ni 6.683003154891575 1.0200012270076098 5.454861163701156 0.2941763677429514 -1.0010595300672955 -0.2912795058111306
Ni 7.707367137060287 7.343163607567629 5.249303442031265 1.312652293514481 3.5640655161673522 2.2820582012322372
Ni 4.916597365353059 4.617571029874693 8.041040488473586 1.5756563494196865 0.863629438110874 -2.1050056097881873
Ni 0.9152677789961041 7.283141568921153 7.374859615836177 -1.2700928228857158 0.6525986899491664 1.0236276451757984
Ni 6.4762231331327085 2.182543410740158 11.910113015501011 -0.22586678473327554 0.33793551510677283 -0.059765550094406754
Ni 0.8768536742623597 7.579981972794793 3.09496674623561 -0.020660613673145062 0.5094404372597162 -1.097656647167755
Ni 7.299781973262141 6.385561619826635 7.575990826006495 -0.5832331548711503 -0.5212271454819991 -0.9377358303079849
Ni 2.3267511403137004 5.243904190967589 3.265838287362652 -0.7162376069560503 1.543143978614278 0.4797493379531867
Ni 1.23060662907475 1.4973813653350334 7.381258930609017 0.026881397771876286 0.10725125438019595 -0.45495901838238423
Ni 0.6709106821471362 3.429681147575659 3.9865936749265862 -0.3155268083942695 0.7958947537680616 2.378345500401762
Ni 0.6125581487637713 7.765021083134974 12.228046748555434 0.1961630870212557 -0.5834121036511758 -0.46566766304914
Ni 2.4528702858581233 5.314245648398048 7.360076342554373 -0.16083355848202624 0.2492049452385837 0.3997047258947697
Ni 6.302751244200876 2.1316931767851846 3.0550024516721797 -0.10680696775392573 -0.4246858213201395 0.3951597868365646
Ni 3.9201859835798007 7.126392056765487 6.702040797559081 0.008264039781005122 0.636738068767826 0.7414603860785811
Ni 8.518958001653838 7.326514095178288 1.0043126137195135 -0.713239700669991 -0.42781665363963733 0.07578840788522433
P 0.21283231988945628 5.690526450006826 8.69923633511989 -0.9184672118863602 -0.594213565142054 -1.454235745517644
P 8.290309555799341 1.8037670038826494 8.208246040138532 0.6827232772486888 1.1722140108593553 -0.3131310544685833
P 1.461932841145036 3.4508300358513977 10.74523643897558 -0.18276815377158848 0.09302945435385913 -0.03840019704475322
P 3.831072838493744 6.72376167127139 4.036383732053267 -0.25515062129905736 1.0216360686670662 0.6599993532886118
P 6.93839283071057 4.141411370026575 11.096549347634193 1.2000168920042367 2.2337687700982305 0.5745250855741911
P 6.3926294653485884 8.202298484564002 10.965656673947946 -0.6750140815298891 -1.274738034967211 -0.5203128611978459
P 2.2286574595515543 8.844215516388934 6.57975887278579 2.0243367338822105 0.3963028993020723 0.4036891644638145
P 6.836701470848976 4.0727366854447205 2.243825092473857 0.2510972771652901 0.6018862511959634 -0.5265102482578095
Ni 2.6580655072035633 1.917781553165894 0.932848133927125 0.6280066024320992 -0.7687819567116696 -0.1398433293836043
Ni 1.2007322304768078 3.619875413283656 8.515221880219423 -1.147390266947456 0.3723893259092683 0.6421052466170103
Ni 0.5304636657385601 0.21798292123309543 9.458784722229055 -0.362227297774602 0.06956119602858987 0.015667274223611725
Ni 2.4509667037523397 1.7814613934660761 9.475287595039912 0.062488862562840766 0.41999844314679924 1.5433555804044516
Ni 5.3900519348403275 3.0355121390015287 0.7430464251031432 1.2002521479434942 2.0756119871174192 2.247004552062214
Ni 4.411774677337953 6.669441270893912 11.109826149718407 -0.9547045969518396 1.6049664112377133 0.09837863448091444
Ni 6.871913185781795 6.237082215575521 12.146903145778278 0.3143847243700263 0.968061734985036 -0.28009109329447895
Ni 7.770258210937968 4.0892677932054715 8.506397092170172 -0.40613351223924893 0.14539691221198184 -0.5595365825851588
Ni 3.0995235028266315 7.962483571428691 12.989114358129886 -1.276417479552163 1.6485640933230061 -0.2982009155213122
Ni 8.889172843059496 5.472279395371492 10.887206321068783 -0.1462644024185997 -1.2885857394835807 0.312852603996216
Ni 8.641789141742816 2.8214730027052957 6.053122408965174 -0.7721716991195088 -1.2970428691119986 1.023749001245011
Ni 3.1140781640947752 3.046715038475757 12.021009879833013 1.369011131920184 0.19414271415711726 0.2056473723626071
Ni 1.0418150028131195 3.211971467793155 13.124712249595309 0.07413827387631103 2.5880778414670202 0.9234016730735001
Ni 3.2017340214443477 8.708651324702418 8.71707262620963 -0.8575762899382586 -0.9001784408795013 0.36108418530909425
Ni 5.585811218092027 8.356242717826936 3.7344737884663304 -0.2409766437915205 0.23974405693600007 0.5672750888799973
Ni 2.9370814604503206 8.848842404952274 3.7246890121206686 0.9078228447986364 -2.5296042707111597 0.8324095608646439
Ni 5.206215086882745 2.8420025436930274 5.218403477188772 -0.4548080946268167 1.0702556294469825 1.064579662108128
Ni 6.175785050159622 5.8761940156833665 9.842624293166013 0.6498704923847259 -0.6568047576107141 -0.7964218299161252
Ni 8.074357729348973 0.17675442955826445 2.796002345486044 -0.16650566916613904 -2.009348745113811 -0.4204820676514372
Ni 4.6075795008314175 0.4654230924495643 1.82708542927608 -0.2075492173710103 0.9861479030627855 -0.6374608058664635
Ni 5.960807784883026 5.8741902450457 1.0087628061448046 0.015620223035760198 0.06944626771728041 -0.39336772793314834
Ni 7.943447750370855 0.3783519718042568 11.695571114935689 1.3780027938958335 -0.6041722190166627 0.14300527205135372
Ni 0.15260535015503757 5.018079240102534 6.452492113148885 -0.6697127239216337 1.5417794941665834 -0.49003272215706584
Ni 7.069129756769979 6.599045165173334 3.175377151120346 1.554871294353535 -0.9950665457086539 -1.2891860920717413
P 8.477343328728837 1.5753007189952153 4.216546393305236 0.30106640999456535 1.333420379299768 0.8992998949292899
P 1.6997075514492683 3.532993740044092 2.2326540711688647 0.09516115598488128 -1.4597350780693181 -2.114878388817209
P 4.530589168103245 1.6748607955421992 9.04791064217063 -0.6108468028233609 -2.0169548395958423 -0.5391515911709038
P 8.453416485705425 2.1647736084033937 13.04339650470428 -1.7019409662822498 -2.1033799012593066 -0.333353037942413
P 6.477361639176838 8.064785170529937 1.7419033178591912 -0.15428238762706978 0.329363971387678 -0.9601946735321333
P 1.7496378725205852 3.6029344433470185 6.140383887821059 0.8650409737464199 -1.3364720216418982 -0.6236133584604099
P 6.311932156940732 4.487808664989058 6.22306037513603 -0.37007327618158203 0.35989119344225756 2.050623435492881
P 2.15343408820387 8.588270249620404 10.774322991390985 0.17251767968817386 0.4344290167498325 0.6359520825314208
