# total energy = -381164.83898793464 ev
CRYSTAL
PRIMVEC
9.24922002679218 0.00000000000000 0.00000000000000

0.00000000000000 9.24922002679218 0.00000000000000

0.00000000000000 0.00000000000000 13.53716843469774

PRIMCOORD
 96 1
Ni 3.579022726945125 7.541925086247405 12.346993911459627 -0.9626300224465033 3.9532616292213145 3.5301248975558495
Ni 1.8088884796490332 2.788084916580106 6.454007766353113 -2.72978702041477 -2.187209691391769 1.3553056094086338
Ni 5.3466966816861135 1.3542708117225954 6.2078203491785375 1.498028060112246 0.6982969633172296 -0.8386033483801817
Ni 4.147905260381882 5.476481738577873 4.28799302357864 -0.21166143976717094 -0.7873283522552892 -0.014421831852284841
Ni 4.10006829385935 0.7402345105235891 12.869042093836157 0.5490469959077448 1.6094537575851056 2.7043788647543106
Ni 7.916287271088765 7.103576796533097 1.5087855084811952 -0.8501254900871682 -1.8465197534683104 1.7160097856704897
Ni 7.453345305043557 1.8436747965653608 4.596599727735808 0.45569692498967324 -0.18289876581218178 1.6074693801652253
Ni 6.743800631839848 5.529563012915231 8.8412333322578 0.9659927682711492 -1.399068870537513 -0.5830166679849701
Ni 6.923217003959742 3.2208281788944424 6.857686279324756 0.15510591196962964 -0.25578928332432077 -0.8029069234198366
Ni 7.770667549331078 6.513125081748592 6.804958325196439 -1.6543112802194282 -0.6298927637112184 -1.524047366994143
Ni 4.447247020732859 0.4942256032975596 2.9710566889187286 0.11105957238269261 -1.8639315211868546 0.9649887524866669
Ni 1.058360512040578 3.9378924680654412 12.032377064060707 1.8604129665106346 -0.06967149635420905 -1.9110922380330573
Ni 4.101418679998616 4.9024011434269505 1.8923469676658102 -0.11206847326318117 -0.4821306937011696 -1.252397976709114
Ni 3.0615196113414442 0.3068095806855272 11.090325495179615 -2.5192465816259193 -1.2686890005596538 -2.7853045938660994
Ni 8.078990302430196 3.4531963362698472 10.637073937066669 -0.7703127915338992 -1.7505525566423659 -0.12252900647487285
Ni 6.2215619155286 4.520574837939093 2.584935970523598 0.6300683700571343 1.0236998931746304 -0.2883492195382131
Ni 5.507281641617323 3.432746310558068 8.361516055659244 -1.2248843446698776 0.7485172929253624 2.6596938631421096
Ni 5.693681174936852 6.522087576056469 0.36725230932591785 0.050653303380493404 -0.35776669090008706 -0.10550110445830861
Ni 5.237084173902174 8.772607818566659 11.201072882273746 1.8426589849613233 -1.3119416406007018 -1.4537870880159995
Ni 1.118452695237967 8.149487858276046 12.336611661861495 -0.9005659061259071 -0.2874845575450726 -4.269228610476796
Ni 8.056449952968592 7.25618892871055 12.800692206904948 -0.36065044020578535 -0.49152704731440505 -1.531625436451717
Ni 1.8755476091401186 2.2084547893500037 9.454168976261101 -0.16711630616694445 1.5062170236809413 -0.3878408845776482
Ni 4.79861564432615 2.3506615488789953 1.7558654753985063 1.562681020205941 1.5091737923164203 -1.1426697215433355
Ni 8.279041684664508 1.377847073838979 7.2407205329618485 0.11651699595283804 -1.7070199234670538 -0.3875068982769972
P 4.992275815449273 2.1870520939646325 4.001275523785784 1.392396086503028 1.2086344584699185 1.1644217685084461
Ni 4.804396406908629 1.6989429999403423 10.536127023624367 0.6281994351691956 1.9448073708973153 -0.6190794751457983
P 3.178475999910166 3.9143439536094533 7.501878737842028 0.4228407976916008 3.809677858958671 1.5915899899308072
Ni 4.608692158136342 5.922146161416567 11.742397364327307 -0.20610374317373537 -3.132903857314882 0.17536414799803346
P 2.4098103116229233 6.950344966606801 4.132599650907503 -0.6954206702106991 -0.9712265058662628 -0.12646073742911124
P 5.2680505629039995 4.064514291672068 10.54387047071885 4.43473309207193 0.092133424902151 -0.7300863399136845
P 2.047139141028369 8.838471515126395 0.40140967927327165 3.823382867249589 1.8685301963011305 2.0489434766872967
Ni 8.62157730303177 9.207811373436098 0.6305433843685276 -1.9436909979046846 -2.197600033487157 -0.27801724148458573
Ni 3.0625277763358287 3.1894270765464148 3.093568159098709 -0.045321349644618716 -0.07569250573730836 0.5591241776380887
Ni 5.243678867856266 5.005603941659437 6.5104844294009165 0.11791670451384209 1.3598618613207483 1.0032840485224397
Ni 2.752308933109658 1.3825271792257543 1.423920214082346 -1.1140366311876748 -0.5601816723683255 -0.18114835877997834
Ni 4.195631236262831 8.011600484548683 4.919610242404488 0.7867079450624709 -0.4656329531564626 0.31086822657633556
Ni 0.8600516828791281 7.283899592225923 0.7783070753528046 -0.7824206305410267 -2.182351591968519 1.333446090331381
Ni 8.902883084125413 3.2854617291766273 5.769541428615218 -0.04471996861519395 0.41657810461134065 -0.7967959254260922
Ni 2.3397197214628784 9.046504974334594 3.6458982881872983 -0.9596200319755861 -0.0864371458483221 -0.7520939545330274
Ni 5.184150887086927 6.825674728448019 2.8227435942586125 2.2886343117878587 1.315863344252611 0.1449551966888729
Ni 6.52054295629443 4.089477936808247 4.887594991839698 0.002541278364614978 0.1765252581856702 -1.8734371466844444
Ni 7.308752246720518 2.3505320597971475 2.4977972178163115 -0.3985467010309265 0.03636671155449221 -1.5182600708884044
Ni 8.697374662013239 4.287642478135638 1.510274632922442 -1.8424589531353752 -0.263819609827965 -0.6925325500296268
Ni 6.383820984303695 9.112387169334594 4.391051533977068 -0.7686225483156699 -1.2934338116045014 -0.28394800514672386
Ni 1.4952844218545631 4.4515571573143555 4.491429620381252 0.002968595710020694 0.5938587529057966 0.5830372368102604
Ni 6.5187116107083005 6.5046805437681074 10.872972521766444 0.9799551439885121 1.519460518954409 0.06944703904822878
Ni 2.131538274732567 8.063044646922684 6.252790982382173 -0.2945481492600734 0.9099128945584458 -0.9738248627210584
Ni 0.706009621269272 0.7696322317910329 10.680893967285888 -1.7335961312936854 -0.5306731213862473 0.303217137788981
Ni 0.7918026124473575 1.2313856730492831 13.336371889911971 1.6051548730994356 2.557947340630227 -1.5726892963715624
Ni 0.41600309879748903 6.709985483037377 5.36475300922774 0.833585840560932 -0.5888304464532698 -1.053047493098812
Ni 6.913181600116558 9.022623487953854 2.1533978815924577 -0.6881071672684214 0.709958458815558 0.07139773501669638
Ni 2.1112269873227674 9.244706512542512 8.559199637539772 -4.508159941703513 1.95978173281896 -0.16185994286401156
Ni 3.3398378943324607 1.1401513656675615 5.330314462988373 -1.666405749490117 -2.2310251459148223 -0.48885618535046127
Ni 5.842038665853601 0.8778795546834943 8.330922410228736 0.41262040551517326 0.6385560958131713 1.3510509478973378
Ni 2.026134162108672 6.673673044799275 8.157768685060198 -0.16841188504991642 0.5822239968803458 1.649014293486547
Ni 1.1787853581587873 1.873226054886995 4.34356326305351 -0.5241836570071617 -0.4872986110553543 0.03996162799460215
P 7.688654714420928 1.6516424881854637 9.527256313743905 0.15418211460377962 -0.14689560824469539 -0.24126846400032637
Ni 4.469972354597102 5.8101103579580515 9.39350889094761 -1.2892992206108376 -0.29998603244619304 -0.8477870717619785
P 0.914321482003444 3.342529417390863 2.7407890294352932 -0.4172838724291136 -0.6701120162425814 -0.12830756082986292
Ni 2.4838780664397144 6.679259573758983 10.6692112773372 -0.822494358633461 -0.18232746668974406 -1.646958182288467
P 6.4856271502962555 3.4443448326035546 0.7270377232392988 0.3923804243192145 -0.322324033821761 0.04389772982421472
P 6.194470949762069 6.824796052535482 5.151204240054848 -1.3372479805759745 0.1029755098229775 0.2737594946494963
P 3.5729274908781585 8.310350294811215 9.361723945964107 3.6471669127742223 -3.6554774895224464 2.224119419933924
Ni 4.018915636421472 8.8512909342293 7.37835262821357 1.4006840375434328 0.25969556035726243 -1.7572086285063024
Ni 2.8603675719114277 5.7278292956640735 6.242286643078298 1.7941643797950455 0.5422906510205177 -0.8641601138033633
Ni 7.899213210725155 0.4616840721072605 12.00186388684535 0.8611766056950072 0.0837742543041783 -1.7072261259405888
Ni 4.6907697375874156 8.52709651938373 1.089020751856035 1.0919680814234098 0.9044403014796488 -1.2655800226170268
Ni 3.3778984351755046 3.8338109939204177 10.615130162303576 -4.020858502434682 -0.340693023247252 0.17425086032919668
Ni 0.9390733199986007 4.945844730386799 6.868298834504174 -2.3071693944775684 -0.5327055784352438 1.6960418271889952
Ni 6.916964531150533 8.722708275954696 6.6291509987720385 -1.3912686577668039 -0.5061939052979605 0.8758671178276464
Ni 0.0439735672734103 8.018750131710695 3.3287897008848257 0.2932834236150368 -0.1222263876327895 -1.5124915438357436
Ni 3.748718168706322 3.7074758961378813 13.031826518314748 0.6232824574835524 -0.6793381628265397 0.12412566153803138
Ni 8.73819147045561 5.520202802141681 10.867313848889708 0.3817345145695942 1.5775484242360767 -0.29067941033328654
Ni 9.234800597781177 1.0464845133911325 2.373904839070628 1.0212897410712412 1.1991499160182508 1.4658509611590689
Ni 0.7284972501761232 5.845877092208368 2.456319090134506 1.0649668702442174 0.058599297700447465 2.2805466496837177
Ni 0.16615761506071963 7.676852709532538 10.017031192313961 0.5109203642393524 -0.1891282916616614 -0.04398051934600813
Ni 3.7369716591387236 2.099332490233058 8.105623431800193 -0.20517506071187894 -2.8719713392267248 -0.2567061387116353
Ni 1.435432718380605 4.679790913290772 9.547358568778721 -0.8247733844756248 0.0037975193692192668 -0.8788830218358348
Ni 1.939746446076101 4.176883067055335 0.9773752654870889 -0.35214934471330966 -1.0502848427520106 0.6827456458461919
Ni 7.406202030030921 8.796998012054654 9.406315361142333 1.3921857702644347 0.050890101981647846 0.8992867823031674
Ni 6.31213027906082 4.456477742424561 12.364200235671127 1.1375192876906473 0.24120007265623622 0.2679953384722094
Ni 3.2191078239498965 6.988248270707602 1.6826292254715793 -2.45050222507167 -0.06951028818599642 -0.006996743032807304
Ni 7.795473957725014 6.16950730462589 3.9711415645958357 -0.1349507771779934 -0.5269478500158603 -0.6949079922403386
Ni 9.186982129698908 8.17753149371617 7.616931636907591 0.3875061269460487 0.11989799660992898 0.02506568471937619
Ni 8.65821346397449 3.311516782288378 8.309060028602806 1.2816234492331346 1.6906142284155206 0.8839833191768776
Ni 8.50730318830132 3.0325603031082555 12.875593316455628 -2.1744354224452356 -0.7189853449045165 1.713330439066114
Ni 3.674049214580953 3.2761015184030766 5.529256863728863 2.774682081155247 2.328162708899784 -1.8182383900251136
Ni 2.3150243037105267 5.711883640156564 12.87762444519661 -0.2588504387481478 0.8209298423598184 0.2553113152466377
P 1.1016098653776554 0.6745715220407166 6.714773804299695 -0.38552046397458767 0.6030926127992388 -1.0150643289868198
Ni 5.67965935721679 7.652231285541242 8.584811653007202 -0.6175784651202396 -0.10614028070420431 -0.14358042782853336
P 2.205855758492921 2.1484088522532745 11.70121706153375 0.6816020191600519 0.2363041780165156 0.34867809833525754
Ni 8.739051647927882 8.938529578514013 5.262980140427655 0.7213474173787899 1.3522516530736581 0.6515113704222586
P 9.012477093469089 5.2910811210325965 13.013442768380452 0.14371541074450087 0.4799928214225605 0.9677331480010235
P 6.3401739145009435 8.753341693031771 13.047596438639752 -0.5652318331977233 -0.3532847438693335 1.6291100983634523
P 8.873072847640083 5.9260030862115975 8.435916782400787 1.9417202473315591 -0.2663868563345089 1.8470164905990705
Ni 6.2629614248392835 1.9559880766278348 12.6635207228158 -0.8261376118130032 0.15254303633845986 0.3556681564998455
