# total energy = -340867.163790747 ev
CRYSTAL
PRIMVEC
9.28126556319845 0.00000000000000 0.00000000000000

0.00000000000000 9.28126556319845 0.00000000000000

0.00000000000000 0.00000000000000 13.58407031643989

PRIMCOORD
 96 1
Ni 5.37504073585034 1.3153223864210306 7.496300885241718 0.11327689174898554 -0.6761548800025516 -0.15003004010861906
Ni 3.9358320173194303 0.23870022717769987 1.0883202662999152 -0.9408280960800636 1.1521843459019898 0.9373028565356244
Ni 8.529529415690732 2.415681382221974 11.505463253277881 0.554479993997858 -0.42086336225025583 0.29323123022086267
Ni 5.126841133416837 5.6176808602396555 11.66135417326718 -0.06042760915843786 1.561953398011297 -0.9436884483469943
Ni 6.593466710282523 0.9350875007544478 10.75582564692864 0.946191417274506 -0.06914210621330029 -0.17997644995906426
Ni 1.345727812252014 5.261846421615092 7.647125162385738 -0.7249006819476871 -0.6182634070024061 -0.42271969873270426
Ni 4.083617608133456 7.302211988894056 13.566764571181675 0.5818668706512431 -0.2263853762409069 -1.7412677889063302
Ni 5.353155511763204 4.853247988531085 3.3973218545524433 1.308037163339973 -0.22840343511220015 -1.8349649587511754
Ni 6.937207659939514 5.134925115681424 5.298344070130892 -0.6582887983554081 0.057083889497185555 -0.020578338371983917
Ni 6.161154643804692 9.100707776821546 1.1819840135094801 -0.3580916783396736 -2.363069548079298 1.6981735288200173
Ni 7.195004090916739 6.0393937214980165 1.6400998543753753 0.5927858315565919 0.8161830717034524 1.5411063793589588
Ni 0.3050195099235153 8.627929392693199 8.975266832737708 1.6146643552517674 -0.4053390413624116 1.7019036852864111
Ni 3.8247909566839344 4.098049976011105 13.467152460902794 0.19838014927723255 1.0827465628251418 -0.45351508684700603
Ni 6.248185070549849 7.529073961905877 4.084023199436513 3.106570104516359 -1.1418559673927884 0.17382380009410708
Ni 3.3020422390165125 7.476319248711948 6.809830643869001 1.0960327384110866 0.7484758981644658 0.12157358454013903
Ni 2.0495076138123935 3.827612461400851 5.254848347415898 -1.1063114946292754 0.3884054988318666 -0.003201537656433196
Ni 2.5069626285735374 5.825135707057159 11.32958976863226 -0.2589995627315023 -0.4182979155159248 -0.5418165395975766
Ni 0.32519419677602096 4.488150846921379 1.799237361042232 -0.9236726673466996 -1.069830626094422 -0.1773572671686623
Ni 7.3268073425119145 8.10306454648809 8.508436811678676 -0.999227361954563 1.665327943044906 -0.19562366957801794
Ni 0.696408620487435 7.921328086415903 4.2318050777443315 1.2115770860380102 -0.4625203756694099 -0.7084145113672058
Ni 5.887088154377615 5.175818371545684 0.045206259949624704 -0.15449964584419842 0.03522385619930063 0.41306314947954664
Ni 5.573873287003318 8.11172396721468 11.79730336616843 1.1454737666510337 0.30101678770355256 0.29266044531905727
Ni 8.956022128689922 9.254322002379727 11.752434944283593 -1.8824630043321386 0.19025186374314332 -0.8690608935390903
Ni 1.4130077059787531 1.3166588886553594 4.597637295582917 2.2163379762162925 0.6472747066330916 2.278156809295302
P 5.4719371478391885 2.653365310825653 9.375969693247105 -0.38115601635830487 -1.0632375462579366 2.68188891118191
P 4.86931385913958 2.6647719861450296 5.396013611537237 2.0661277017760677 1.0309000104674957 1.4830958642824457
P 2.2295456022951208 6.0170629966661044 5.63154799904737 -0.019100211164560652 0.28495407781373505 -0.6391150536404349
P 4.879578938800468 6.344793763307695 1.6935534468626714 0.7934552910886336 -1.2579960396221819 1.4511144262798428
P 7.024312336808798 0.16356374219151992 3.146328591198572 -2.6590027506123564 -1.583995208302685 -3.421821033541423
P 1.63342848072235 2.9043307303829753 10.823665200966005 0.19379175857560174 0.4509362703762363 -0.1264360548387629
P 2.670090151285797 8.925171202114162 3.420862856407665 1.1918536394671537 -0.2259071510529077 1.6677671486140182
P 7.470982521040149 3.105260847542609 2.9517097345899366 -1.6006754971718433 2.8839164274037428 1.052331183758078
Ni 0.734488724773742 1.972203953328187 8.796704565472051 0.3976951516639086 0.7230654285111612 0.2637365631958555
Ni 5.633988043751573 3.656530894141231 7.6331874859601 -0.6087685801380934 1.968122648584488 -1.3450764754814577
Ni 3.372449919222202 8.095927253306154 10.759153908742741 0.7442168657777958 0.12873102152052668 0.430599101480781
Ni 1.0063954637152062 4.137096260037646 12.89155436113318 0.5401707764640374 -0.5389952680986976 -0.5146160679233847
Ni 8.348953113808067 1.6893016991297125 1.8410355402943182 0.8571096347144851 -1.9936033093540955 -0.7083132099026511
Ni 9.124235784905045 3.228219053100871 4.351018292666818 -0.49228423719540376 0.2680436752116416 -0.15514113608293928
Ni 1.5033793883097315 0.5733835898174563 6.922972054890806 0.4611165533433477 0.7285843014468613 0.3164449493331647
Ni 7.8479875263071035 3.1597975637156424 8.550139393895945 0.23581952507061324 -1.3541190452997003 -0.1786775286419826
Ni 1.465576793862358 5.605002651544564 3.4758376483130617 0.14594378585438736 0.944047888568942 1.177731855353791
Ni 3.745714574486139 3.2639983316657184 3.7517167688954483 -0.2018071726809105 -0.8651057655460843 -0.5199729613599239
Ni 7.935751173028037 6.515541205008733 11.404506287625706 -1.4946581151987486 0.5815105157530888 1.8790179832063316
Ni 1.3689773823700275 7.864536022722439 12.146210268211723 0.3271445951388559 -2.518697908211301 -0.27049033697992125
Ni 0.9838141447143569 7.550931342196464 7.13549447268014 -0.5381167221484862 -1.6241941491190734 -1.3405598185580268
Ni 3.2832848014083265 1.8228683911729606 8.981393396104933 0.7953285968519465 -1.1660513336920693 0.3263187568034509
Ni 3.8970177649307938 0.8497509049659934 5.4277462583370335 -0.8432637299703284 -2.3220974765423104 -0.49928098022821105
Ni 8.111668279621583 6.126581929756947 9.219943266781272 0.40774687947295585 0.4814138701398032 -2.432629458556307
Ni 4.4535410078115705 6.418431323913013 4.65570924579106 -2.308027114492173 0.07127226518242565 1.730529833663536
Ni 3.8940756037621673 3.928249223392717 10.880771899560466 -0.04124383714113542 -1.8267212306851444 -0.24811968259420494
Ni 7.172218584074534 2.895773403577064 6.033092670339086 0.24772501825894755 -0.685466901432097 -0.8110745468322935
Ni 5.614051885422832 1.9282200360470425 2.5903325241991144 0.11017871243963605 0.37727005104033734 -0.6110203522867477
Ni 5.997126838337364 3.141132938762618 11.806472328371857 -0.884456145048238 -1.2570154208764674 0.9911826372732155
Ni 0.1700105092190538 5.3608125558140465 5.555912181976421 -1.410727537822364 0.4166560090371276 0.25918699615196006
Ni 4.887542264613344 8.447445903465695 8.771940292821798 -0.5402368538152825 0.0840413919226359 -0.13186159672970837
Ni 1.3983897127907805 0.8284606099984437 2.4385578454662378 -1.8391861959213747 0.14160067839434323 -2.7356355087757467
P 7.968226321069126 4.981589328088727 7.468997258346239 -0.318159103810794 0.39358755725343825 -2.7234083705819354
P 2.6758445359058243 9.037901453073601 8.696685007637011 -0.24156182687102917 -0.30815494141023064 -0.045765122050256665
P 7.798304911999027 4.43103393893485 12.090202471454374 0.60355078338258 0.2932181175947402 1.3404975978615234
P 6.022093442575869 6.971260623118352 9.99208887013378 -0.030187322216657687 -0.31621329293833284 -0.08193000200658793
P 5.326815280228304 8.075879719791219 6.225715126735193 0.7646957024574379 0.2889120340202186 -0.4424991953524766
P 0.2816817677830979 2.5915056761603585 6.584416548277702 0.18854182303057207 -0.06187436890729345 -0.3594533345738906
P 5.491427805423152 2.1374383233126184 0.08529668634673475 -0.8099718006864179 -0.42811027362065623 1.0003925859072575
P 1.616230295720881 2.9867390869010775 2.9806709955066033 0.615787691768404 0.6896765686380704 0.4453621187225685
Ni 3.8237143298840586 5.001107829469239 6.731585863061454 -0.2500698643420403 -0.34137642246752176 0.30164310843364184
Ni 0.0038990596433443525 4.30947720446953 10.227650173313913 1.5395241224735035 0.5583063097224837 0.35708483434171406
Ni 1.809976713370996 0.7101838747665393 11.046660598763788 0.050243469536584436 0.31934515369909516 -1.0792148955227996
Ni 6.3483856130624545 0.6194075292590558 4.999956952545234 -0.5772877359209928 0.653447668213023 3.1354225099716775
Ni 2.833746706132479 7.378244116002546 1.9092955356595656 -0.6485103788124057 -0.6139493530080846 0.8340203569951895
Ni 7.796105252071695 0.9622723274513189 7.313120260255214 1.2103565833673477 -0.7707401088793049 -0.21149483228231963
Ni 7.31182737996881 3.401323936243017 0.4871300049960041 0.6689385647597705 0.11525818384507247 0.5136159087936445
Ni 7.745383136025808 7.105746160447701 6.263642090140483 -0.009684831387931707 0.8055857558035804 0.2898425162542879
Ni 4.461912709307159 5.554995192943422 9.322978307782515 -1.0966729430982467 -0.42322414917294854 0.4400242514494228
Ni 2.61956294181575 2.4042561443715647 1.0725699587189694 -0.6419404389043718 0.2991774205019686 0.4451803417290655
Ni 9.23030208722387 6.202660463193019 0.09339087800338937 -0.6708923460520316 0.3059242523074989 -0.33317280361080687
Ni 1.2710600311744005 0.23072947635241034 0.07378049209426707 1.1896072666351383 3.2560638125055346 -0.16332110079057033
Ni 3.0111302526775807 4.67596653590666 2.028061393584172 0.45272652950743963 0.6282580563212729 -0.6614479128096802
Ni 2.4741533549738652 3.931813229350927 9.071605440669034 -0.28159441731288276 0.910767272138941 -0.4063361151683582
Ni 7.3727403255514545 0.8132207720208875 13.381056657595119 1.0557039568850528 1.7869184968659095 -2.6675591248227994
Ni 6.836524491620066 4.490499007096972 10.206350597080846 -1.5679466394802546 0.572513197350485 -1.362613970144589
Ni 4.795750548658392 8.983773112583279 3.4139353198263933 -1.7796363613821995 0.5406482303210882 -1.1828347237979953
Ni 5.700506873705986 6.259341151700288 7.651078053369076 1.6145820799506063 0.8254650112260106 -1.5453433002584418
Ni 8.656005220879624 0.7260130731043726 3.992956350318373 1.7343782608753486 0.3571915351229074 1.6946945691324813
Ni 9.189483081483742 8.290249109418271 1.1952924201331208 -2.103108649875791 -0.6357669631038083 1.3881380825576224
Ni 3.1098550739731143 2.5658522582736563 6.783287152619296 0.2729483116021106 0.1370516255710801 0.7643851131955545
Ni 2.4935883249647315 6.871774738050492 8.980809604503966 -1.0464382153124108 -0.5732804145338127 0.5898781709914938
Ni 4.407143961496221 1.0238720866821602 10.946505534452212 -0.5511424449841927 -0.32386592438758416 -0.20312614860265016
Ni 3.1169459608274708 2.303136756572858 12.343967120691376 -0.6392983732958345 -0.9312605069962865 0.4809886096769264
P 3.24861927470542 9.237819912291972 12.739902195105117 -0.002314249955473434 0.01023119080970496 -2.053210222383451
P 7.534874752853485 7.882188989734201 13.034105318196083 0.22969232912695278 0.6395472560818469 1.2494214105792933
P 8.942545731160438 6.688237712468167 2.7788387393387977 0.15904972710872609 -0.967289889816018 -0.8821184980539969
P 0.49930331284701684 6.626823578547649 10.419538481607688 3.0152897716431233 0.6145661606564771 -0.5197667588863888
P 2.177663328059713 6.153896694171045 13.47128169593094 -0.5875196980616463 -0.9215196255594387 0.551132931902496
P 0.178670858072195 2.238761898952681 0.07684609409425906 0.38317561789149496 -0.5798477833386853 -0.33230274230102774
P 9.10608162955541 8.845268787285427 5.895282583701844 -1.446590056046928 1.1672942049602348 0.8324093037543278
P 8.304848540075211 0.8834196237524633 9.5423883527114 -0.7189416361507747 0.19965387378333357 0.3728996898867836
