# total energy = -340877.2781977749 ev
CRYSTAL
PRIMVEC
9.15999428969674 0.00000000000000 0.00000000000000
0.00000000000000 9.15999428969674 0.00000000000000
0.00000000000000 0.00000000000000 13.40657754938447
PRIMCOORD
 96 1
Ni 2.8864058683167784 7.433839340109242 5.981344507525476 -2.0766226877701204 0.3018750219387898 0.3391591031012288
Ni 0.6901991739188265 4.862729642632271 7.401047475782539 -0.18788156373875387 0.8848896330412308 0.47450248773195053
Ni 7.629102942961923 5.825939704759727 1.1301298939848266 0.5092843712978261 -0.10499254025300628 -0.6813055709655557
Ni 3.384489729494123 1.0770229938460172 6.0782746533727705 -0.4156134267052261 -1.113308751882715 0.9458708007102935
Ni 3.8039991578117642 5.975293415155795 11.900603488298819 0.7407353349870984 0.7072588004962077 -0.10511389632221896
Ni 9.138468517426404 6.0441399338517074 9.631044473908187 -1.1147578256244157 -0.04241240352793987 -0.7585507659019646
Ni 1.1211192073907381 2.8620219629457675 1.3780753732313087 1.8853662940218627 -0.8367714373777654 0.5463861612461299
Ni 0.47201451681750367 1.2283369430660511 13.113630416550029 -0.7053829236297335 -0.40691487048996366 1.162753636777404
Ni 5.213914671940756 2.8443340135575546 9.891346785741254 0.7068289120476408 -0.5486281632027713 -0.16729165540254415
Ni 6.99386648406852 8.307428016004552 9.264455081841461 -0.6354064944405959 -1.3863647927072833 0.7764397303672433
Ni 2.3263271643328967 0.6875757514927343 1.2955181747610431 0.2610405044209311 0.23679294472747608 -0.662167307474208
Ni 5.880441672061573 0.5234671219487981 10.995137115528356 -0.8275190655415618 0.060776250747108226 -0.05614723661552911
Ni 5.987256367978687 -0.004465497320949603 4.1760955385746 1.2272852408018864 0.34130237469647673 0.4402695346910095
Ni 7.601540519497847 1.7860065684952466 5.557951241537921 0.8608649879918594 0.0029081747857304754 -0.7943073546762837
Ni 0.36378643374834296 7.08012615231751 4.9389563689004685 0.2859526942815785 0.24426868427923093 0.22419325368559456
Ni 8.065723241013993 5.915579410980881 12.065651933278918 1.5396187390698388 0.07325201461661579 -0.0647437200352885
Ni 1.87716683380415 8.794977883501707 12.000214764537585 1.037003295151756 0.4975195174524141 0.04383036692138903
Ni 5.198736561046781 4.61541895100495 8.346801336382747 -0.15943822079639638 0.4650660249093991 -0.6132351005498793
Ni 4.0842583496718134 4.397585121693151 0.22683352391248307 -0.17685050273557282 -0.01519444835225125 0.10816579577466533
Ni 6.397761521698393 7.382955570636677 11.88986522674118 -2.083618145251347 0.6865398227813015 -0.9568694658136424
Ni 7.574619295649087 7.672383916995743 2.825878456629864 -0.6080085620436173 0.1083203190746586 0.40297208379213173
Ni 4.810352794055471 2.372456896657619 12.331611457717973 0.02556087918823985 -0.05657198285777354 -2.0773107149760803
Ni 6.202809358658864 6.728382363344249 5.380140176214686 -0.29964253306384525 -0.06789563540070888 -0.186406264744808
Ni 0.644089593582014 0.030732697562088233 6.268633995167738 0.273249130671981 0.029360198329672016 -0.7443811592698019
P 7.687296388049089 8.174910375507777 5.3340479998674315 1.814133623828121 1.630071433835457 -0.7120055711525738
P 3.3419781949986826 4.96224382292929 9.476412774678618 -0.24873314780848774 1.107682663945189 0.1111333630434215
P 3.5705566978642755 3.4355841788402914 2.269451842454931 -0.8380405338981761 1.4059576272375462 1.6342911283437596
P 2.668013279340203 1.965047821080438 12.707263748347462 -0.723876868668863 -0.699167281737325 0.03753347816908374
P 5.704414057668366 6.357723185719171 3.2899604182064603 0.9106466874006769 0.04795364506114322 -0.1403441802794228
P 6.93174340133892 6.04239953489585 8.679686528670118 -0.36415511092493413 0.5587099729188055 0.07903519695729615
P 1.8193855884696881 1.2652150809412164 4.678023849445489 -1.7001113692726786 -0.3346401321849527 -0.8246581990539991
P 2.159459544444201 5.519748568457404 0.3384755369334754 0.8295846898213391 -0.7633008789924404 -0.38931181269621984
Ni 5.795610962955287 7.1843668897788575 0.9224261025955663 -0.7808499436197971 0.3018292563025189 -0.3756284016718563
Ni 3.54287519447164 1.3535174279647122 10.441592235624544 -1.3906852744595082 -2.1949494832381875 0.04998198834508166
Ni 0.42568509661258286 6.39714780206659 2.6168968460072244 0.47330538210005574 0.5064386743189149 -0.9746890104935664
Ni 8.123953326079176 2.0909336255559468 1.6052230849552966 0.1534614343876712 -1.1385703546629808 1.0078063618728257
Ni 1.185184208955295 3.8628429625087497 9.459668304724369 0.08649988076545748 -0.06847927581832078 -0.021917368898381608
Ni 1.6567315660530686 4.957608865710006 5.200357880074079 -0.6847637047174852 0.24334334425148416 -0.3044432968865982
Ni 0.8965875900972389 1.9510788294610573 10.93578584713582 1.141593200649705 0.36178403958959626 -0.8704510890183977
Ni 3.9225294867001494 1.2760605144345585 3.362919774434898 -0.07033715496266596 -2.0727621763734496 -1.022721074201129
Ni 5.275369075071528 2.0109027535700252 5.309554174562367 -0.038113776152585974 0.9356959170598207 -0.961115899794822
Ni 6.470427758102686 4.670928517702294 10.698342301588763 -0.8396575006763088 1.5739812757101086 1.1347625508811165
Ni 4.963984221885147 0.8851302689709951 8.294288003887829 -0.0610565009916884 -0.7443485062596535 0.32691988072255956
Ni 8.062242443102278 5.286672508290096 4.0373106298378385 1.4633911867646667 0.6997262395645883 -0.03346573585761333
Ni 8.786798008409178 0.6269750598497837 3.745047265179626 -0.03743963290369681 -0.060397527251450825 0.4153097794218783
Ni 3.0545742074251145 3.059584724419082 4.3091691907378 -0.1012479856089095 1.5346734792494217 1.9919886565688079
Ni 7.357115226139449 2.4904742658537518 10.967546296081316 0.47396666983313857 0.18304069070668477 0.33699397712911
Ni 6.992364244969781 4.750913589715693 6.525222845228678 -0.9537270635299188 0.9938054196080434 0.5206244789009937
Ni 3.109699054353267 3.581099851538969 11.091248357866949 -0.1304976265026462 0.2301512710412423 0.6678887833390175
Ni 1.5096678542831283 5.2821566309993715 11.597574382099454 -0.5007125704684151 0.601389514065203 0.2055638115098653
Ni 4.112077252982017 5.615791110837212 4.886067476630867 0.38715851379864286 -0.28056211939362646 -0.5990202425020781
Ni 2.1646715813172683 7.085008429388415 10.16571152113765 1.7039101741934783 -0.33640390895359484 -0.6948390866756163
Ni 8.466711160443511 6.962282823016963 7.167733255758114 -1.3317237083236353 -0.6252426665337167 -0.3661037500108727
Ni 4.575893574717982 6.7851376892942055 7.304976537419766 1.4320530387730175 -0.18261440180254354 0.4161248191240059
Ni 3.0444707334866377 8.446504212566557 8.28761128389349 -0.7714445911454972 0.8538247933156263 -0.03734013121135504
Ni 1.7474704716147644 2.8073459557483353 6.487764879701376 -0.5407490175650107 -0.18189115048327384 0.06347179530140036
P 7.275829434906409 1.3966426820919546 9.058932285143726 -0.7093514213591784 -0.2552228692978895 0.7802791587179917
P 2.399368960511875 6.5017182993301 3.8363861503813674 -1.1422958831436842 -0.4228577669724653 -0.17079915433517037
P 8.557120306203045 4.169959258256028 1.976598574150628 0.760691209283735 0.0654839406354227 1.5108354962895592
P 1.4753178748912084 6.905774816918629 7.646307244640298 0.20037481110975813 0.3833774494896559 0.24661635857580108
P 0.30806252317959465 7.605772436958932 11.110687698204423 -1.1339511107234148 0.16471438159367116 0.7460186948732249
P 8.8243997858502 4.1235638860906745 11.011197333893117 -0.12212688594044775 -0.3143500144773489 -0.23136997393969183
P 1.783973049715245 1.2328894603347935 8.847255804137859 -0.09377378871905141 -0.03309652544365267 0.20608497412065802
P 4.41694935007569 8.89161582552431 1.7570930458417544 -1.0260794491504008 -0.1257058615409577 2.030557775091258
Ni 3.9625586626848666 8.01473871160188 4.032457664749347 1.1765267793020964 -0.008175593832256887 -1.032546544931983
Ni 8.307620375889147 0.3548691790982006 11.000861196094228 0.6342795799250044 -1.59662189592776 0.500996420257421
Ni 3.0246759853623875 7.641817015334187 0.5196144282602003 -0.5463694490755816 -0.25039793710542035 -0.8952915451008452
Ni 0.19642234215750323 8.534339399870323 8.641169667778096 1.5312580258099693 0.9805164158086209 1.3548168426976732
Ni 1.7530031082954898 4.484687509436556 2.9017461111134843 0.38279869416805046 0.7214417768648091 -0.9116563596121139
Ni 0.7610975313837495 7.051024849776676 0.24292855025636112 -0.13272754427442948 0.04546070343596042 -0.4466070468732631
Ni 4.542487074760026 2.206486956230366 1.1095766983156023 1.2104393728891412 -2.4403124290228617 -0.1608564413001617
Ni 0.20262732243485965 4.225487144942379 13.276708546712207 -0.6056809423517052 0.06509776094059756 -0.28353482886870524
Ni 3.1948412032727065 2.9136018920006745 8.567688191862901 0.34469314554558056 -0.8740889428813011 -0.8392654074442127
Ni 4.5436503940621 9.156220586776149 13.091348729917803 0.9059546812416462 1.2889130409160123 -1.0408118702645688
Ni 0.04569005258850589 3.1034885780792085 4.20242594277782 0.5916527463934133 -0.17930693469586537 -0.3797329107585331
Ni 9.03210266124001 1.808521834987337 7.769983658441319 0.0532046090474374 0.6154645041010303 0.6805290978108474
Ni 5.75444594765201 4.569793018377977 2.0600543680817864 -0.6090683707666995 -0.7692056745126495 -2.0691634032785977
Ni 6.251668769345931 2.5014937392426795 7.352703772786076 0.2730907507172458 0.7675282868102266 0.7030123665150279
Ni 6.7770219341632085 2.9985425210410144 -0.08226591064502232 -0.0674541769879161 1.8693760892411935 0.38072561368910557
Ni 7.522453126945891 3.928868202897272 8.85968316868213 2.084048033699914 -0.6822993023373927 -0.9107706145730508
Ni 6.190754805890926 4.263244642289978 4.186271376469663 -1.973947482796381 -1.749832904867522 2.3066361476819175
Ni 6.449020850945642 0.38313509014022373 1.3648968891376674 -0.5928030579477727 0.3517143140584201 1.5213183980987541
Ni 1.696256942340038 8.461783083400084 3.2710706775392553 0.25695759260080914 1.2364404249385932 0.5660872392194831
Ni 7.286464188526148 0.08866966280312669 7.205351521189243 -0.7007125147372577 -0.1028047885730681 -0.8194596855721953
Ni 3.0605740038255695 4.912807332588438 7.077358917977697 0.1116064460250981 0.1129274788293668 1.0050503963942432
Ni 7.9449029134994795 8.001905559301058 0.07872099277177617 -0.4357019699249851 1.82138259208105 0.13001785865275028
Ni 4.9504823899854955 6.815219111247023 9.693478996450938 -0.16722326405845395 -0.07584780036825002 0.3698966413944017
Ni 3.948708750994045 6.327275363986173 2.0477076114891544 -1.1521959158662156 -1.6200528732571904 1.5386561180462535
P 5.955755146877671 5.265952600720889 12.760649112319207 0.007050993309510437 0.4202496399256569 0.7586091299437258
P 4.775526494949316 3.9817580111663244 6.114070079897503 0.8645046416269757 -0.7706300656640018 0.33189470822933165
P 8.663440362416916 3.5767488541493258 6.3107846258797 0.47334292020621055 -1.6539698377196095 -1.1399788049747335
P 7.394936843448579 0.9874748875699078 13.023163562825118 0.19034288079505282 0.2874763300149565 -2.3791775093847543
P 4.068210039299909 8.199587400702931 11.270937222063608 -0.24772913202400562 -0.43819851109459373 -1.309006469231778
P 6.757996625577337 2.1978582414071153 3.381487083295544 0.22604573351330104 -0.5730179049010454 0.7460935139752183
P 9.295104423453559 8.85285988877572 1.834556371368061 0.21233995389143434 -0.3529924094398953 -1.3317913283367775
P 4.935624878899177 8.746338312682749 6.488930947001801 0.1441589260398227 -0.05637966434130935 -0.3310012498807848
