# total energy = -381177.50672877213 ev
CRYSTAL
PRIMVEC
9.20027971226050 0.00000000000000 0.00000000000000

0.00000000000000 9.20027971226050 0.00000000000000

0.00000000000000 0.00000000000000 13.46553933742576

PRIMCOORD
 96 1
Ni 2.500074807308502 7.0863590395844875 2.221652262702491 0.03741597875461298 -0.7324291291142483 0.41742785420614564
Ni -0.22201194961032997 4.593405248769227 4.17849195456958 0.31789967950182024 1.0723302525878242 -0.6819514320796707
Ni 2.1179871910755645 7.590883978158574 5.67794710102546 0.9295504662837153 2.13809287926046 -0.31059620386187153
Ni 9.568290895310728 4.3488802147157966 8.000563233232894 -1.235288313612021 -0.1801661973723671 -0.18183535754467395
Ni 6.33997714807201 0.9477668140196487 4.885472728208734 -0.6247708691036208 1.2897795026813657 1.4423420794038515
Ni 7.936207276682222 7.546032614586806 9.033706802877834 0.5229073613978995 0.1235808447781549 -0.6536602984444614
Ni 5.240957735668795 4.248643167307709 7.443628901307713 0.9482557560027025 -1.81216055926215 0.22540270061266343
Ni 1.5228394973872375 8.708092343542587 11.745181957182579 -0.004798964050540122 -0.7283372184330618 0.3746138443644129
Ni 2.6694887578337436 7.641706323260205 9.871762121447098 0.5454698200794477 0.11126474641496321 0.532326083608638
Ni 7.375247822385217 3.370513270390567 8.668763907878947 -1.1035352174357187 -1.4145296851772735 -0.7164296683621985
Ni 4.1163523454003315 0.3915510239395877 11.687118991951515 -0.5738185464254698 0.42548800550646076 -0.626163121465457
Ni 5.068535293679354 0.8523157521151586 7.903126750967626 1.2695981426374845 -0.1704353432378484 0.802450038388076
Ni 4.870747680537633 5.191129020775523 12.936827945620225 -0.10380057682743415 0.18006206769433505 0.8939643416489894
Ni 1.088972706963138 3.308843795514348 5.839169122499563 0.23844025052291193 -0.44061637650746693 -0.18526083828645512
Ni 6.034491060679801 6.345699722049782 6.165924416518483 -0.7518694972270471 -0.8681769482722402 -1.1326439618762172
Ni 7.000759637190285 8.385926149041532 6.389371609763109 0.6683045307201975 1.5195651628530733 1.0592459086000403
Ni 8.381169604433 9.186718494741385 11.130210420809513 -0.09310401634553643 -0.19791606515662044 -1.0995237822834805
Ni 8.272035886548213 2.3953020220048495 4.651845425468279 -0.30124972964996505 0.0020941635248673614 -0.3923742536716275
Ni 0.3601918705581774 8.21199486118014 7.45561318565409 -1.2375130891774815 0.9445744504963733 -1.5139874116549796
Ni 0.037543581400475465 1.3353101961188543 12.986610659114962 0.6007603651216362 -0.5397596570685479 -1.1801826308871288
Ni 6.5639211564208155 0.6595100904347939 12.334487473256942 -0.4456809355145679 -0.6712407305303859 -0.06441024795526973
Ni 7.8789447357856695 4.719899894461176 1.422486526454842 0.051518736704582235 1.2217314008631925 1.212452546664428
Ni 5.287465149587829 7.518615781059858 7.99524455153426 -0.5925030102088505 -0.3759083948061203 1.492951674030603
Ni 6.6219013191345155 5.510277523532671 8.679482233737637 0.46877998342587657 1.6458744623059847 0.04588030747188228
P 2.8386727013663102 5.096964157974075 0.7319908139947433 0.30761758084952184 1.689980965706896 0.34232130287929435
Ni 1.555997305451372 6.486565204644111 8.15304774906923 0.9770919635081043 -0.3272615803326945 1.0748183091170005
P 6.743998231126505 6.205496659594359 3.5882434098252456 -0.9412800960158176 0.6422566845932101 -0.05409781028566812
Ni 0.38950120162086144 6.590712370927686 10.5860552773974 1.2402775392964962 1.2796956360828027 0.5332655647037718
P 6.319754933275958 2.325904312174725 6.658385948340713 0.48704124362890955 0.5263526396340226 0.510865599742017
P 2.1810275076281314 0.9698014839179845 5.74612301371049 -1.0330761921832077 -0.35100803202001485 0.3756764813009723
P 3.5526696083100453 0.7171737635265722 9.634849398823263 -0.004726716051707988 -0.4354944818998694 -0.21935829419079642
Ni 0.03285787894568532 2.424448508116719 9.744970306720612 1.0130804657875714 0.38943034055195513 0.5458896812256857
Ni 4.455870267428843 8.573519852267866 6.163702548969236 0.19626438848581038 0.024004847555029626 -1.5330752815243662
Ni 6.808970606417548 8.4413762348358 3.600429180297206 0.1642605818857042 -1.513459821286284 -0.39200427192671844
Ni 3.882591638604125 2.7988078893957513 8.975374269451356 -0.2623088296103934 0.3381774559142498 0.31970716502420427
Ni 1.4542606124510393 9.009153096395714 3.571222892367241 0.1502812368874767 -0.7589408022515316 -0.42747675380171546
Ni 3.071421377394744 7.8442228801713405 13.344443577956257 -0.4940994360272717 0.021480281360963003 0.7683399840782444
Ni 8.393083966653602 4.6815255278031565 10.310132448787787 0.7929814367760085 -0.5991835075528198 -0.24931190313009324
Ni 0.834919863245107 6.202690574283715 0.5178708643171033 1.988663705960633 1.4378359640033818 1.593390790584972
Ni 4.673125672430638 6.705945874258231 10.750576519174443 0.437225348548047 0.461478821778773 0.38678004741330163
Ni 2.4164074636527753 1.2127992715400489 -0.06774349953879996 0.925734949192367 -0.49595808650256523 0.09934639771082246
Ni 7.471427546442503 2.001189640194825 0.7577865582373128 -0.11333139913600483 0.9511433619631424 0.5669729842585461
Ni 5.687244903697384 1.0869578457072986 2.555759500235298 -0.31524835792190226 0.7606451865371481 0.2342066720575386
Ni 0.9443535102483407 8.728976978477544 0.9056828945837541 -0.2831517344976736 -0.22367903305333733 0.058324960993138254
Ni 0.482578591360938 3.452331357825181 0.5092759630147963 1.0543996362513324 -0.1541044672883088 -0.16362114852949242
Ni 4.448381239747321 5.44805603187403 2.4588207531021817 -0.11557622930612355 -1.1695634606103857 -0.486464288079517
Ni 8.76414044751781 5.1934198904225735 12.672216860910407 -1.4736614583424235 -0.6823602374823151 -2.9826928115437084
Ni 7.500371626400818 2.5590117991117327 11.5389172063188 1.951297349497033 1.9324341940439427 1.0308894689445343
Ni 8.608490115434284 7.350572672210963 2.242954590336147 0.3121638054593075 -1.00660334270366 1.3959938311566151
Ni 7.807789772531503 0.8566601241928179 8.83923773062644 -1.1021889878204696 -1.0857097592185236 -0.004674522657533885
Ni 6.633990486669553 4.055363691222432 3.4954116675533466 -0.393587043032806 -0.02511916366513093 1.0933510778138653
Ni 1.276005193127342 1.6842860056861921 2.032394228877157 0.4656069850145336 0.7518625552485116 -0.10762097901478884
Ni 5.131649212469577 2.5803472477523344 12.731734390363153 -0.25926772879122445 0.38846334865299553 -0.5382337073423247
Ni 7.220802726943312 6.782050587994779 11.189189733899399 0.2198807423531697 1.2439958686883479 0.6112499517990505
Ni 2.7960938068821775 8.983493516292809 7.808155023635872 -0.5525177280651646 -0.0076850273490835395 -0.3936338371103414
Ni 2.0571733422120992 1.66530582865059 11.033137349592677 0.15425256283039884 0.7780530976009503 -0.5781444274943334
P 4.499948807505222 3.062552307757167 3.467470418083098 1.0669890428805686 -0.07970136978638531 -0.4952602891045923
Ni 6.1303763757864616 4.847406570920899 10.881246251797442 -0.20422426676283537 -2.0099442126059643 0.2712943209384554
P 6.8871453830881775 4.250023209263763 13.073974675156974 -1.2044435603170225 -0.7578928206029915 -0.8232379216677049
Ni 8.65152902390377 1.9534861899138765 7.015532526315863 -0.6183024877704577 0.3371366733545613 -0.23507441937447257
P 8.730219016237992 3.13632015044813 2.5837541113278473 0.4240080785268246 -1.8531226034968085 0.25715402488233136
P 8.1827563722712 6.222544777891485 7.174951292967388 0.7331971176285244 0.936054328840504 0.6185403148128767
P 3.7769356264485974 6.407129989653618 6.701771707355151 -0.20416307450759677 -0.29110004281047286 -0.3299542966735092
Ni 2.708074730925026 5.46571136863182 4.563229251358141 0.9801490051668733 -0.4244917030314625 -1.6565527679554375
Ni 3.333445343450945 0.14572323027964096 1.9301634808565566 -0.21349437921085165 0.6752585934405273 -0.6393307691956667
Ni 5.941595836477923 1.8691472258395367 10.209154778863285 -1.4606187662258523 -0.3941897096138114 -1.0366263714283117
Ni 5.1291651369486795 7.7914040743732835 1.8185613279263761 0.2397445711566323 -0.3532274082688368 -0.14646597690644453
Ni 4.500592827084714 7.043678942023578 4.182544677780526 0.6253146574222328 0.727739951168695 0.1973481084682924
Ni 7.070148146740703 6.795528997765578 0.3018013753695437 0.2552071855686056 -2.249685698438803 -0.9892571381157285
Ni 2.699996885342254 5.895382831509513 12.026086737253546 -0.4913771520001022 0.04028070189691773 -0.4035138152282148
Ni 5.216052578501866 7.924854131523747 12.689762714339683 1.5422980856742148 -1.1662053427714303 0.6865981868230626
Ni 4.348125791779819 4.277467643629833 5.445073301193011 0.8947760389170074 0.8616774565908257 -2.349886730840437
Ni 1.6250546049323358 4.350527064783354 2.4497722780103177 -0.6697420344976724 1.5358875541621808 -0.2140811049522571
Ni 5.77999292342395 3.4185019293424332 1.4424152523282385 -0.8152466759321122 0.39573417128279587 -0.13809960721962025
Ni 2.6861136632643463 4.461188029099506 7.53637968111819 -0.37307143957795746 -0.9318117515140663 -2.174272157394494
Ni 8.335379812331112 7.008938685849834 4.991958605593835 0.5500186157923946 -0.28820806597465853 -0.36753534025107665
Ni 1.7119420464855226 2.048920691314894 7.7646478209293 0.4308410422882579 -0.1780869462458352 0.4913851224199021
Ni 6.065827213361944 8.574596284993588 9.899568126805654 -0.6742977721891549 0.8987309097996973 1.3354893460136548
Ni 7.255855792627094 8.805596907877685 0.9527101243062357 -0.016195893033572106 1.8579917586636518 0.33028314076783766
Ni 8.49666071559534 0.7113233056608722 2.635367680484283 -0.6364727309215813 0.4647454083451867 0.8720222901602595
Ni 3.4234976812233504 3.0646407712506627 1.3440265411132941 0.5374281807218938 -1.0804652229901328 2.9183638104483354
Ni 4.018479769876951 5.37638585295627 8.992987284922492 0.15292047428253663 1.2232468090664543 1.4853949447292676
Ni 0.9354752403310572 0.1280973344169138 9.449240195929736 0.07650754543943598 0.16579758735552091 -0.2498418074916342
Ni 2.462427262747337 2.8612685883267748 3.9272111551272766 0.259102921078586 -0.8739027950124238 0.9440486598998902
Ni -0.08998517573054388 0.2992538179186673 5.260110877962889 0.16223198149144963 -0.3472362236824084 0.5112965166318485
Ni 7.492100574944199 4.551654379458728 6.020106423357859 0.17583697386939393 -1.9206444004978667 0.29718558688292046
Ni 3.9945774431980885 2.327541961962577 6.371987681256678 -0.7480156706985956 -1.510478884281089 0.1474656218155525
Ni 2.7848510650801876 3.4416038316867845 12.797527430604063 -0.19667345099877095 0.8275540325445553 -3.5921424769092263
P 0.8381022399957686 3.359344130826233 11.795973941361177 -1.5330464851689598 0.13657802836877123 -1.1747889706753831
Ni 3.6788974458904904 0.6502417286579323 4.228731001937785 0.8383457238434207 0.13831352300263922 0.18458900903041114
P 4.153125863389328 4.051113161997785 10.83818342260072 -1.1284692616732372 -0.04895740373530923 0.5021251345452256
Ni 1.0565877223943942 5.677409804690569 5.9917879624196235 -2.9777344390971687 -1.0726004755300753 1.7854228861569896
P 1.020099413076315 6.444225517432361 3.8191768706674822 -0.5237974773123366 1.2871631481044412 -0.7380341340058516
P 5.127518286881121 0.7655948356246688 0.5369936456881642 -0.5842284289048841 -0.8035738675798741 -0.43167099438872114
P 8.91138172394911 7.751686466878037 12.62096762283037 -0.2508440235039035 -0.8292033952225203 0.5993547430233613
Ni 1.7600227082344593 4.532370593192794 9.972968878336305 0.554474080460587 -0.36908263013353854 0.5792461451989445
