# total energy = -381163.35676875315 ev
CRYSTAL
PRIMVEC
9.30388695372584 0.00000000000000 0.00000000000000
0.00000000000000 9.30388695372584 0.00000000000000
0.00000000000000 0.00000000000000 13.61717900809168
PRIMCOORD
 96 1
Ni 3.6461932304441955 9.20968492979318 0.6182004788827679 0.26871524735736946 1.463389386992454 -2.8551164724529148
Ni 7.653386571974038 3.1549387043898856 9.18169604718245 -0.045950241477869254 0.4157712924393291 0.6580152329790474
Ni 0.3538472829265112 0.3574339312815411 6.265250385434151 0.8502594445618712 -2.204316526275384 1.708000542212768
Ni 7.655284564877867 1.9520857015882072 7.0046907433810714 -2.2484482264872763 -0.06434365638339241 -0.06982113455819587
Ni 6.863849435641491 8.505715640208264 10.59755595555974 -0.668779670584403 1.2523326706888174 0.053163728507172964
Ni 1.941051291863005 1.2645470760629072 4.905820411176 -1.0526646558380968 1.412494914135432 -2.6667893365363105
Ni 6.9493614590684185 8.50209642824949 8.009120683140239 -0.21709032409222612 0.8146735770374615 -0.9553288607993998
Ni 1.7866439868044393 6.47216510594394 8.376389753140591 -0.5432635564567483 0.12439254204617287 0.23222743684398073
Ni 8.765526678636826 0.5530825752852203 8.891881834654534 -0.7241447776182689 -0.43597424974976534 -0.5378907221806092
Ni 7.767480135599803 8.677967800117536 5.646921512913771 -2.301535593230559 -0.33860065949459756 0.27629177415304673
Ni 3.8964305693725625 6.299466359469061 4.153294136468121 -0.355639103034123 0.9764684709914925 0.27235644365438255
Ni 8.827146320803788 3.7605752145602476 3.6839781754492478 -0.4042558356005618 -2.714433677887151 1.264338951121074
Ni 1.3868652756052644 1.9216526879194575 12.145869717741304 -0.31185655863153383 -1.0512531202025506 1.4000934551472854
Ni 8.075224798736834 6.5973116870684745 10.219515775830155 -0.2719291263089768 0.8228316873682217 -1.618570375174393
Ni 1.8907823915718844 3.7808669916350084 13.562669318683724 -0.6221066920078964 1.5573074145988535 -0.3280442241349899
Ni 7.469932532377461 2.6367866416445476 1.986746401411368 -0.39251515012486593 0.821222691009889 -1.42381573846489
Ni 7.234413942340552 6.20232447756279 7.045800897522538 -1.0082853583917732 -0.34257095699625517 0.5703223603467532
Ni 1.2959569978439216 6.187754590859867 10.680116786098948 0.2679431450780353 0.4462622619393346 0.5187768841692937
Ni 2.3949134969345254 3.6870000778765206 2.5852486911961607 -2.3191923870803737 -0.8257190362183457 -3.3659702451203906
Ni 4.99020480352477 2.6566597438140516 7.51876584293789 1.1980029468980014 -1.8956743608160902 -2.743112276768766
Ni 8.920520128562751 2.9986427103142743 13.30538614629423 -1.4137938354525137 0.46474772233803185 0.7141498711890862
Ni 0.45455162308217567 2.094593335450707 1.9154469954348792 0.9842000353077953 0.040595662034175244 -0.13187753756930837
Ni 3.0690080060577025 0.6920249597322922 6.56010265265532 2.0507435060105137 -0.4578425105777663 1.1954778664833023
Ni 8.519504000421374 6.664923032323994 4.6032328924830495 0.02086707325699632 -1.0852675294747827 2.189931718308622
P 0.29081251957978377 8.535543901236087 10.292530818529517 0.4455732062921101 -0.9619414810199112 0.6441880972879679
Ni 3.5676498182180922 5.319478660678765 9.678818534631098 -1.1646963623260715 -0.38543330357742006 -0.5454847324777832
P 6.3841038175383416 4.042120132515011 6.905448043839091 1.5261363883126877 0.42012956940802487 0.17570944715259415
Ni 4.116672177311003 1.270529475264682 10.111748855217156 -0.3679528874044695 -0.671206791968657 -0.6343950224569461
P 7.495908984276926 5.050177657731056 3.0433990576861856 -1.9886439084662912 1.6845101724003115 -0.6987787880496547
P 1.191585995906889 7.443034995686432 5.91857081688563 -0.7595861491450144 0.07400406229129189 0.09648167456851771
P 2.0576476010335245 7.87962918688782 2.92656363862533 0.048734746201541876 -0.3503395451980805 -0.34297873395763506
Ni 8.135607023961592 1.4276162997168886 11.11894391012837 0.863061738532862 0.09193776395157714 -0.1061395093732559
Ni 2.913447019037986 2.3368200278585016 8.193497668305737 -1.5977102438959323 0.9581560458355499 0.8105932363205008
Ni 8.327667158832885 7.896683211361933 12.352047570417843 0.41703987473910753 1.401149921436258 0.7480966604481761
Ni 4.161451784399873 4.265850697997256 1.059942510641454 -0.25640249142828747 0.21962620314020243 -1.0136329958569317
Ni 5.827582525697949 1.1297523643439085 5.538433541075051 -0.43416393601390396 -1.4946676282804454 0.878253872892268
Ni 1.4478336456973817 1.436166571670903 9.851415868740037 0.11549292556369786 0.05318892531815356 0.47130969182626575
Ni 9.035395218678328 4.997694432385468 8.789630258126778 -0.20865684861289224 0.396978070992226 -0.8383434098505756
Ni 5.199198012341988 7.4235154412146995 6.346027660876967 0.41980586752001897 0.9643220654369457 0.3982890764941657
Ni 4.326949322504341 6.858471789080642 11.052042451434431 -0.0024929416251828034 0.8581720145407284 0.08774043804077791
Ni 1.8110666896110632 8.941546912693406 8.176965591880178 -2.5154128097021258 0.20335137723957883 -1.6881765655083056
Ni 4.157646494705431 2.0244606368768663 4.158455002466915 -1.3096474452498865 0.1320595716731274 -0.16618453838129446
Ni 0.4792497209375907 2.259402385933199 7.685766889146569 1.5196494950367634 1.1683486143666781 0.9124683139904479
Ni 4.1817063459275 8.118348313978245 2.310917076664626 1.2544296624271623 -1.6531344863025077 1.888735467604412
Ni 0.11193599228067659 5.070460130919033 1.8465442706938138 0.6457384724942233 -0.7954445536045204 -1.0637936758717226
Ni 7.6865084089232125 1.27301361303587 3.7828654665160992 0.7736418559071321 -1.3860665447405742 0.8382948160008272
Ni 6.465615169648374 1.2191534124463281 9.124816735331672 -1.8198918664681367 -0.5663788023179729 0.010240446781085589
Ni 5.872734288258157 2.2533548595239394 11.371161116164261 -0.5429205712950327 0.6556629306967869 -2.734094389540872
Ni 5.358154918037673 7.411764632207169 9.09924407211861 -0.9982140901987001 -0.9076318118337531 -0.6018692819150989
Ni 1.301381163838688 4.3955840953060425 6.9159335242440685 2.785568646160764 0.099761373761054 0.7611393525647472
Ni 3.8154309310356216 4.1329725869556535 5.65782845939004 -0.4135028081201266 -0.713333803045694 0.4351350416779216
Ni 1.2916865138103062 9.266243257549931 0.3833796803546203 0.7688542047105017 1.120973210406508 -0.19921498647370206
Ni 4.696564832751488 5.403278768937532 7.553190224036752 1.381069091525983 -1.068258910731928 1.240174952280361
Ni 1.2973339730878761 5.887527468243884 3.769561838804407 0.5711772521478808 1.812726201957633 0.09492564293530747
Ni 0.2608874981294119 3.721973388295606 11.020627877710023 0.606076378017911 -0.45416326195396617 -1.085376030028189
Ni 4.759217206351415 3.3301681080698704 9.490111520556571 0.031678819160519636 0.3026818341108013 0.9387113068473768
P 7.407354589871802 4.0305274895828 11.68840039576383 -1.4250429260037716 -1.7960680245756615 -1.6500802728572166
Ni 2.6139549034778975 0.6909410569220173 2.6154379430311834 -0.6077542799409662 -0.36520154991157744 0.9575094133904863
P 4.680273726993621 9.358500598894878 7.865881763776557 0.697053834938748 -0.4264326288079172 0.6998869335121688
Ni 2.9920741662451404 3.1345445845605067 11.032529409683448 -0.42225587172240825 0.6414563001791017 0.11190546532275567
P 1.6381632576269478 4.171211561635739 9.22962874150224 0.8418205697658985 -0.4826030053518979 -0.046236148149404244
P 3.9435919714780017 4.344412717996926 3.5322829533880653 3.235559007683963 -0.6507186993176343 0.5962719903329795
P -0.13487844670004975 2.2164835562010246 5.558110331233424 0.7617900987748686 2.420576384046515 -2.2285679426235814
Ni 7.9687976378206535 7.15876403890411 2.536567033990302 0.0005658998057990254 1.2627222414532577 -0.47317682694199154
Ni 6.600605262989825 0.9703302643090493 13.010370130665672 0.5742021550171337 0.4141725804936416 0.9779309144696319
Ni 6.108848327049208 3.39127603646374 13.278097846358296 0.6104601089079035 1.0225806919685227 2.526992029899293
Ni 6.224802668031669 6.447453982647029 12.342243134525416 0.6612494236456289 -0.20896358122003367 -0.7090837695200884
Ni 8.58820390043056 4.445294762390155 6.215070802456153 -1.9267253165846239 -0.619770587675552 -0.9162190392821317
Ni 0.43935093285533283 7.214568751831399 0.8437313464576148 0.42980128816983393 -0.9967632166847865 -0.35594814963410953
Ni 8.960889693316254 7.521075998026228 7.52852934172847 1.9451246450274176 0.05746724097853329 0.4370762245646924
Ni 5.529523208702515 5.851856366316038 2.3016569181490327 0.044994305322503154 -0.13309521202649338 1.3443737929874784
Ni 2.6380426663603167 6.018535498042008 1.4977945873359686 -0.6366539936944519 0.8386748250480652 -0.051150554731886094
Ni 0.014117717805246292 8.95767054848917 3.96970705129054 1.8009808884962468 -1.0872313380693728 -1.1857500976725772
Ni 2.968005011136288 6.285705910916301 6.498281116145157 -0.4911184990220767 0.8435174978523473 -1.9235358631130488
Ni 2.0361463186769115 9.033999635660805 11.669636316898917 -0.6291211756525165 -0.25647679630964865 -0.6030072521742841
Ni 1.5018520123622427 3.802824164444012 4.461832421147784 0.8828507482343312 -1.6624441937392076 4.278098659272915
Ni 7.420584716877905 5.928045895185922 0.7677716235912827 -0.2979312067996933 -0.840737878224681 -1.2767098139816013
Ni 3.164912471021772 8.60694192841248 9.695267806464283 1.823959094558975 -1.7953085207018178 1.0599280222687295
Ni 8.615166564329073 5.592082543434608 12.0940833535158 -0.5837432617383495 0.9063012659477875 1.7981902131249872
Ni 4.635019621678794 9.067270334798517 11.884637975800903 0.2073018772468946 0.5357978442073223 0.519461311830828
Ni 5.099311483834591 2.5405286289827056 1.9288734344521132 0.8928220005144301 -2.154419898555257 0.8730029089059739
Ni 3.9603017521411243 8.613194140330977 4.769199346481405 -0.649150840609882 1.1430764700634506 -0.6174162285107625
Ni 5.945704672300958 5.24192146045171 5.232047245408406 0.37363091162585327 0.7025919911481577 -1.3336317239796258
Ni 4.640499610994262 4.709441412059818 11.93469474747336 -0.7702618836913057 -0.5596931627676812 0.5901537932503836
Ni 2.9561983788080575 2.2049839521366486 0.9366948528094274 0.19739541676646005 -2.071867432473322 -0.7961611200555707
Ni 6.028853508484882 4.975011556407353 10.037059112896769 1.8815847154922434 1.7992042562117982 0.33810212259162414
Ni 6.1259395670704535 7.568600251716222 3.9844406864008524 -0.17605808874126452 0.49040887454956184 0.44089354142825365
Ni 8.583217017114617 -0.07564525149305061 1.5897514131378094 -0.5647777763794402 0.4489063844304011 0.15048949624354083
P 4.703924207197217 6.142202761167969 0.3489031974897721 0.37585311608815275 1.5010532200918147 -1.754568105559662
Ni 6.154046609043333 8.308519759832492 0.1355306491635714 -0.4264480554268849 -1.9317235411301636 2.2693615796011755
P 6.547349815041209 0.46852792180831315 2.039117980115554 -1.106728784672352 0.11945319576302653 -0.24302555590074915
Ni 3.080702991744532 7.34021774284224 12.870113107016095 -0.7951069677594436 -1.0205749743924037 1.233076650672683
P 4.4451365963148355 1.8627963001271892 13.024668343874518 -0.3218082705276071 -0.27822678639223053 -0.05121380386965373
P 1.1857803705540002 5.621166493519753 12.851838412595992 2.0021008053021454 1.4116536491810592 1.343583178765383
P 8.72112853090608 0.7896050547060656 13.165006311339111 1.4367869539135771 0.09349559535700028 -0.09747257772687729
Ni 6.275173911077406 2.9293659693245133 4.193423660942609 -0.38031372296266763 2.2789754485418556 -0.30216735636822795
