# total energy = -340861.17425249936 ev
CRYSTAL
PRIMVEC
9.34156088219330 0.00000000000000 0.00000000000000
0.00000000000000 9.34156088219330 0.00000000000000
0.00000000000000 0.00000000000000 13.67231861053627
PRIMCOORD
 96 1
Ni 1.3914161732091546 6.584436655171672 0.8556206648660197 -0.28167412151088267 -1.6668736902654713 2.4465118729653543
Ni 7.986203277997244 1.928079512571572 12.198729778083399 0.6379048353824175 1.1060479565552435 -0.5957798811879094
Ni 7.851918338253562 9.080399004053374 2.640234351517904 -0.17606245961663872 -0.13777770510382722 -1.0405352195644144
Ni 0.34371993547038837 3.610289138948104 2.2063842328037615 -0.14888564209153068 0.33502888298293915 -0.324439537502867
Ni 4.414821740720961 8.834893438738336 9.225752759456345 0.08142632289729203 -0.13268306418973924 0.7280844789923074
Ni 1.3740315281404247 8.625091319663321 10.570958098583828 -0.3693729076804477 0.8155922321969888 -1.1098794144861919
Ni 7.1660702693115566 4.3151379430162775 2.244174583776916 -1.3321242861961637 0.0019021021187193051 0.9170057968494851
Ni 2.1488579658517226 0.8402136282664194 6.976970917781581 1.1215185413870168 -0.5466746390208262 -1.8686983464478786
Ni 2.4317204337083256 8.5385791230048 4.881263631697485 -0.3000312838618317 -0.9923851422217491 -0.5892348809805401
Ni 4.105326482380237 5.567430247870465 9.105271844440264 0.02391640160628139 -0.01578991584440506 -0.6913421292659513
Ni 8.258575172822045 6.185981711183708 5.518954085240074 1.3976401085107866 0.1655826431312374 0.3480088401823748
Ni 7.205809269914661 3.8449584934733925 6.657188732439414 0.11216848917615521 -0.9473607549922588 -0.39421747752795333
Ni 0.549764878700888 3.0696556361497866 10.662180310311479 0.7696371056231133 -0.4057535031920109 -1.890333922439783
Ni 2.3943074818006083 4.871866955461786 2.683903346844498 0.22860938047541918 0.03932862239629356 -1.2757585058119254
Ni 3.5191622111429135 7.092991237407917 6.593229866565114 -0.013134480499428992 0.3958907514653182 -2.311341780687703
Ni 7.31208820970345 2.538074105985322 8.821093150635146 -0.14612967661294832 2.008654033039631 0.16841908413876802
Ni 9.374163073626908 1.9441189728526085 7.495370571182756 -1.219568331773603 0.1674268954288278 0.9734350834818074
Ni 3.2029223457416727 4.719104408009374 11.161000985959 -0.0847427888650347 -2.6887234176052406 -0.02615994622481946
Ni 1.6074677966103277 4.1370130573792325 0.29971090732246086 -0.25248104488669415 0.9520093095078637 -0.13266918023266827
Ni 3.1886110742503804 0.5572371933653033 11.13789463476206 0.6007688497620686 -1.485453822991661 2.9330880040323875
Ni 3.743611897906144 5.261914494526667 13.659507976064088 -0.6163530773535707 1.9815186102754199 -0.7212227188754675
Ni 2.767045108284965 1.3837000438019698 9.045907158278377 -2.0505699565471267 0.52538384796285 0.4002428577864268
Ni 5.592932709470483 7.750842647956057 11.556267655168911 0.7625796845556996 0.15388232397517368 0.9069373568698896
Ni 8.706764587710556 1.0764093938632986 0.7257440077703413 1.1531713924056075 0.33802781771026297 0.45338833146115465
P 4.390916686056329 -0.007621779640825713 6.001587703942351 -0.19649835887348738 -0.17097476068108616 -0.3009730789498107
P 5.436937981903196 3.724695236829208 8.018828679879316 0.3767406608994286 -2.291413160084576 2.2233336908078356
P 7.420590441016345 6.63541355368863 12.332349598682056 0.975847806688358 0.9963564681646712 0.8010310465533623
P 1.3276787023311623 6.3427611298771485 6.548138151494314 -0.06274828687181451 -0.27789202876063107 1.1060271306196372
P 1.569541058846199 3.9884822370714392 8.644268610292873 1.126784931992279 -0.2543566646428522 1.253229471471474
P 0.2738030219739304 0.20278100180813838 12.514574495453257 1.976496217360164 0.42129247936787445 0.38790130550193835
P 0.8023775036442398 0.20678946564424366 8.555904916239069 0.4635696428695307 -1.0772323178751317 0.47754101744795824
P 6.427040693450539 5.080062326040389 5.001539032371002 -0.8350685957540458 -0.3916713140673319 -1.2160274084998801
Ni 4.581979633713895 1.388408190558896 7.744548304136976 0.08500375583590522 0.4204591848333017 -1.224721336729452
Ni 6.518354452476242 0.52137026980733 8.384713337195258 1.1720795421640202 -2.147777196427759 -0.20266360714393483
Ni 6.1512871535344535 6.126074280326232 0.3998234826782215 0.001446759748855573 -0.19455717598671657 -1.1569539993764915
Ni 6.5552442769665245 2.3475716519892944 1.0331159292899357 1.3415736045345217 -0.6830840030222171 1.6805002799099702
Ni 8.724233306828516 7.186668411373108 8.77348575318014 1.9600218738542248 -0.26460996693974426 -0.5041123401785834
Ni 8.484491484666302 5.537640009759675 0.8306394623712334 0.35317161533023694 -0.22581639111131432 -1.8766906206247358
Ni 1.6214240887826448 2.221535310631259 12.824676021104544 -1.4908955628325227 -0.9382086561793453 -1.5953450860978653
Ni 1.6979501567047484 6.106242146268782 9.814469145165877 -1.2952713790338726 -1.6409803674384773 0.12879632754082335
Ni 8.722430385550567 1.0210326201032607 9.918911534057024 0.27894798082897126 -0.17365616416799126 -0.4539040947553086
Ni 6.648585154734793 2.2803404372877094 3.745599782092402 -1.6038330689642184 0.4592992976289509 -2.506193347986387
Ni 9.086228138133379 4.549106680464642 12.172437954576715 -0.9696964423749816 1.2843963839925814 -0.15179947330421598
Ni 0.4821758822120213 8.25704315681384 6.751199400133221 -0.913142457239337 0.6284339197775047 -0.6807730955008533
Ni 3.6723638119635313 5.610055790830494 4.501980373402456 1.0383618660621796 0.5559745762655134 0.7819038388056082
Ni 4.713957207884242 5.061612743014736 6.720463796046636 0.23600464449822584 1.2855706068063408 -2.1470158927817025
Ni 7.854365827242282 8.990897507866647 11.608673812522792 -2.1849592047946955 -1.7223221010417626 -0.4604933179370521
Ni 8.628388890705375 4.216640523561852 4.2983446187604715 -1.3856806221560651 0.30535501006759025 -0.8561130751291708
Ni 0.648736849455417 3.0138584921435947 5.591404430086686 1.6300140982349605 1.4786180310167503 -0.1614645071978058
Ni 1.3130498177649983 5.6905520221884975 4.565214334141166 -1.0601753623928452 0.04110756867358727 -0.17896137843098858
Ni 5.0394825849449765 6.133332673243159 2.397236061182148 -1.1052146620206706 -0.6063139479500139 0.5114232720176999
Ni 0.9281317298592999 8.902629097735305 2.4255101639384757 0.776870904367391 0.28690477378220264 0.181007719437056
Ni -0.04592311400208262 7.027497553057103 11.265935675116198 -0.6265575286903984 -1.391242689624875 0.8449254339434674
Ni 6.181572494379602 3.54681323177883 12.867621045451651 0.42967504700461484 3.255843211854296 -0.8309689717633754
Ni 4.54316544765233 1.2736284302367664 0.7848480643796124 -1.313463219451551 -1.764953305448728 1.917742139249407
Ni 9.072645508402088 4.590088108684157 8.011609521518697 -0.9830427817749006 1.0750368528857097 0.2045124874272155
P 8.634376831322815 3.2891262708863467 0.15297646919989924 -0.058408264735563924 -0.3797257116696815 1.4497319441100194
P 4.858433790706904 3.950592865551413 1.0997520865541863 1.7486082884318013 -0.7197481912124701 2.414232701216674
P 1.6819106964237118 5.651962033591548 12.281132622046737 -0.7097820811386937 1.263544737354553 0.35233009326554804
P 5.105527421396304 5.470567601595528 11.795943152247844 0.26204169199193583 0.6815297711612198 0.07520219636445112
P 7.689608715432939 2.062000131435253 5.5940564992618675 2.763744094086505 0.33100716341805575 0.6930146318723678
P 5.811543920592683 0.25779719131258616 2.2496160430743553 1.0998066036312222 0.5703290452149726 0.3615238439496742
P 7.562488752995929 8.364592548902117 6.27009779743915 1.5751164177558163 -2.355963790272452 2.5388198757721567
P 7.871769155433063 4.165121814505405 10.21720065579138 1.0606016512969862 -0.15728029391312912 -0.02875598908676983
Ni 2.3353155239236445 7.639463215847264 8.340675350208151 -1.0335356483181297 1.3541933501810612 0.9188935007905012
Ni 1.9746098280403217 7.910910296130526 12.903866302231163 -0.26503342763040805 1.7400508857800936 -2.001019656422825
Ni 5.68531140645311 1.4087074026676276 12.600750395914854 -0.08000038908404287 -1.346446359245791 -3.150955315499954
Ni 3.413200884428995 7.055793141403789 11.098600292463779 -0.06250891716749879 0.6744008734259224 -0.2752527913655711
Ni 4.895127442415648 3.561096478587045 3.5890520341123975 -0.9072569449928375 1.8876471196362392 -0.3905441424414242
Ni 5.488026979152463 2.1807220305102057 5.621291820432143 -1.0334677711946718 0.4309104620736127 2.110590302964817
Ni 6.905646231038558 0.2648911727554628 4.881154335433484 -1.332402479558215 -0.5290808371984631 -1.7264096408475753
Ni 3.489988516059817 1.4043355521076248 4.577602178217277 -0.7147368540408078 -0.25550106265994066 -0.8413958235236542
Ni 6.853735176419034 6.015059169097437 7.192295767734958 -0.6810875414174787 1.8287338902397992 3.127969139017426
Ni 8.831782698916795 7.907098939232061 0.21347428671419694 0.119192228792156 0.11310642760939231 -0.35195959730000675
Ni 5.897645088566075 7.16554714189412 5.264307802461438 -2.1005532304437886 0.7827828989764518 1.3779187188224593
Ni 3.1304038074995715 2.7220935166295495 2.057533931108891 -0.012406858304785084 -0.13445481137818135 -0.6085968304469197
Ni 3.8170739338118347 2.970943360791771 13.10571034546843 -0.6317367588984927 -0.19570491643791457 -1.4140056943530035
Ni 3.493145963686486 7.60146174559493 0.8964488914847142 1.265772598243807 0.09873858892349446 -0.09494955419470745
Ni 6.999416820614006 7.117241929830497 3.39032526978939 0.20367662178948148 -1.0854210243335114 -1.733467061914989
Ni 3.2400083430134923 3.3839898231017957 7.444413289943951 -0.7455504969875547 -0.8572194208194721 -0.6895426141633673
Ni 6.724690852410742 9.045442882695403 0.27455968841700784 -1.133068193897829 -0.3466638961187062 0.44774501713244824
Ni 2.1630664801717323 0.7153702042513599 0.7306455248404986 0.20947060276343926 -0.6147469092087154 0.4750056526206142
Ni 5.6963531315854254 3.783948758414889 10.38572615331847 -0.5264025190353515 -0.11318896002086959 -0.0866718875669475
Ni 0.6221049931273988 0.8410310148561636 5.179880642223841 -0.673936275084678 -1.0256639588795367 -1.5746736737914429
Ni 8.593124497833555 1.8523661604586996 3.256363548057196 3.1476969564636565 -0.9876954500555636 -0.20339637154490134
Ni 6.738124017165623 7.68896414772217 9.496409543676839 -1.3113651992719415 0.22753774467779522 -0.32159101231047843
Ni 3.828050268016971 9.075840322272859 2.6656648830980236 -0.7335043644562981 0.17056081307211915 1.0321894187028804
Ni 9.167733258082153 7.725312161672964 4.143642763239135 0.8065578899088625 1.3107414496450136 0.5072483147044038
P 2.7482218628182853 7.04001524483147 2.9413259415599553 0.4382417056277033 0.23055930511293843 0.24314022710174257
P 8.95500723040611 6.132940327680083 2.73043085984494 0.5180268933771466 -0.36083221719928826 1.0736690260039057
P 6.176911055427804 0.8461100215858081 10.505563434779885 0.9547123102613236 -0.6189828016669341 -0.4301031356809689
P 1.4760226914184431 1.783658979115063 3.013721171196518 -0.5870792680901179 -1.3055550203480677 0.12856544247693988
P 3.0004626936328167 3.4421597236085026 4.835639447648223 -0.5244525943978322 1.8988663853908263 0.7174136295420225
P 3.7436586057112726 2.4142517145903652 10.523665511735386 1.001325125023856 2.9617853719670797 1.2547096555614263
P 5.057726653628066 7.201951205211068 7.976895346591289 1.4093550829548696 -0.60517854879399 1.1257228092763516
P 4.290597662201901 9.005591783359991 12.937281066019905 -0.8202456718086002 -0.8063591436344952 0.19944510020663717
