# total energy = -340892.4513378006 ev
CRYSTAL
PRIMVEC
9.04203145689252 0.00000000000000 0.00000000000000

0.00000000000000 9.04203145689252 0.00000000000000

0.00000000000000 0.00000000000000 13.23392701971177

PRIMCOORD
 96 1
Ni 6.418015789163304 1.7419473452761354 11.605730291273433 0.049036593712676844 1.1734460834942437 -1.658063291062693
Ni 4.808398573127325 0.3207949976910241 6.095294838788429 -0.9226915343803529 -0.1480307502904031 0.12264162079333717
Ni 2.817243800998578 1.6838432516309527 4.63526266047426 0.23895061450042718 -0.6445624499082513 1.5839124187808915
Ni 3.8208098217868107 4.347833662777026 5.328826252226135 -1.9047742662348295 1.086186441744626 -1.2766828173984077
Ni 5.000948631355486 4.63400491390936 2.3894652964306364 0.45658344135968465 0.40556195600649503 0.3946851611929912
Ni 7.304134864362168 5.922955529099905 2.4921339459332184 1.0801152958498819 0.05088958776101558 1.6470733677100924
Ni 5.061078140029695 4.644701637031404 11.457722183824222 0.16697360994149307 0.38123854876978214 0.644983853716386
Ni 5.507130590015769 7.801283833674249 12.521729663369259 -0.8285675614107344 0.08369532143712682 -0.13069045923974268
Ni 1.6349077778046643 6.769027447318608 0.3705976023266141 1.1990663551655092 -0.3907680855267722 -1.0469511503930873
Ni 3.0117921481616268 1.6958239432088964 0.40181069464892516 -1.495507350572921 0.33229708587407286 1.0274467618115724
Ni 0.6028575497644783 0.1295958189509719 4.623801885700643 0.5256003348490302 -0.17111308603116338 -0.13725885648587974
Ni 8.553580844455327 2.720349392734996 0.9967157778150625 -0.2125142746857695 -2.346844601580003 0.9794092987873713
Ni 6.829636183655936 0.6766233459622318 4.796398893283484 0.09808552872052785 0.12909946060353897 -0.625137251304104
Ni 0.8962841268757887 7.310391950076838 2.5069692068176956 -0.7423697852667279 1.0327897712910405 0.6334493707142251
Ni 7.750720794199636 3.847709865141062 3.7389676831608156 -0.008066579058218365 -0.5604344118090799 0.04525347252116078
Ni 7.226237764027084 3.9109498326098464 12.583691087600972 1.4184981829067183 0.12903929678956488 -1.4707288580766607
Ni 7.9250782852920825 8.924955157277447 6.97719128533303 0.12492476040055904 0.7295785470393306 0.46801970822108424
Ni 6.822303096207095 0.6137902699055287 0.3582850681970397 0.7542811919923332 -0.2430713215370201 1.0828668904530898
Ni 1.6340216587294656 6.6123200014791035 9.100124622787778 0.9330137422419674 0.3411558218162834 0.6272296150567584
Ni 0.3233701682279286 4.909615072390347 1.3176228966951933 -2.5856021262330184 0.24060511938471463 -1.6065517534469622
Ni 6.4235766384617445 1.9741015009468583 7.096733269593045 -0.12093106586013366 0.21412738480916027 0.08784842437355193
Ni 3.4458639065697563 4.26307366062484 0.5244260653748611 -0.8383850617217884 0.3634794250141482 -0.56416945337148
Ni 6.090359698061453 5.4775993155300595 4.753904058408871 -0.2799463401864985 0.7029288056622862 -0.03369456403896778
Ni 5.1782719087404345 2.8388000038074974 9.181539977532658 0.5474089460836895 -0.10177840419108278 0.5207108679672129
P 0.22598206505102147 5.430562668293483 12.274268252776043 -0.5871240052851243 -0.7260533074948915 1.4614967979554314
P 3.7444227406921167 6.16390758130296 12.736688587965434 0.6827081077400371 0.31209284301205603 -0.4539938262556375
P 2.3012421962600715 8.805645553223885 1.2784130318207816 0.5715770586894607 -1.428948688816081 0.38340753139664296
P 6.522505503785733 7.755739121615304 5.775510740205641 -1.5932619783165916 -0.34768231008089157 -0.9608716449945
P 4.697407637942977 0.8277934517848823 12.790974231759021 1.8856977092193528 0.7975441164460264 -1.4295634395819443
P 3.881246759527925 6.2370847412579025 8.175880726480052 -0.19459394276192293 -0.6266950827095271 0.7535039475066765
P 4.810948425976367 1.1218357912331423 3.6995842112839163 -0.38470928092720197 -1.245851176729532 0.5844857963313289
P 0.2597368723941325 5.575578767559191 3.6493349302981746 -0.28533511530223765 -0.2628068522927345 0.6486476757212184
Ni 1.288163958460521 1.2252314200586425 2.4524050684576184 -0.06844816547006921 0.8066211390466302 0.20675114694974714
Ni 2.0428842336513253 6.657928007757706 4.797166561747611 0.05916956838162068 -0.9559148152098568 0.32957608739848404
Ni 6.123770004009002 5.481252296207409 9.279259019058056 -0.7598370888135559 0.3749141492136511 -0.13701177347208016
Ni 8.810320283447128 2.489895138963634 10.243046431198103 -0.011790307766708728 -0.08131782234388577 -0.1447456517812281
Ni 2.2170247159906613 5.22640264177394 6.984416772608452 0.7115337737224777 0.3530163206992953 0.8609596045881946
Ni 0.3019794345932555 0.00923462664796531 9.3705998116483 -0.11775086835993916 0.7039148237246393 -0.4775973246071904
Ni 1.635604014220892 1.139359248046769 11.45855585911742 -0.2972298098572946 0.13967903589159814 0.025721573135820217
Ni 3.7989914000678837 6.906954593982726 1.700056518097678 0.1827990070095239 0.0986462863200043 -0.8590539029250496
Ni 5.909157389214665 7.699425350183278 7.848750881604493 -1.429132522692113 0.5906253335701634 0.5580301732429616
Ni 5.404955635426512 2.9522594135584703 4.752130916055335 1.2099359508901615 -0.8612555385620587 0.14411624572734535
Ni 0.8051901817422075 7.70218316975405 6.791108992150682 0.942306737508119 -1.503324789734811 0.735115674807476
Ni 5.08142271063375 4.61009778294175 7.282179907969409 0.8144542619378038 -0.02695878797703099 0.206030980954271
Ni 8.031900844010444 7.187049600027984 9.054930741546361 0.7750544199839426 -0.333335040220284 -0.1265548398048143
Ni 4.809456490798736 0.24073956446563438 10.490891223921812 -1.3293626642906267 -0.5476675990617149 0.6430843227008279
Ni 8.375281027681384 7.2598289106022245 4.971298002055567 0.029929697679896842 -1.0979065583950318 -1.544641903316043
Ni 7.405667834723474 6.0160432421526835 6.949862649691386 -0.6354334910237894 -0.2742009530622891 -0.3317311860682739
Ni 2.1411801567787423 5.249134308662205 2.409699554251861 2.7662270084093583 0.43203969058204944 2.549109173513307
Ni 2.1937595692510015 5.33972642105422 11.340363850142374 -0.20753610474488773 -0.48051989757062413 0.5822615349865005
Ni 1.1651290374785725 3.3946588828671933 3.9587839870141015 0.03747125747258063 0.0593999392248719 -0.4257872819144345
Ni 3.723490438048388 2.7954796314679284 2.7796009201622476 -0.7684582548236637 -0.07649006193793924 -0.9322028163048978
Ni 1.1522441427626704 3.3230279102781584 8.24206297095975 -0.0071643789589231465 -0.14275458949312833 0.014344184536814006
Ni 3.851905367701187 2.657190803548628 7.067168539591233 -0.8543657534207609 -0.9981009616596037 0.370515248815007
Ni 4.405060679378389 6.74595218323792 6.164045924383067 -0.4689884998922568 0.5885815636672573 -1.5611766677462726
Ni 0.4477324594163994 7.392140955779623 11.44342944482252 1.4297159059994087 -0.7162543191265988 -0.676377537536319
P 0.16116607151277634 5.567006921811349 8.020262845421787 0.8151338045033317 -0.059654992658471455 -0.7499571106956826
P 8.409062056915495 1.709640167156895 8.187605528569954 0.40182485756156605 -0.3737252711118725 -0.7327561734363638
P 2.073392047526029 3.1548913367748637 10.392007568754721 -0.6441117355240779 -0.20323516337668868 0.15338018752777455
P 3.980356465479504 6.057862637283242 3.724026630509197 -0.2259745139557334 -0.052182852651142385 0.9847587360247427
P 6.834175283408484 3.7587091502718533 10.317155824588278 0.035406404523751926 -0.32369288914482963 1.2321639090504264
P 6.174333043483616 7.515031204259498 10.008183282926057 -0.6731148076246471 0.943861997810381 2.151464415471359
P 2.6167729232819044 8.625166606887463 5.792238498257865 -0.3927563196013945 -0.11429067772548059 -0.14543959252445918
P 6.899838515286996 4.047267497688398 1.498927380496571 0.06934522336304187 -0.5431398863946904 0.5531252797421764
Ni 5.298069782488493 2.921317582177547 0.36945830637278704 0.32798945963765447 -0.7291543150177184 0.10414021955504
Ni 1.2207013623374727 1.0665980215352864 6.7386624975397025 0.7486335067882527 0.2832607492717122 1.703041141324964
Ni 6.796922114124614 0.5974043006394533 9.347731610086205 0.4678685273552007 0.3337055361858253 -0.8610434225512525
Ni 2.480138787105067 1.284990205446288 9.129173052797817 0.7184176453265048 0.29632195333104455 0.05602793742884544
Ni 6.356439555468361 2.0170963601567626 2.5127651489320066 1.0696545055278739 0.25429521527729754 -0.19515161503760586
Ni 3.958935893141278 6.8055934222176315 10.389876361958555 0.18897248281008744 0.7699849758808351 -0.07093185112387139
Ni 8.20841033857123 7.0266349213228505 0.26710522376535245 -0.10585128870887577 -0.2982335685314606 0.8133142347960896
Ni 7.71854924655109 3.9004882023036718 8.268544368261129 -0.036832852557633335 -0.865931089660857 -0.5378855799742864
Ni 3.0770032784711594 8.414704284496354 12.330697762209729 0.021781614651465712 -0.672716543744964 0.5833552822713114
Ni -0.06315045135812643 4.943206218965487 10.155979806840985 -0.21774698383961857 -0.21091067764407545 0.0575482307281138
Ni 8.595789046935208 2.3916805941186334 5.745654856793406 -0.5848588634000315 0.18040890951079253 0.04968862547437894
Ni 3.9302726536680095 2.5460099857053096 11.471009448936515 -0.5623856219981799 -0.10429937084072359 -0.30675986083491685
Ni 1.1307331501106492 3.152359567988581 12.521398725020767 -0.06776399491885103 1.538477426376544 -0.040136463009569585
Ni 3.081325369470599 8.254054512975351 7.919221761567528 0.521224831489154 0.41860002013737585 0.15102839946614635
Ni 5.5292112306447025 7.743713219880462 3.5194967849062304 0.098481735717682 0.1650247137452384 1.0118064841711543
Ni 2.910494270616189 8.515965993916272 3.608574357042165 1.0458808001470439 0.2884080978006065 -1.2244760534878654
Ni 3.5237519648734605 4.507063835371433 9.536354714086213 -0.09148782089835211 0.11980029468980012 -1.3225713524004061
Ni 7.166488020670818 6.219525116318757 11.482840042793558 0.219363436397119 -1.2864846339801779 -0.7585767340438936
Ni 0.38215874364854546 -0.05803447000355993 0.2400505616745104 0.12565778191184165 1.252390006289314 0.009025857647694133
Ni 4.735935733651369 0.12201497984233182 1.6498470220500068 -0.2897854377641074 0.24653099795084638 0.2651401284116014
Ni 6.100712823991073 5.799794019678643 0.36311622556314943 -1.6205303271142415 -0.9983704132709063 0.20921477799889127
Ni 7.644576387834744 8.515739943131784 11.49709299685719 -1.2467999137960464 2.051221474088196 -0.3088609663383197
Ni 0.22200447544714413 4.815189138693389 5.829703251076018 -0.6238136473966741 -0.07572027365145023 -0.5117708851651058
Ni 7.954112248051914 8.80529291400008 2.5684667748396346 0.27684867509778127 0.08085219556137688 0.026375918890367476
P 8.49727611505468 1.6457943835856792 3.604114827165756 -0.8616388900434064 0.9654302108994598 -0.38397831629844836
P 1.7386560458539684 3.287908660399869 1.687458255776509 0.5308610690273373 -1.2919942509444977 -1.108445767363459
P 4.631690153876188 0.897375500063304 8.424559194496958 0.12667182499865282 0.12848548116862388 -1.5590516509834698
P 8.526002648747607 1.4930473474904298 12.124182286515806 -0.036903815004884835 -0.3582683131268539 1.8210228947487865
P 6.495044854485947 7.575422931843715 1.5009130105875268 -1.3948874854663138 2.0636602140721814 -0.5953967868168778
P 1.8755614429721927 3.097474437514529 6.1000202043873974 0.34930159085186935 0.8703495304435269 -0.44050864728500905
P 6.94820434113637 3.947868446732672 6.127162574182621 -0.19412188822151083 0.053881323399487854 -1.0525417571069873
P 2.0231906893066 8.353426437836937 10.41504756891303 1.9608045176565196 -0.05549829017762055 -1.3408323554931232
