# total energy = -340868.93245573086 ev
CRYSTAL
PRIMVEC
9.21237300955729 0.00000000000000 0.00000000000000
0.00000000000000 9.21237300955729 0.00000000000000
0.00000000000000 0.00000000000000 13.48323910041984
PRIMCOORD
 96 1
Ni 5.572509149694749 0.7925708494850887 11.618318701741329 -0.10609914305362374 -0.3018092016978609 -0.3422809365596622
Ni 7.377176169682718 1.7625019887954743 10.080663100604847 1.6756375525010305 -0.309883236955247 2.787117992925755
Ni 0.9388237194223157 9.094629654538647 13.334532201192296 0.14625463222658683 0.138359031528594 -0.35596974690066435
Ni 4.853105730238096 2.986319679153122 1.1455585817755543 -0.7350683665093083 -1.6356309302011058 -0.727112087776709
Ni 2.9087883480375365 1.1572306583586633 13.175848155137272 0.19977805806602367 2.37822542988413 -0.052562347477748184
Ni 5.793117845776608 4.941111529447601 7.7462689724408955 -1.070238917276434 -0.5327793690959727 -0.9370277484973668
Ni 1.9157406011738787 4.65580433783048 7.96166346540828 -1.581021984606974 0.05064456162974504 2.1445049534343905
Ni 4.712359095639247 1.9703883977729344 6.205270201144976 0.10874120866216111 0.30706967876585184 0.23687033493263077
Ni 0.8074810751755088 4.437867229916815 0.4355803411288294 1.6865243746168632 0.16422047267638817 0.2996304488789872
Ni 6.3089462468168875 4.015397016795422 2.35707222676272 2.4353900520205802 0.7215963001648025 1.3698724514792149
Ni 7.247696267255252 8.450712419392962 12.433541855180803 1.348688361202432 0.9733255544871368 0.6876453971406544
Ni 5.399537634363686 6.487970291204859 5.233424730726485 -0.35709589008530757 0.6042930608652431 -0.10523602372238006
Ni 8.264180291015066 9.065435644521383 1.1906559112919666 -0.9546367198283817 -0.29198270252574227 0.16029336970784008
Ni 1.617794033809303 2.3438856360594347 9.196782894954687 0.3499561937167328 0.8103140145171852 -1.9029202437452262
Ni 1.4645277843119175 3.932365899002555 5.8039009283658185 0.7036862526536011 0.2913607526710272 0.31314031043996393
Ni 5.804264817099073 1.8559430880713044 8.618877839733177 -0.86397370882417 -0.9945546390692419 -1.9067820406934775
Ni 5.375401217120002 7.024333071648255 12.8026051783454 -1.011727808414419 1.239733493867568 -0.1547701258967657
Ni 0.8891119122733229 2.1317154736398707 0.9929924726256952 0.7542642227114688 -0.12675744273392364 -1.3919754540258416
Ni 3.436123002947036 5.229873360937385 6.54790598990234 1.9470560577221756 1.2063929707339094 -1.1263010503773248
Ni 3.034214806347743 7.442362920986649 8.181360136563756 1.3560753976951225 -1.3175988388864792 -1.9525996132482244
Ni 6.476141604280856 1.2413304114188084 0.3774548737246246 -0.2808382558731486 0.2582516288218843 -0.003458390862245657
Ni 7.302970505217885 0.30893047968505 3.5199205901729855 -0.7420944201181542 -0.1916636564890054 -1.0637211707625747
Ni 8.088997806165496 5.484890270150983 11.691276089665504 -1.6958515655550601 0.1594860433151963 -0.35289367907850194
Ni 0.28712110785959405 0.9656501495801798 2.9654628666952223 0.16232454120525594 -2.053472474905902 1.207523484793927
P 3.0291480012011687 3.5228022204454374 13.772454327536142 -1.7412762735467626 0.014632405201194154 -1.0305146021036187
P 7.199036513102148 6.448550547164509 0.9562848511947112 0.7448241603444915 1.1916762333490252 -0.974921695329663
P 2.1189839741624774 1.8888404720320642 2.7826571431933065 -0.2167632797701106 -0.4170997814427655 0.7335377887973947
P 8.42049583597339 1.1602246795816393 12.548729682145732 -0.013557684079776651 -0.6763960494790803 0.6413670828994051
P 5.4796484299175265 8.88665112183125 7.856413946429034 -0.7507556953375779 1.6558045769355032 0.2251540749369671
P 4.0550010082956485 5.384585952994793 8.974241443018736 -1.1318443487930572 0.36242655826960163 -1.016966688215855
P 6.783908561256792 3.625225383390195 11.850108454925726 0.8841506979926773 -0.48668874538549733 -0.6576146551065192
P 8.606244912646815 3.254749803445652 8.23229903179552 1.484969941376707 -0.5838088248689622 1.1007738526404975
Ni 2.0391863992904242 8.813689127720576 9.867627896361167 0.24251030682722755 0.15825319934935972 0.40107718076226406
Ni 0.10549456810088123 6.792015449491312 -0.008326142711771177 -0.7539508052361079 -0.0969835539056007 1.5575321290151498
Ni 2.9429662518444313 8.227468984634886 12.171454449694485 0.7256678991310147 -0.6468080514093184 -1.1842313470352055
Ni 2.1870910477054344 6.4409779765636275 9.984621348432876 -0.5429475678782262 -1.67228971907472 1.252475624024585
Ni 7.9869155010215085 2.375032669151378 1.8290282191326999 -0.658626384200485 -0.3391405911584675 1.0348523102470242
Ni 3.068963877280251 8.302402426566227 1.1486760487966468 -0.43785115505750394 -0.48317121915054206 -0.03953893863488675
Ni 6.805557637792156 8.784651728044205 5.723217123211764 -1.5961814659562317 -0.25650225023094536 -1.4126584362964898
Ni 3.898703888083312 3.2539114775032187 8.16373686702667 0.16418576278371078 0.4859107295688922 0.9657706249580142
Ni 7.500483782204357 2.3494222722286917 4.5668137359479415 -0.47925979991127776 0.7744088159801438 1.3062121943160923
Ni 4.601064417501487 7.8055146644011435 9.9653545915537 0.21125391991610715 -0.1733247489705015 0.6898511465427216
Ni 2.7556326470160766 5.473153706956918 4.276843241121374 1.5196890900254474 1.0432042817561453 1.0450958423519034
Ni 4.860226894562282 4.420492694450561 12.50999165370692 -2.1842261832834122 -0.7916670888399592 -1.0603283430309418
Ni 8.216211464836494 8.750151391182529 7.384810463182657 1.75414387353805 0.20012464277216502 1.0233257976646635
Ni 0.9752402298666966 8.097546888303718 4.484106893684455 -0.25395120167431745 -1.1901016897730539 -0.13922472196299893
Ni 4.262021454211694 8.711155416299892 5.958472571116421 -0.1674171252368149 -0.36197173012037015 0.07921028908257971
Ni 1.6403735600170384 6.21045676714047 2.278464890481462 -1.7099291266940484 0.06615242745735704 0.22979543036372038
Ni 8.039739247767798 4.976698926322542 6.929144385215507 0.32431483899954466 -0.15828482391824353 -0.6778204406304327
Ni 3.566901849966624 0.6858657755728259 8.492189286322823 1.2292457069623668 0.8580964241077865 0.0007998701934760418
Ni 7.295775641909749 5.159389495162036 4.477298028804758 0.9340054167312754 -0.5982548250909633 -0.37078058666125174
Ni 0.04218898336227847 3.09357933791961 11.961035559381036 -1.13203409620636 1.3861807017209353 0.3257546567698648
Ni 6.112759551541517 6.306514180346531 2.791960718679717 -0.8753487834303312 -0.379148756120289 2.1326501109783336
Ni 6.422682203797996 7.133425992640504 7.3822217863714075 0.5096083302961482 -1.1196562913672976 -0.3906701264963272
Ni 3.3556897743384124 8.070867856113754 3.4105853837710005 0.15775157712259283 -0.8679344932441311 1.248199108136418
Ni 0.22902972623546627 1.9712819979533305 6.470444672821507 0.3041077679240505 1.0712912698003485 1.4795186884541487
P 0.9345491783532054 5.529072811029114 11.800800149713863 1.6829783091368178 -0.11055923570750636 0.4323729055517521
P 2.4699201109872297 2.290011678791856 6.896690116395747 0.15028637909379924 -0.729723300147311 -0.653927436062919
P 8.612260592211749 4.409244387025165 2.490677429816797 0.3413874782111153 0.4545970070572751 0.10312694779917723
P 2.495677905877817 7.372809504883671 5.994338181655775 1.3273895997246559 -0.575076587202287 -1.1801137253224063
P 6.820822539842837 2.8727403325129064 6.797709617238762 -0.7855437495510407 0.6552870354146069 -0.6905427732931075
P 3.7392561363071053 6.052658030130148 11.598673316332109 -0.3465150292456677 0.7798230450171796 -0.3137056960251307
P 0.9153119010676106 8.103203285321895 1.835419763515779 -0.12622059639384714 1.4822085765814859 0.09497243701284289
P 5.6353191087662875 2.2779342577970203 3.3157172879184356 -0.09590703301197032 -0.4472894176522684 0.811803454578518
Ni 5.237353807808328 4.187548630930041 4.470084740750634 -0.41134848078128516 -0.06070400274827611 0.967709750962256
Ni 0.42618279943788245 3.195044414073015 3.9255773013434445 0.32467685032465377 -0.3022758569216343 -0.49323168871033773
Ni 6.853296154645883 3.8406659382225485 9.431997808418172 3.28190057106298 -2.3367669056290277 -1.3842377190619517
Ni 7.756790423637083 4.273509283334928 0.30330448349775335 -1.6124812315575199 0.18695056728405224 0.23964738345713568
Ni 2.636728548785461 6.035016335847074 0.03860444903040176 0.71107406047724 -0.5354885404970197 -0.4129901301497661
Ni 2.2344518572664165 0.6039705433700905 5.166386292450805 0.667915779922211 2.239128491748247 -0.7982123461576447
Ni 0.3193340125069168 7.80325763301767 11.365278767772192 -0.013846933185421314 -0.116416980039864 -0.5682557076257116
Ni 7.6789458718397094 6.118204063980836 9.130485131467708 0.5975020060853388 0.6369743531483482 0.4773214452379844
Ni 4.0055397776920865 1.0858992542678865 2.500722601329206 1.1879080245558442 -1.1095233166983536 -0.1916986234919989
Ni 0.29265405907965353 4.584961189508373 9.903640904868421 0.3997679750325373 -0.8941679730193632 -0.7086929618395731
Ni 2.5580088215536785 3.078305223495936 11.116431384752524 0.1571998183841809 0.691371696952306 1.4982270634969292
Ni 6.885852680805874 8.640551789675623 9.528483596968444 0.7972160436826463 0.13302502091019025 0.4539737716509794
Ni 0.41525324011807135 5.647986121632724 4.487990830138629 0.109736739806211 -0.41288317225825666 -0.19990532767250732
Ni 2.490279455303466 3.9569629348959263 2.5609254588435064 -0.4589565695775515 0.42715613723750306 -2.230990436022145
Ni 8.467736884685454 7.325522394306638 3.0801108486027156 -1.2010890420224927 -0.5013949412474205 -0.5007395670516086
Ni 5.798470234485991 5.2641618132202055 10.430566530416998 -3.273509775896124 2.7058191967452627 1.7996140900557072
Ni 0.6631904406859553 6.989224718168989 6.951000740143231 -0.8955309148051608 -1.7042827270415486 0.7454036869970454
Ni 5.353816627195594 5.316524941316805 0.8047063084297846 -0.6606686114414945 1.1555843727224742 2.7485205922685307
Ni 4.970452937432765 3.0255551757335977 10.76251043907779 -0.20280758892096684 -2.041550783767652 -1.9430687909396533
Ni 5.836766069021101 8.230287970770979 1.78102807088595 -0.5354936827033423 2.0418873411714644 -1.4344786174953748
Ni 1.0044618770029414 1.2353423689728564 11.201133627006463 0.5025036009305668 -1.1504663347696187 1.2339379702317135
Ni 1.7074949096496617 -0.1043356515782647 7.315250598418583 -1.305723684715448 1.1548670349404755 0.24940394862326726
Ni 9.262948921507856 0.7381856055163555 9.189596322782245 -1.3966936854371172 -0.7528742843424776 -0.904142824843888
Ni 3.3543263431353343 2.8526573593864835 4.326340399979612 -0.2776413462024057 -1.0158994232936052 1.2798938681365377
P 9.215965819239617 7.696034823743156 9.241276814040008 0.45927821458302837 0.6178700282187295 -1.3524897372263933
P 4.655104197482954 9.173395443635398 13.454722346692842 1.4355178573931666 -0.4753866901091167 0.3234128960105656
P 5.406787771909784 8.56319549364692 3.945074367547464 -0.1371488132705767 -0.927664305004596 0.40007779296347223
P 8.081609483024492 6.836824431733019 5.576829752628828 -0.35576945796440024 0.47509975499631724 0.3649110152543522
P 6.653719306108806 7.059727008690327 11.04932569615399 0.39180141188729295 0.918273093597683 -1.6029663500885492
P 3.592355636548416 1.1335917092566443 10.843828055493816 -1.1560782816397575 -0.2279298379098913 -0.8335621864118482
P 3.6701172769888464 5.815513124524469 2.190284977422375 1.784049917068863 0.7838918157699145 0.4706306634813701
P 8.865508725810543 0.41988706373393864 5.318652078241067 -1.0813527678014088 -0.6275592304820353 -1.6456785442450947
