# total energy = -381163.83694423427 ev
CRYSTAL
PRIMVEC
9.26211425313803 0.00000000000000 0.00000000000000

0.00000000000000 9.26211425313803 0.00000000000000

0.00000000000000 0.00000000000000 13.55604043833311

PRIMCOORD
 96 1
Ni 8.589128855948085 4.552894051328203 13.525403111240378 -0.37510878172296047 0.07471728630823261 0.3114307839480249
Ni 6.369824443000755 5.290695533424428 4.799773849276663 0.292613908351838 1.6830664979752499 0.9814684953092452
Ni 6.31264941288476 3.410115893905266 3.53469688533216 1.772089402272877 -1.0285690483414738 -0.4530096079654972
Ni 5.085391513085669 4.951035286475813 2.660129174546673 0.328992189870556 1.184446034149173 -0.07627228950017832
Ni 1.066930705354269 5.115521170135293 1.5544031782246641 1.001159031759637 -0.5548492044118186 0.10040132133789806
Ni 4.084249603926753 2.385383380225787 1.075211035327329 -0.5973361699314358 0.8972165300376999 0.3064227892104723
Ni 2.799816674011666 4.681822679096657 11.437800403012211 0.16565154869595988 0.5501487136123558 -0.23580949776828422
Ni 7.394362452284893 0.938678211912475 0.8180039801977033 1.0321991888948934 -2.1750650856094347 2.4281367128922766
Ni 0.8932419851609718 2.733138714866185 1.8286691950370442 -0.12563001399769977 0.03119493754556563 -2.1121818158216525
Ni 2.5870196033952717 6.635915717940402 0.5912646492810321 -2.242070090875074 2.6365374796303045 -0.43877752352651533
Ni 8.672423047724068 4.8275620438909534 9.864852620008955 -1.6613352769457455 1.5953029200060203 -1.2447512587971337
Ni 6.953346891135835 9.064191948395766 12.571966646778602 -0.5753218704438737 0.38254415495508315 -0.4517898766257832
Ni 7.011522229570724 1.739230516791118 7.304116117692602 -0.1505602015804762 0.34338214004364087 -0.6570323002404878
Ni 9.003136092487027 9.311110647223295 4.756692051920185 -0.45940754107204107 -0.5042411524469639 -0.7916480626765656
Ni 4.581458411101042 6.9923496534586045 1.3892911756544697 3.027725940523947 1.2461039161702863 -0.5719537253025893
Ni 7.836081934102803 8.263991603851549 6.598267076693763 0.7258314212920726 0.46712007922495036 0.8168322752516771
Ni 0.04178602759894945 8.798480420132735 12.864912495234906 -1.1004151837494984 -1.5160424944117954 0.7822545372768076
Ni 2.300922162077761 7.149296176270131 11.977588074749313 -1.4408737223884411 0.853208499887866 -1.9743704292664124
Ni 5.925298540621506 0.6783924300680336 2.824740096746015 1.384002463122694 -1.3274711036948688 -0.5139969462821471
Ni 4.943718216365391 1.6762574032711672 11.259267597163532 1.779603451261735 -0.5998005723115283 1.294410316585158
Ni 2.95133559798179 9.166195610580678 7.0970069113228025 0.5885846489910509 0.11316864830589542 -0.9706888881952381
Ni 7.126335395505906 1.7038862895235591 4.765477167109724 -1.1654959754092316 -0.9162375512248931 2.319967060462869
Ni 0.8833296706898657 3.2873280477611297 4.017156702071213 2.3625946653254086 -1.7229713045899875 1.9362162867941943
Ni 4.006457107904681 2.412271297353073 7.869308842095371 0.5363704288813408 -0.5081366308466281 0.7298222876190205
P 2.0650624274424407 3.700853654368754 13.115929679535679 -0.8269809336499049 -0.6180214661949291 1.390063067494477
Ni 7.403967264569081 5.943794982406966 7.183223300085924 0.2656695185525102 -0.06508104877004921 0.3973061437556061
P 2.4529319780932677 1.5843679696439528 2.6914295628139655 0.01021113620504693 0.06632649114137609 0.6718518817518235
Ni 2.0247444449226077 1.3345317048863197 8.581149544682098 -1.4241008738054763 0.5318684272459291 0.38697056615755293
P 8.226720856858714 0.6394878461543404 11.016356615091421 0.5556382759720173 -0.13195852731888885 -0.20624206852381258
P 6.515795360646647 8.050925931927303 1.291210018775588 -0.4324680363687198 2.4122516662309037 0.6585109416685433
P 6.892087268717692 5.4296735549521316 11.717841347943388 1.4102333717947648 0.6920684659090145 -1.9805302782202214
Ni 0.46713750144326616 3.1627063030323557 7.749947051943443 0.5886255295313153 1.1400505387529334 1.4684014954950646
Ni 1.3660877275017738 6.1102722205901685 9.870668301429632 -0.025613843913362338 -0.839518146884967 -0.38131928140904653
Ni 4.201128221298169 3.987821734408264 5.084694075896662 -0.7054230328390496 0.7681785187997158 -1.0334096642632267
Ni 4.923517545592188 0.3336343155386895 0.45188279958014527 1.0589060087621183 -0.9193794392879843 -0.1328013349351584
Ni 3.5870685830946556 5.959466479402959 9.63002098003472 2.859681209005462 1.96807868272043 1.1933487359554416
Ni 6.467613843286626 0.9353160645073063 9.50205190728328 1.2415013844012683 -0.2802060216057884 0.5747197180835005
Ni 1.4954979852015458 8.238418906921325 3.336181994602184 -0.7820146533518597 0.20866379059142773 0.24530355330164852
Ni 6.203189748878468 2.2814439362015357 13.154401722722591 -1.1845943868015791 0.98391747107037 0.47421375284693806
Ni 6.21602703897093 7.739598491899931 11.008575513066404 0.01780668916411772 -1.2146001891350502 -0.6709846486555218
Ni 8.779261533450297 2.34825156494391 9.709242620256841 0.8112810064161448 -0.9118651331888104 -0.9639945068941977
Ni 3.1278900162664347 1.8455966347000916 12.557828029660172 -0.2730663252372136 0.1590294153937519 0.13520865882507038
Ni 8.647776562200228 6.829067844627422 4.476339899956465 1.2676101656731784 -0.019675881162372566 0.9296754218973537
Ni 7.182806504953051 7.650219091184013 8.852161780823856 0.45228969908033717 0.6036855091882314 -0.4339556766578398
Ni 8.82800803976821 8.770582932572491 2.2044294577608254 -0.07283935255922938 -0.932083260007898 -0.7703382454551959
Ni 9.062876728198702 1.9994681356424275 12.858663346876044 0.8244669089787994 -0.41290245553196636 0.4495872125475096
Ni 5.3783707051526015 3.2572724876240153 9.643211156673013 0.056225141041316075 0.15302717506373 -0.7951352498942177
Ni 3.061480658428805 2.5115518980032205 10.323845944555899 -0.8557263812137134 0.5757250194195633 -0.3333682074510646
Ni 3.18869579509545 8.964735367578406 1.997902838365641 0.5897537295984876 -0.3485248605868449 -0.5924348759750765
Ni 7.130697851229968 6.670657907793812 13.488476914890718 0.6694841528505954 -1.1631040781382873 -1.257726588010879
Ni 3.125926448084904 6.623356291269855 3.0523861886295345 -0.5839250387318524 -0.9537849133510475 1.1579310185777802
Ni 9.094571682525114 2.0564579234771467 6.046725782209666 0.21661492711770436 -0.4452783007595105 -1.413928818368481
Ni 0.20697120087024812 6.06940777334057 11.973765600275172 0.0961487167091312 -0.6534340413662681 2.581225851542193
Ni 0.4848587042815838 7.38902747458413 7.8840578325306065 -0.07917840740337977 -0.8320323800308831 -0.595073342039188
Ni 4.474240178698196 2.1738274328939453 3.3188034899842282 -1.872398678117601 1.0725971330959656 1.193755484475557
Ni 4.646302471661886 4.715416366806152 7.420806714148522 0.7614681966590757 -0.7345916839832058 0.06202966353823511
P 0.8237372288032114 5.30006879285702 7.832598453003398 -0.47263380995432797 -0.7352905098224433 0.45349606068361253
Ni 1.5008792734726284 0.36539873572057957 11.37313787988702 1.024186603003062 0.5808739106103544 -1.447735739615597
P 5.976258692200674 3.4645215519161785 5.999008296764243 1.681573458369491 -0.5951977834321943 1.1588776987617655
Ni 6.081448521623543 8.333855730234985 5.252681038672268 -0.5453070692493382 1.0899741909218323 -0.5168369868341034
P 3.4743486549378972 8.786143284199719 12.740576949830704 -1.1335291926946478 0.03757975802598689 -0.22684097572108675
P 0.45125204961239873 7.146110009032174 0.7277076301894669 -0.3007627627112175 -0.15872808210324924 -0.13363900034510534
P 7.830478355094189 2.9244291566263767 1.0312826807454167 0.4457722096767936 0.4882537758797721 1.1884001337009145
Ni 6.950679402285454 7.677949860691108 3.29296589659178 -1.039950550705538 -0.05136884139027928 -0.016908088609248303
Ni 2.3016816554309947 5.162461564210762 6.196832233785057 -0.11914106383924643 -1.411459273782066 -0.536116918109638
Ni 2.443586505002868 2.850008070123537 6.189701332167318 -0.29901004168616896 -0.3664217954719238 0.4976964093499106
Ni 4.45185364900593 6.695183985834822 12.264325528148634 1.3420451448543016 -0.6660247335470851 0.6683258708764361
Ni 4.144879402588556 0.5317111082734458 9.540402616775955 -0.6663168108662073 -0.13275094131319717 -1.060299289565219
Ni 5.321427227888201 6.907490164405834 7.0789096666534945 -0.38241945645176073 0.13289826552433884 -0.3048140499624557
Ni 4.720306763031852 1.6659579324321931 5.797782385247786 0.16086261194774878 -0.6258957267366834 -0.26198975570807786
Ni 2.489193154653145 8.099163021971707 9.29029311965344 -0.36419547724456636 0.9688037553573831 0.7977058388348713
Ni 8.371330243737225 6.0999634876371305 2.1885412272957385 -0.9112529535261079 1.2092499805667303 -1.2428599553116917
Ni 3.0161981827707613 6.7145973769126 7.480182422566083 0.15506914519442327 1.1900839491612407 0.7150767538787298
Ni 8.299900820077001 1.7018856728857727 2.9319277641724497 0.43411611349510393 0.9869089495985262 -0.6752675923015918
Ni 3.663323568182132 4.8510229788146235 0.9085013180811247 -0.19640245672557144 -2.3849061843384156 -1.5566219584960546
Ni 7.290302600777812 3.8426936691421796 8.3495448252477 -0.6666932203690196 -0.26379004214161017 -1.0279915785714488
Ni 2.6568929918927724 4.259220200706483 8.740758925286974 -1.4748058563595117 -1.5485659209607976 -1.1068115741941456
Ni 1.9897984885597932 1.01459049877959 4.920544406977699 -0.2809889225183999 -0.24363927822534814 -0.6266300337995466
Ni 1.7281900768270377 7.697279892742311 5.591052925554604 -0.0812085504595311 -0.45800757540072085 0.03144844831726842
Ni 1.7310613321868238 0.7009039983001618 0.41712115928720117 -0.1385387516395679 -0.08336210646742417 0.5628584478695404
Ni 5.372757864029923 4.0561576119711695 11.906392056363497 -2.1473169689618885 0.48770715934768266 0.028713565884608612
Ni 4.025388869051141 9.305831242206914 4.214613859375099 -0.3882754010119055 -1.4438598015999586 0.31664626671069335
Ni 5.916564367059319 5.65402974392018 9.537690669778067 0.8642598726060212 -0.10812337257250412 0.4365905431775255
Ni 8.898048146318862 4.845011866787201 5.902923125466116 1.14662227843318 -0.6182911749165482 1.330350996345825
Ni 7.52574554028026 3.0032034367392137 11.409834375807897 -1.8212692064316376 1.0868269035421023 -0.3425619581351907
Ni 2.96111639043319 4.131588268906966 3.0102676511356936 -1.2487302980495396 -0.6226926464183533 0.43785141216782014
Ni 0.10997371133683394 -0.06282121484930389 9.17276244945193 -0.2880160045685104 2.02184893446335 -0.2699786874508253
Ni 5.444391054199551 9.17603197571646 7.45064368839373 0.0359314237892865 1.0818039964062143 0.2903060861542678
P 4.352322971276059 7.179277639494734 4.802091230215432 0.07891358377776732 -0.40792300003950394 0.5107825531099074
Ni 0.41534283338694666 3.8685164431521257 11.457063747842156 2.89257281752716 -1.6094211045749574 1.4646204311860778
P 5.797296124259436 4.790847023741949 0.4489217017139402 -0.2755091303507513 0.009045655142036034 0.8017807802351934
Ni 8.477122110574241 4.489124395998764 3.7586557296068706 -2.174444678416616 0.45271907330827194 -1.4797536872830903
P 4.975765131026227 7.865711436992981 9.20554107112381 -0.4115595683508267 -0.9511467043972521 -0.23897118332571746
P 1.3419599203655077 5.5818037784504675 4.405062374966889 -0.6369404145866192 0.3967237888895748 -1.6934555545190577
P 0.6304193102744485 0.16821944183860796 6.892867138721866 0.2107394421735338 0.07527598702518004 -0.037559189200696605
Ni 8.973312085201508 7.492364881194233 10.559463938014154 -1.7465951146565146 2.1260883986004155 -0.8118265945069696
