# total energy = -340889.9702996038 ev
CRYSTAL
PRIMVEC
9.07938748394328 0.00000000000000 0.00000000000000

0.00000000000000 9.07938748394328 0.00000000000000

0.00000000000000 0.00000000000000 13.28860134130197

PRIMCOORD
 96 1
Ni 6.4383753251612825 2.082112399441506 11.405580254233447 0.8979747483599632 -0.04563091046523754 1.1614570294531672
Ni 4.525048740948156 0.2849774619858906 6.314238306327045 1.1385407869766262 0.4956852924571527 -1.685970301885606
Ni 2.6220000234826633 1.4259087410329059 4.725599701585788 0.6761890756745967 -0.04841850051270371 0.30616362201181463
Ni 3.4516290641762164 4.381494543821964 4.943013808787361 -0.9518995234028766 0.8489088440712477 -0.1381194047139621
Ni 5.213874638954151 4.98316740038755 2.954069545062154 0.09021795304699301 -0.7875618084223339 -0.5054891659214521
Ni 7.422726209712114 6.112615977954235 2.522216645971022 0.21620200795000186 -1.2679305251270745 0.8699574372114307
Ni 5.066398146390699 4.839113836944113 11.445432410165772 1.4193343056547685 -0.6870923528506618 -0.13809009413792347
Ni 5.551391793085391 7.96336742292293 12.467140434940227 0.03330529902034909 -0.8550823198718113 0.4179821840477189
Ni 1.8512144937355937 6.697237744632844 0.3137863587970604 0.90182754644715 -0.386554818776373 -0.8616010948269355
Ni 2.8232264905567117 1.6700443938395702 0.11368755166122377 0.24721928226712264 0.33603341298805356 1.7148695014184594
Ni 0.8094328509466994 8.750359659511455 4.631755151494312 -0.2966921921862697 1.1205818885053607 -0.2262640201716942
Ni 8.625245698572936 2.6669339126470124 1.4546105010705581 -0.26384069287388756 -0.923631529696119 0.7470443079242618
Ni 6.727009056528155 0.49946528256841555 4.716483088510434 -0.09081907696610166 1.2830925775794935 0.33148461727510653
Ni 0.6913735741626964 7.054765869004178 2.5700686503055916 0.7115957373086649 0.6851799663192975 0.3583739854667828
Ni 7.579981202705957 3.511798165710292 3.9592993893063255 -0.1900199502379953 0.5451846847388611 -0.3255127159623878
Ni 7.491575205778645 4.000623313966382 12.922088572234504 1.085240532891589 -0.14718562868128843 -0.2170399304702649
Ni 8.005014573781057 8.904264358485971 6.903109226396018 -0.7405368458230472 -0.11160104670845941 -0.26437753921396406
Ni 7.168503357297127 0.31308452213664334 0.26355010728234163 -0.7044899795018189 0.5079165444160221 1.0531379959300895
Ni 1.8634353494266858 6.422395603009483 9.008303244959288 0.12237885405025374 0.43385668918613024 0.3515384506021881
Ni 0.4822144461545414 4.965635102958501 1.3074399838687631 -1.485179486284352 -0.10285029709902288 -0.13699017620552537
Ni 6.459739124151728 1.9171399269993519 6.969247117329294 0.0033550325151619643 0.6197353635622423 -0.24758720712950263
Ni 3.452210144981736 4.177280958232039 0.3564349661059504 -0.2905395423213125 0.8278355683407161 0.1061744763762494
Ni 6.046890291217374 5.720549863204807 5.039077361204916 -0.7903874507965871 -0.3237610233786037 -1.9362317134131621
Ni 5.602399792544941 3.0473511731232823 9.419186390481219 -0.38391326738846787 -0.11974990106783893 -0.9074227811467404
P 0.3429048627249213 5.636547369256826 12.429081458056187 -0.5530543172949249 -0.27069293990903054 0.035258566091977986
P 3.918482094473582 6.126716266875681 12.634536195929153 0.2748061907464558 1.5063491783834315 1.5510107829568642
P 2.164880096677757 8.52743345610627 1.341165369057887 0.3105365542685297 0.4037256741287047 -0.7471607788974681
P 6.15022280133648 7.740350425641883 5.64054593154981 0.31846789330046443 1.0991705127091198 1.3039329113636122
P 4.932232036028689 1.0318723991772616 12.77578150479216 -0.14989557141328377 0.6774625430703817 -0.774539428020737
P 4.0592579989983815 6.228042232338225 8.32550787618808 -0.6388057499301322 0.953519575504803 0.6926505636647297
P 4.476646525725859 1.1578489019364742 3.4887628514652183 1.2369451324891536 -1.3414748741731284 0.7596252299130659
P 0.0233249467090751 5.377158345305263 3.806280838560227 0.5545828381243094 -0.01676744926632596 -0.3221371146219355
Ni 1.5545636631300623 1.2592928994376402 2.367125271038983 -0.4317895222444564 -0.5665965747557339 0.40331249785068607
Ni 1.7128264681459782 6.3989253860990285 4.940516069262384 1.5016767126084267 -0.1318212304100762 -1.4014581967052961
Ni 6.045364954102885 5.475606144902966 9.201360079083228 0.21010643657522524 0.9708583238935667 1.5974325647545136
Ni 8.929732040665401 2.5661254722768834 10.248979768090082 -0.786634154401742 -0.39190914110975084 0.14676653886599886
Ni 2.39003982942916 5.070710855494168 7.003398325796213 0.002222975793247784 0.3780303262451296 0.2713426576778875
Ni 0.454970835763241 8.803065504449634 8.91456492370257 0.9179918149118383 -0.7635533613228785 0.9600923436263141
Ni 1.7208889643225678 0.9945742749729485 11.416742453331983 -1.559323673697934 0.5718843055172345 1.1282211502181732
Ni 3.873039759604403 6.5915536731288995 1.599628295475653 0.44317385282199806 0.8619515361878187 0.0046760653194306565
Ni 5.826542633886684 7.946833858128369 8.210455692572642 -1.4047543509580644 0.3419065839393789 -0.6645252661834233
Ni 5.0746149921562544 2.886455345707354 4.9335394678411095 1.150430853545993 -1.616434559778313 -0.5028697260207339
Ni 0.7040356880904801 7.339849559824828 6.723088576968413 0.3236831189528167 0.4762243555190637 1.5774427518961478
Ni 5.02945411830225 4.721363259338044 7.20854799624628 0.6750469916503536 -0.826501422910325 -0.8067995736060234
Ni 8.052490691469556 7.192309511548273 9.171845713856607 -0.5457858086579697 -0.6491063605251918 0.22008411661322744
Ni 4.800544598477726 0.5038687855477465 10.562059750532933 -0.5832416395115827 -0.12478206417510769 -1.0389110536974302
Ni 8.187728169566743 7.211049367526292 4.9789200628747015 -0.49580510586446863 -0.9086484260237254 -0.699681245259266
Ni 7.04870991748415 6.240036103339661 7.0835956484067975 1.0457748706967989 -0.2356824852721167 -0.10076976042091032
Ni 2.230106417097374 5.085355907670788 2.7914304752296664 0.4943094951555487 -0.1658076146578499 -0.0497143365059918
Ni 2.5222084745221944 5.196442214788552 11.359189123361505 -2.221764546548503 -0.29045495302730623 0.6909713761900939
Ni 1.0058508743550705 3.1720928791707648 3.735784841585551 -0.12208651962081553 1.0024916345281316 0.6883694197908725
Ni 3.759810717016285 2.9835775547174657 2.7911644491733894 -0.6206830721874923 0.5030368477262175 -0.8969043981139199
Ni 1.119497568772156 3.3789394871607024 8.098047426622323 -0.37380240420671107 -0.2325745357707543 0.6693519981481053
Ni 3.7305206126630437 2.913448365001274 7.0180688002580744 -0.8502743569602066 -1.8596107823243133 0.6174645652501947
Ni 4.145230720052578 6.801578066774024 6.284458822982905 -0.2298342540214558 0.8197710461650269 -1.3555655479382396
Ni 0.650628914430643 7.522708425811894 11.34899751079594 0.5058804878225998 -0.3156324807341983 -0.6495632455569523
P 9.1138892590773 5.679756174779787 7.888512411968096 0.6798557258929064 -0.17656356762277334 1.1080454466012464
P 8.81542255095452 1.4971910129725512 8.090392594948355 -1.7329901222785702 1.8447750028630616 0.4325989055196292
P 1.936724166022892 3.0707759930958063 10.481384852135312 -0.02411874742507459 1.943741391526646 0.13009216353411143
P 3.7026287339980852 6.26269825475494 3.8642854140937413 0.010858539981058717 0.7103703495419958 0.3397144613840666
P 7.165234777766077 4.103374743279968 10.803645911305377 -0.5270360388542923 0.8088893662555167 -2.046590660184404
P 6.223502538545101 7.819259383153978 10.284513767286386 1.0059009173199966 0.45883804172181625 0.9088482007393573
P 2.581061064856264 8.404661977165004 5.943447012569716 -1.1966340915749327 0.13194078670707599 -1.0204289357328427
P 6.85237724031909 4.034516667825851 1.7779619946897323 0.11631799256815452 -0.9454635379695459 0.3057946687081701
Ni 5.438507767225551 2.951073347158692 0.4124693145332482 -0.1762208395713739 -0.33875518279459077 0.03773582398787695
Ni 1.5051263977229334 0.9777410903880419 7.085030191645425 0.8614470857475744 0.40202103273277223 -1.9796306492240874
Ni 7.019374416192978 0.7991286539750647 9.147581050532356 -0.26169613572705896 0.38965094120319343 0.22441462566778125
Ni 2.124422345593429 1.333090161738677 9.329368548784243 1.8951210594157815 0.18407118885372814 -2.4751699030216794
Ni 6.460165855368282 1.7950766402898128 2.4795335369893046 -0.19816006284662646 -0.031053012651062646 0.27762360559059285
Ni 4.122405139660747 7.0732696609049555 10.53355592114466 0.42531008516769975 -0.46146750892486327 -0.6379912244486368
Ni 8.521404742749 7.275912512442459 0.48724079512228907 -1.7391137186778047 -1.564806036968744 0.4160273743141932
Ni 7.741948397857062 4.021006539097511 8.159188022628125 -0.3908390479740237 -0.9183713097384442 -0.1708168949469832
Ni 3.1997577731460676 8.655398344746871 12.411274963122034 0.0350770462087912 -1.9410499607374119 0.5163942428697301
Ni 0.13828270469361517 5.164646199461505 10.216795154974346 -0.5761019431430079 -0.9319811872123949 0.027997256543874364
Ni 8.710782609022994 2.249391036330568 5.930237411570481 -0.21762639910135423 -0.10894175470874141 -0.4936008991242983
Ni 3.8099834128178998 2.8140563090946005 11.420715593339725 0.34633428069342936 -0.785336518636241 0.17661267569315392
Ni 0.8641180023786804 3.3972526119221675 12.806823023010788 1.0797568840691987 0.20436722009860286 -1.9563469961057989
Ni 3.157792843722422 8.52924933362352 8.018275927289533 0.4545062471156817 -0.7787627220734653 1.9951526561190862
Ni 5.319703980659476 7.90766538008129 3.4825570900500167 0.2494427722810027 -0.5610126529100531 0.6100513035052589
Ni 2.8871816967142543 8.429439625887879 3.3527808635859584 0.6568952604419912 -0.4374701175690014 0.5142193467055982
Ni 3.5569318014015385 4.525738774404711 9.447066465942315 -0.06206257365869956 -1.3662543951106534 -0.870805901254655
Ni 7.430380133447322 6.463715895914505 11.55269811098724 -0.34617152986331995 -0.9624029940373621 0.17445294903767375
Ni 0.5296633256802815 -0.007477783616035131 13.218916450897966 1.1120219147504913 1.5979501278208803 0.6652950544699123
Ni 4.704811535768311 0.1214931011691225 1.4778655364952191 -0.3472825035393116 0.15109241993486236 -0.31151434480076673
Ni 5.929548286052686 5.631426594658181 0.5151390293585582 -0.5385880053579498 0.2642587542479127 -0.6906885548423524
Ni 8.006721498647272 9.180804345587958 11.266461337943138 -0.05695404878754062 -0.6755175035288689 -0.6133711119071114
Ni 0.10789217856492068 4.733420686052583 5.909879608724593 -0.5899195657523905 -0.46686991088735724 -0.07568762064130191
Ni 7.881534902608062 8.512134688023439 2.8517475707813977 -0.1149329392951698 0.9400793908394972 -0.6820308791673545
P 8.733317649012065 1.4149317614411303 3.7299912843667653 -1.1925216120684559 -0.42541832861078993 -0.5208327382570579
P 1.8635987784032382 3.211760723535089 1.494356428168124 0.10339845629300903 0.03859611510564321 0.4290479549435772
P 4.777419398295548 1.31734650366412 8.212356008394444 -0.11129919919732446 -0.46568617499190124 1.3414705032977543
P 8.501257581695112 1.812409191191963 12.519045477893298 -0.26518872226134976 -0.2724718861863243 0.1588574085922619
P 6.24151604351622 7.535546679858851 1.4660786755307498 0.47254150735083783 1.5193494472978413 -0.6846924851599175
P 1.7681471767089967 3.0176343375534875 5.991697602019322 0.5081255751030346 0.8579935799813353 -0.2357483055130456
P 6.684726348538992 3.9619814403993034 5.9619308298178035 1.5485759482631267 -1.251600163398167 1.2767558367281882
P 2.350526334653802 8.251483629197388 10.184875659976125 -0.6491945493636239 1.6639793994368117 0.2638520057277972
