# total energy = -340877.0283763182 ev
CRYSTAL
PRIMVEC
9.16643185149193 0.00000000000000 0.00000000000000
0.00000000000000 9.16643185149193 0.00000000000000
0.00000000000000 0.00000000000000 13.41599957178896
PRIMCOORD
 96 1
Ni 5.386589567603503 1.0088849991902298 2.9133377325771 0.44121030133772404 0.15055685914636652 0.2415489713552227
Ni 8.354286074902333 0.1938727855716555 11.642726119040658 -0.23541097677828493 1.4525236479225434 0.5806869914105289
Ni 2.713685511663963 1.5436546388762098 2.82618788085762 1.009766828033306 -0.17562280097605884 1.8032033500688622
Ni 7.933702677958353 1.977006875519926 3.3498679711762342 -0.7304663489609227 -0.7718263999649482 -0.7438466269225705
Ni 3.3133901552501057 2.0262489479298176 12.42879715707849 1.0499084332491984 0.5384013432684405 -0.8282903964899476
Ni 3.735495179896998 8.476263784797796 2.245006762946442 1.0529140528447416 0.9007507684432036 -0.5853486585522564
Ni 6.003499603950882 0.873414301471356 0.14495612149582018 -0.11937349156502668 -1.2141502460818252 1.9465755185413316
Ni 7.014887039062165 0.5149004818014525 9.742282782986642 -1.2426401259914017 0.1321657582336885 -0.16558804244787612
Ni 5.519337835034636 7.415707608732184 9.701310665477754 -0.18388349832295428 1.4581078268785403 0.18008829294658016
Ni 7.5875690412737065 6.29324135130834 3.5493231138025485 -0.013415759185273667 0.172000116621807 0.6395158886232792
Ni 3.2774394091608285 7.8577496228599975 10.788127752423321 0.9381248382162874 1.563634642368462 -0.7584906020879906
Ni 8.473779681740634 4.544469464793235 2.332465523422477 0.31758394803361434 -1.888740352700418 -0.951785880643148
Ni 2.904493959036321 2.234858606139854 6.461346380038699 1.0005921035125735 0.89364552485699 -0.837372561296874
Ni 8.579395310613823 8.900788747478234 4.027013381765446 0.5513257646395925 0.11786528245061637 1.1812815203782623
Ni 6.8727615117510386 4.861426348596146 5.505657851999542 0.06168950658999697 0.1502295577139348 -0.5562903077337193
Ni 6.961538405140801 7.322668324487879 5.633404914161348 -0.17302290145936655 0.059920073394400024 0.7240450188156111
Ni 2.0260656192909123 2.713163025043084 1.0742297425983451 0.24666880908029132 2.083607860838702 -0.45253883897666575
Ni 2.826845114028095 0.7076054639432829 8.93716206608019 0.49093260826351576 -0.5244507946256194 0.7843265893144878
Ni 0.1730869844926029 0.8585362657810182 9.414503092985973 0.07175923212117319 -1.4641746018979105 0.8244509681391994
Ni 3.176177835461634 6.943343037729477 8.487324001582937 -1.4219339480611448 1.516701211041717 -1.640720171798555
Ni 8.559504153292627 8.794861459918907 6.790387371075035 1.8066974792650496 0.005404201734706821 0.29720255616378494
Ni 0.909002056855601 5.550879527358248 3.817442164844353 -2.0243372481028423 0.06443235944245677 1.1928136893875778
Ni 5.556269389342055 5.116234823810251 9.255564496200865 -0.3341199980154246 -0.9221706288798763 0.5454507939160542
Ni 2.1643595780489235 4.912639203874267 2.0632327508993242 0.9296715652426117 -0.8085726063460461 -0.04988274376305603
P 3.6727234539359146 5.848101083183031 10.155187459890085 2.2622398809547297 -0.5364596461610374 1.1490383440738403
P 1.7241050181504334 3.851230549637745 7.9373747505956205 1.446370483836954 -0.11054586597106768 0.13964226911639174
P 3.672035971540021 6.725759442645039 6.04428380960489 -0.7606955801591093 -0.9811082837563488 0.11382607938423621
P 4.41514027647768 1.7245908390435316 10.363228799319515 -0.3010630675604557 -0.0015884275330424256 -0.6810276347138207
P 4.309982969201753 5.9735345379218545 1.954121044882216 -2.581616916333025 1.4662800782766876 0.09742501231839351
P 4.349013636424634 0.8891860642763559 5.441569826411121 -0.34631628297130035 -0.6328497894570134 -0.3417093803269083
P 8.84062945462155 5.921863361046471 5.816653805108456 0.28721741992661504 0.2648526790781697 -0.7158604261222897
P 8.878468485691547 2.498054366583864 1.224053239457094 0.8255192615027137 -0.10301973279735162 0.39625636233485306
Ni 4.642513620879646 7.980588977358314 4.587292284911867 0.9024284132559426 2.7195177772782775 0.6067865167110582
Ni 9.122185578251898 7.569786163299918 2.2128619194008334 0.6566785164454949 -0.6226345394869083 -0.7608166791180058
Ni 7.450604215147757 7.201524759899434 11.03180176275353 0.6753856059366949 0.5946128574630017 1.8169404971492968
Ni 4.993642962974455 5.828677413891043 4.082462045245468 0.577647947473889 -1.5577223906490851 -0.2186044467439074
Ni 1.6611957957101715 5.469729105346935 9.6864857950927 -0.6342484695767528 -2.274422024843218 0.6972502672202702
Ni 4.12682849250368 7.306727899335087 13.238103266811146 1.5315580735488914 1.3584086738139896 1.2741333115036766
Ni 5.6528010841575 2.5292110687657745 5.309556706821996 -0.7401090142570093 2.4352170167778255 -1.186601132818963
Ni 0.8321360251354989 2.2258480035376715 12.56857791109802 0.08390332368287486 -0.6266991964745852 -0.7179481618892538
Ni 8.169573304773568 3.4197665979747507 12.805182769112049 -1.5670146145842883 0.3643052633495532 0.1340218376058208
Ni 6.113148462879982 4.923886415871091 1.920191497036867 1.5083847207562218 0.8295468946048681 -0.3412262700429026
Ni 4.824421462833165 0.6623058739130439 7.657759160608082 2.2258991375421666 0.9238451883688219 0.5105714655403658
Ni 1.8447444289818902 0.6777870608253794 11.193304210553723 -0.3674312105730446 -1.205764593121291 -0.31061060203957475
Ni 6.091231524098885 2.152489048679823 11.741535672194498 0.5860132887194488 1.2097397757189552 -0.876130398791362
Ni 4.515961861443503 3.4629496588688315 2.4719914506339298 -1.7923584369345584 -1.5238385934174465 1.6116301964111341
Ni 4.457718352863374 4.182881223848894 11.394744802339376 -0.9549066856603167 -1.2652766324439952 -1.2607890289862866
Ni 0.9850156104047946 1.7018947535470885 7.60231049712806 -0.09218536118600898 0.1556201326018868 -1.821440184791863
Ni 5.2485522689399575 6.57846404771679 7.596461396903795 1.2493411921606612 0.5810438605293154 -2.6100124367565822
Ni 6.580581493496143 2.8366531962095136 1.191764482929945 0.6087171580748678 -0.8173027871301924 0.6323921330943044
Ni 1.2953818296390696 7.673605171511839 5.317900909821759 -0.5693304287471291 -2.124290426159728 0.8849333417949727
Ni 2.053005762778007 5.017769011854357 5.849026892809501 0.2543227260811233 0.13800190529949138 0.3928321671446525
Ni 2.82486516472792 6.8227311261938555 3.7559968215857475 -0.0762828310231396 -0.3136049087812083 -0.690895785757152
Ni 0.7032752414923461 2.9552393262852346 4.052195403605442 1.7003404545643492 0.8422838825555623 0.4349082703790962
Ni 2.971940565289483 8.888441563647982 6.788335006962494 -0.6386599683808872 -1.3055393366187837 -1.505400441316917
Ni 1.3500687626244408 0.5609902182653722 0.9183857332379551 0.7361060637452033 -1.8187595526359066 -0.15250986910767927
P 6.724934463769966 3.64923905529218 3.6918547140488496 -1.204376968745145 1.2210965954926714 -1.0150779558335743
P 8.5614841025928 2.300591089619253 10.737320970080374 -1.174800540639609 0.7325551131691513 1.2278570541449563
P 6.647258119465904 8.373242256165113 3.611694266687624 -1.0197249676872824 0.12118123419772678 -0.05132744662938257
P 8.650086833775603 5.803616388952725 9.8415075755076 0.5017487250424133 -2.150012770626497 0.36039050167617936
P 1.2465614130986593 8.469416460134694 8.075881370574763 -0.1607703093442586 0.229098918517328 0.5007046000486152
P 6.291078073369261 3.606935971864844 7.098780974154692 -0.7912863084617727 0.36673084207191037 2.632206199244802
P 2.0776176325510076 3.9290810561487675 12.045730132800037 0.4600762850042915 0.6738637699755298 0.2184365537074754
P 0.4223451851638578 5.800463136363558 0.8983323300713281 -0.11152494205488535 0.05913125894451752 -0.4107242169337249
Ni 7.57260025790711 1.9514508632565641 7.579972819120677 0.10470174848546485 -0.14284766342756688 0.750237618050579
Ni 7.610100130995135 5.365910097135014 7.850385311435182 -0.4400036826241326 -0.03963278390027368 -0.4480610057109703
Ni 7.150770226218576 4.65997567373535 11.03994522089369 0.6858080868215995 -1.1766692184172316 -1.8411273788081453
Ni 2.522785399972153 6.219066584007364 12.132946899472717 -1.241504726835378 -2.778552362743931 -0.04773330152022102
Ni 6.231707093659867 2.850870332156599 9.376790558676818 0.21021725112147668 -0.24039377470485698 0.035203030263694216
Ni 6.784433773526594 0.7161614115209808 5.756067356523121 -0.6347187243449521 -2.4201922612342193 -1.0674243306457747
Ni 8.151121277267777 7.571280291706994 8.963793300810728 0.934115202836262 1.806952018478017 -1.4387759593191478
Ni 2.2209256295830717 2.7106697555539756 10.038119290944499 -1.092752524997918 1.3761099477484946 1.0780879810072077
Ni 6.1532974348001845 7.259392444769808 1.7613995631628843 -0.5711417709242551 2.1438169262284306 0.07507081299290941
Ni 2.2070568180499057 7.157058398533018 1.1823872230499526 -1.3447584300204065 -0.26548902711058797 -0.3790376844637214
Ni 0.7485124997853574 6.3870139501082654 7.749255734356 -0.033677851868419414 -0.23378192581529417 -1.2087961808587633
Ni 8.236460758678069 0.4464180687384776 1.286699385300527 -1.5590765906841342 -0.1446132399684219 -0.05809664703241607
Ni 0.8767582158449839 7.611502595082758 10.609331914115215 -0.495683749795256 0.26873221663823393 0.02435400336433225
Ni 0.026100498320909483 3.6615587398265985 6.509375733502234 -0.3823852607797157 2.155053161263882 -0.2606157581786867
Ni -0.006695161892811789 7.727173799799888 13.01078308771446 0.7395050621244232 -0.5522649886244102 1.0447001495753816
Ni 1.3591985288419113 0.6820705344733956 4.938496791748627 0.5236059301268209 2.263340827328392 0.6743875036894836
Ni 0.12594219171178472 5.370630809586819 12.035680973458456 1.2335075675625145 0.3977630287873666 0.13156849096932177
Ni 4.336611454002709 4.389749259989332 6.380327038004204 0.30502565175262947 0.7533234560647541 -0.1892031107636548
Ni 7.2740495694502645 6.085979158594256 13.536743786301054 2.160853569995743 -1.7553623193261836 0.021259166489092415
Ni 3.9487797183991127 4.565332263900628 0.3054960939417627 -0.31931147224768236 0.06363197502834847 -0.41119524303287247
Ni 5.651343621478205 6.163802165809442 11.884134187394 -2.153691505029665 0.8196304068221045 0.12882975188192008
Ni 3.968845037927269 3.2597481955064933 8.609650952535516 0.05534608087047242 -0.1560677616622667 -0.7536957518025084
Ni 8.89273145379836 3.5788591908165377 8.93677340936571 0.11264594303320599 0.18455018537267573 1.4064096271733004
Ni 5.224096228510026 9.035113641203953 11.644939812355435 -0.17286246462210228 -0.4957110034887656 -0.9374051864414437
P 6.821007836988149 8.07551654658334 13.061280961300854 -0.08896376892491775 0.9309771714279127 -0.3126494868464745
P 6.649238068766078 8.54486536147606 7.9353086368351615 -1.8898518405970421 0.2811591295476771 -1.9612722013215576
P 2.1823074517977266 8.396983314903316 12.67696638563465 -0.2816712932974052 -0.7080054488542452 0.2562417974807071
P 3.9692300280689694 1.1808289296192598 0.8242418939442483 -0.005315755785958587 -0.099107542227139 2.6014108111305
P 6.0971438727035725 4.192826802509492 12.921190381881571 -0.6914992236691058 -0.03241106934085386 0.8327911125737787
P 2.8833836662664063 3.6839065009091216 4.0943078252483165 -0.5471448937890254 -0.34866344304723823 -0.1997736871906495
P 8.66777804742994 1.8528200555256567 5.658694183255102 0.6477776144114392 -2.0921788903371645 -1.3227114775226962
P 1.6539084823136965 8.7627331159508 3.0565403156417936 -0.452531382777498 -0.5688285494100462 0.24251699169544685
