# total energy = -381160.331268453 ev
CRYSTAL
PRIMVEC
9.32686655739825 0.00000000000000 0.00000000000000
0.00000000000000 9.32686655739825 0.00000000000000
0.00000000000000 0.00000000000000 13.65081198088039
PRIMCOORD
 96 1
Ni 2.2535481094454397 5.761223969558134 0.9941749291689559 0.04018299997678886 0.6078792355546047 -0.15303617392479452
Ni 4.359815673088384 4.24808914163578 6.316639790632996 -1.5185531766487912 2.0207256194921848 -0.130167239746421
Ni 6.239253848224163 1.1637037818524125 11.119049779239575 -0.8385730093628784 -0.4477655859577385 0.861814239279006
Ni 0.8495478768298779 5.1261203354706755 9.952560995108865 -0.5936646346171196 0.16874355735772228 -1.2892457416650829
Ni 5.854175519141293 2.5968140968886035 1.5789759752204076 0.4061021447806813 0.41968913943649655 -0.3015184099303195
Ni 3.8655290664549224 8.200012970662325 8.109032187929149 -0.9757143664342873 -0.7436813049893 0.49519035509860526
Ni 0.2224028577594075 2.9492483939083534 11.584202053600018 0.9031532072371091 -0.47483261737785964 0.21904487671543563
Ni 3.4963343906873368 1.461249470674601 10.84587052863593 2.547587851772774 -0.4191993442842716 1.3905472062197473
Ni 4.084934269384305 7.0120313558212555 12.405052095499892 -1.4154072026862203 -1.6705441971385229 0.8138551949012242
Ni 7.112612282040881 1.908127615886109 8.517833401455603 -1.9050120932772479 0.05860212591392488 0.004784565872836921
Ni 8.379536493276879 1.2950447131418006 10.348816640770147 0.0970930829002715 -1.1353641890208577 2.278510335979979
Ni 7.535902782370208 9.30522797392393 4.788404766164872 0.9949351623371123 -1.5683230489830668 2.015694741936496
Ni 3.718089963925264 6.841629508451768 6.217358096889482 1.4864591243277239 -1.4742039611094546 -0.9865443671702557
Ni 9.133977381720802 2.9707001864069755 9.088533158342416 0.8581974684620253 2.317945144936834 0.9600756314557658
Ni 2.7487021146451505 1.0140915194739808 3.8503346685594857 -0.015264382358238229 -0.6032378801278514 -0.4463723051546377
Ni 5.328681217855488 3.1966062151500707 9.787085598521017 -0.5262731925463389 -1.295684555311891 -0.6742571487592065
Ni 7.0678806312481015 8.248223542586402 2.7610676739906603 -0.3799362850185908 -0.8162800022926329 -1.6085518145961264
Ni 3.9271889795890043 3.1558757900016006 4.128127919923595 1.430204158489737 -1.2414381352635007 -1.0833764830996568
Ni 2.722092565080555 8.444805903670511 0.30898602303036676 0.08844363475538962 -1.2608391654979318 0.29997060582722535
Ni 3.5342107947468597 9.04686445044379 5.8829265172092295 -1.55229016388992 -0.3057946687081701 -2.99218969529055
Ni 5.418862688146434 2.9110735301271102 12.564548038100407 -0.10278293419619718 -0.08061925361496439 0.4268499188509939
Ni 3.7636703595516834 1.0156677598793142 -0.11186643444716103 0.8821982022519967 2.3175324828794475 0.5227345832654611
Ni 1.4875232530522609 1.9722404948580772 7.581674378755855 1.1312969609300196 1.3082158550096825 -1.3401942076884918
Ni 3.5771796678082297 2.1041410381256904 6.019530599153823 -1.4208859664126046 -1.8572844481839819 0.7153050678394519
P 3.9670799867701376 1.899155170501903 2.3202827705353912 -0.37069111227123897 -1.2419171317824484 -0.7559655216732916
Ni 3.392283870202717 5.215024025078007 4.484360116902231 -1.180786840130031 2.7620859896577916 -1.036733586430137
P 1.0737181757538456 4.0326105494202755 6.904676326605218 0.256735449287674 0.9567265124778749 -0.2627675144143668
Ni 5.340666241055805 5.432899621933576 0.7435825506930985 1.0075325393861487 -0.8979135561047246 0.8026367004775854
P 7.913043948228587 5.42019643002787 10.66764530581086 0.7349022732450893 -0.0013488007184105804 -1.9480562168519158
P 2.178093761048113 5.5394404157212955 11.647363592209004 0.21959586412289925 0.11339053450871438 1.4933553372269248
P 4.672414924124824 2.81023145165098 7.727260232950957 0.8678522179429699 -0.689561897437077 2.222900974145791
Ni 1.4914591906324428 1.5671000763558443 9.960943049856043 -0.49236651249656493 -0.023239687254230944 0.4462159820824315
Ni 4.771885953254302 8.59901631113669 2.1728819081575783 0.03811737569701177 3.565983559125672 -0.6456351141471397
Ni 2.0238740267156294 3.840943446878241 2.9816238122219256 -2.481533383345862 0.5025964177546892 0.5791242749090993
Ni 7.116632161417796 8.220121694413207 11.975761622077362 0.31050312992743295 0.3944074820515724 -0.6962611638341235
Ni 5.401524043687765 0.7008599069021475 4.182062389698282 -1.3676965268738188 0.8850981495076111 -0.2508442806142196
Ni 1.5721272572935647 7.709065382165605 4.627788666921277 0.6435018698542208 -0.1581143597786503 0.010655679941633262
Ni 0.11249133448951219 7.7341826331216 6.703257985342614 -0.5320532895632256 0.7980475384450062 -1.5157686719251187
Ni 6.3199592223505 6.457968863047069 9.748440660678064 2.097468163760562 -0.7894243155523695 1.1283898145855535
Ni 4.61754496965987 5.0058130870186215 10.842894325598404 0.3088080016131972 1.238553357516538 -2.046578833109862
Ni 0.8222509372186967 7.296836545272523 13.097681042888981 0.3012340459206812 0.4740859690198222 0.029561515707200704
Ni 8.13394144976657 6.824635958046338 4.312400682860018 0.13910028056999268 2.5007667776541767 0.4662209644494487
Ni 6.583993480543319 0.14601115929855438 0.16077931940390996 -0.05851367996517665 4.079094246148123 0.3022429468011698
Ni 1.9782936310892099 3.2755301578123914 13.360185695007988 -0.2957339420380584 0.3485156046154643 0.17890712815428544
Ni 5.955912976782583 2.5475682428048114 6.001866447061153 2.1461910828875617 -0.11171031859281405 -0.8861769843940867
Ni 4.499429534789198 6.013767528464736 8.575972422560021 -0.44590462148959975 -2.0268137346677935 -1.711333463240743
Ni 8.472637272720897 2.9766600539750705 7.010688287073515 0.5178091209393857 0.08191843204236214 -2.653855144973145
Ni 8.11105331985717 5.455405350324521 5.972940103906707 -0.46571085758224956 -0.4241726291291469 2.2046276297579
Ni 7.405429249647068 1.29039060685623 2.866001448714245 -0.6525233566265408 -0.7656922620427523 -3.424658502990218
Ni 3.940078708820785 4.66409535938188 12.793117819859853 -2.0641116997873032 -0.8033324409930294 2.275259176032533
Ni 8.632947450749729 8.638450301868941 0.928081956480702 0.7074891713394589 -0.3587215986141887 -1.0213082530140023
Ni 9.325607176797622 0.648967088161351 8.419369673886928 -0.7669546736949436 -2.3324045148952735 -1.548183083700082
Ni 9.33236915486784 5.2578996294763405 12.15019174300344 0.09730134225633565 -0.20633128580350918 2.358719755751035
Ni 1.0824201420152433 0.508505414313527 5.517138945702403 -0.976119572292506 -0.18462166204055946 0.11782774434446158
Ni 5.620192424179152 7.668055151028022 0.40893178965470667 -0.193166466286777 -2.550761107294433 -0.8600715455562866
Ni 8.4131785000345 1.7818884804648714 -0.07508407180506757 -0.048914980533148016 0.20686401837852758 0.926086933215147
P 9.101016236203353 -0.2677827257602965 3.0131299665959883 -1.9947471931505516 0.873510958890644 1.8016766290116908
Ni 8.174252165931371 2.1351808491845654 4.6232296946720055 1.7139207643519452 1.8170713663002063 2.4458446716950006
P 5.768694789467437 5.699237616103422 6.2001845379643905 1.0441267935704146 2.621698357734943 -0.8268130406134728
Ni 3.544134580494048 1.1338018484825945 8.514352614951044 -2.1588730492306043 1.3324225341628728 -0.7068026867953957
P 0.43516360113399966 4.603769188129234 1.5831525459512261 0.4486577587547047 -0.3342755497566824 0.12023635378595424
P 6.792933939479897 3.5872060490847595 4.011523437394129 0.003611114390026039 -1.3194068386294955 0.01422514246044647
P 2.0279871747555824 9.06117186335374 7.29760134830943 -1.8648784584811562 -0.27823398548108214 1.348829771876303
Ni 6.788531658584527 4.5467820350133294 7.652207872491323 -0.9921509147237559 -0.5455798632947507 1.6666646595784587
Ni 8.002180809493513 4.047804014629081 0.4615791518794765 -0.306416361452569 0.8331932331082038 -0.3898723131853802
Ni 8.681008792812946 4.624959828371351 3.961397127131263 3.076887232739946 -3.9705862365426907 1.7001357947527107
Ni 1.9466195931216799 6.333548466555062 7.460837364297748 0.1849019122851396 -2.2127584863951504 -0.34374672247191124
Ni 6.235793580825471 7.315648834607185 7.740610709378143 -0.37373067042851116 0.93495878178348 -2.6271074445656564
Ni 2.8061649379425457 4.112588427974919 8.361995455819418 -0.1985722106833806 -0.11711914831321119 -0.3179197341064783
Ni 7.555125453822233 5.435277972841031 2.538859747737001 -2.5139639930707416 2.1571563236498137 -4.942357044948198
Ni 0.8906383190176728 7.578983577827223 8.872932384178332 1.0813602240005764 2.8727804653915814 1.289327502745612
Ni 1.3494110168263513 2.729358193931176 5.0555094287448865 -0.2274834944010921 1.5249012303540062 0.0958746371121381
Ni 2.6250278674574434 3.6153358778568654 10.669992878059512 -0.005346351913577889 -0.3308133022396948 0.8031064410251524
Ni 7.276905031981413 3.4174197748913193 11.19942591498539 0.19058302183031692 0.3787646333079928 0.12518392759921665
Ni 7.491656128625225 8.66103997205662 9.164308350940592 0.6211525556247431 -0.4510491418050167 0.32322186304568207
Ni 9.174465308345374 7.438007993646063 10.859015814004433 -0.5776554036730568 0.11956195342674893 0.3512564005853951
Ni 5.339985379815631 7.620096404494147 4.205350642172112 -0.343298322080583 -1.3947141931132432 1.484306082540463
Ni 2.8265814482814515 6.623586028002732 9.942022568872257 -1.2728331046350145 -0.08750749609436542 0.27417729891320525
Ni 5.345721402592437 0.2547997278654784 9.186136016151256 2.1262750606899252 0.551020831804664 0.19274634803022286
Ni 1.5406211029195018 8.463580885539958 2.3629690395477576 3.013154727577991 0.578017929218798 -1.253467555624209
Ni 0.4283950942573693 6.550957720095441 2.664925403444989 -0.28629850765677145 -1.3083742349644176 -0.2556812969915468
Ni 2.095317822602344 8.853359955239917 11.119240979998803 -0.33264212791831743 -0.46538715569424366 0.7093519355798106
Ni 5.347661390783617 0.34768319132461983 6.7132367996009945 2.7733456217320107 0.45676676101508434 1.2035781269929335
Ni 8.44313639460214 6.391337730173088 8.30144077634233 -1.1796247015011299 -1.5069765275547853 0.7868925502694513
Ni 9.330223975617976 2.5636291065798664 2.2884632334535224 0.09416536773051523 0.098669683358772 -0.2322732024802516
Ni 1.0265615397220926 5.506292732877774 5.149577404224604 1.1501110083127288 -0.1743832721420029 1.0946538557856889
Ni 4.699108415486152 7.826733127453698 10.373279145711619 -0.09622610691428589 0.8253534253488107 0.018347135048620015
Ni 1.6499413028657397 1.2106645536917868 1.0634231807277679 -0.15474595752704964 0.20135697251736934 0.3270870024280431
P 3.471478291987846 7.264267128139833 2.8105653534646544 -2.1699833002111535 -2.1826043314092733 1.2556805041151278
Ni 6.393734734813151 5.942976613219284 12.093377136914155 0.19445381763963285 -0.5315418971444459 1.652925198505179
P 4.544077243785242 9.014089842252417 12.143543552702127 0.7310430473999991 1.4928377741605579 -0.08368143748005588
Ni 3.6468233784983206 3.8860948066546883 1.5750447010733772 1.8680990223009828 -0.17656819560846365 -1.4584112170515724
P 9.099533264461058 0.4016092669196336 12.20132722020037 0.5355209363968518 -1.7701268792298674 -0.7532553218309801
P 7.568434892037684 6.479308733150045 0.44483742686424776 -0.3907873688004818 0.08938465851242025 -0.15691159771980073
P 7.5739190894242885 0.46453763387102565 6.987509158935439 0.22546029332347625 -0.6200210131234613 -0.49517749958279883
Ni 5.451702584401933 4.93621601066005 3.3500182428606493 -1.2594302009655471 0.8523057855679386 -0.5193096167443121
