# total energy = -340857.2514811704 ev
CRYSTAL
PRIMVEC
9.37806923296982 0.00000000000000 0.00000000000000
0.00000000000000 9.37806923296982 0.00000000000000
0.00000000000000 0.00000000000000 13.72575227221098
PRIMCOORD
 96 1
Ni 6.990215664268837 0.1044079173594075 11.814578493426241 -0.5082952679116794 0.2719008441742027 -0.36497837815717793
Ni 7.915305898882551 1.3968821279163646 13.569689726365876 -0.9988290980748799 0.20547099468574292 0.016285881644217112
Ni 5.102222820989643 1.1362655914831796 5.193000652920767 0.5122257133143373 0.20380594827849416 -0.22126810961899954
Ni 3.210703823781018 3.073999712532853 2.6782648963128493 -1.6341931693133147 -1.8165710296250197 -1.062384197118706
Ni 3.658290921094679 4.84978396069067 1.0705121987682593 -1.9612498327240544 -0.29364929159488784 -2.187026885957001
Ni 8.244260423836376 4.8608594601339075 5.86845888327561 -0.24652225620009804 0.9390542920090923 0.5827387317332351
Ni 7.1787711188037635 7.110498776765851 6.082855606833267 0.7757038806424833 0.42437806027173364 -0.7032674199486274
Ni 0.3524250181431508 8.887136429199144 5.7616998840276175 1.1882165569351988 -0.6520536160789738 -0.7892862473126084
Ni 6.38367029806196 9.158443964248155 1.3754166658709552 -0.7740339491392283 0.6324448407091108 -0.1354462287571732
Ni 2.103153879457192 6.555298338121828 2.1819690466213433 1.8930106979409977 0.4698174235514554 -1.0130586114107005
Ni 4.947869183956401 3.720551920928429 8.76865578155648 -1.8843779619666645 0.8062390731168629 0.5340163268268674
Ni 8.599539188364437 2.5701160672447982 6.448248618736036 -0.488589819062952 -0.9200936917461895 -0.5575257228027172
Ni 5.930418847095704 3.3272450867624936 0.4321320396655175 1.09225630208779 -0.6984725696631455 0.15556639654581594
Ni 3.2137048058486193 1.7329452291428196 8.053159761385366 -1.5310862761187953 1.8695344691959286 0.4347689165877544
Ni 5.695460707340503 3.840572447494528 5.70067491368296 0.998339817143287 0.2825709222935392 -1.1479026878075005
Ni 8.491710151447965 0.3302111861946339 9.730240771532905 0.0031755695145042084 1.645199033505515 -1.6409952798368126
Ni 7.849199890774687 4.608701941903772 9.262892207304096 -1.1851507735256817 -0.42495861536555196 -0.00696846089803316
Ni 7.752333816473918 7.562803042767022 0.5585108969873455 0.5504701015075164 -1.8102175766031663 1.2160430922291638
Ni 6.498204654285727 5.783473884541851 3.838585234681639 0.6578835924971895 -0.3457321283330562 1.3470230576848672
Ni 8.743361253954193 7.697547137602285 10.631047434378354 0.9343257761851715 -0.912076734978984 1.5555220405636565
Ni 5.394790438373812 7.356410501067794 2.766741350120882 0.01873511451565806 0.9489898059552495 -0.6925605750540846
Ni 1.3213324043645207 7.059538350030409 8.216592306979996 0.02321706154641163 -1.1221034673562096 1.0111714216903167
Ni 7.722342751935836 0.575027552041902 6.6855390842419 -1.0443782474595884 -1.6215356284503042 0.7179335066012346
Ni 8.838229799566216 5.354399095357702 11.535492787980768 -1.0170759601002097 -0.8957785120395928 2.4547759127463595
P 6.5319750806151955 0.29630946689970894 8.895550432671177 0.1494587409861813 -0.09999457281778262 -0.36517840998312595
P 7.087635044638319 6.262224305013751 12.251249518469006 -0.6390890854985058 1.5903427477872676 -0.033643656196374314
P 8.860924726452444 8.68691465687642 13.05487875512417 0.8193480996949953 0.4701388114466162 -0.2386279410536858
P 8.972711308470565 3.111943379550077 10.28913898276835 -0.46331304677403434 -0.2452539310106357 -1.366855519029762
P 3.55932415934659 4.227173962353169 11.100029658220214 0.5827158489150996 -0.6548201230805174 0.538496474085408
P 4.860006055858434 1.0246478147063616 2.3905044770782173 0.6117765137264819 0.46871210630241855 0.218639670857217
P 7.798595830659774 7.379292989333248 2.9484977046589016 -3.6919665855874158 2.082818017947555 -0.5910179410228918
P 1.490409609666928 8.625685244628407 9.688994148627527 -0.8825576424739446 0.5101708876678376 0.6109648164584639
Ni 0.8055311090405077 0.8255392191693383 7.660232739012362 -0.1842714777899923 0.11838027441382193 0.17876340348756956
Ni 6.325404355605704 2.426481563034267 9.821640369436162 1.9863350578274566 -1.6710887567880834 1.2742958052234699
Ni 2.9559204462417323 7.7770731623937 6.320448046159681 -1.1433793460158501 0.40085375189754835 0.18730872195441933
Ni 3.402232126176662 7.893258058754648 8.579240358097808 0.9387681282272413 1.7976063155970587 1.4994712203166756
Ni 1.8752949379056592 0.7395545182843097 2.568211381438768 0.44242000537510906 2.136375382348721 3.8312183041336088
Ni 1.1895142670451668 9.062159330222983 0.9425362563023301 -0.3814905168795881 -2.057832808757127 -4.1268879685926345
Ni 8.801242695583039 9.522303661875759 2.251009452507182 -1.06095672064356 -1.411353344331821 0.39921338808064794
Ni 5.258836572642546 3.020225865109035 3.3959431931312465 2.2945725316491643 -1.0584982318007385 0.2965566950496699
Ni 2.399135113943257 3.614176484700951 9.351423053912104 1.599877169640264 -0.8848739493119471 -0.6825594979773149
Ni 0.8565262346311061 4.657711730295273 1.5021321958684926 0.5435065257054897 -0.375453823767205 -0.39777768407538594
Ni 3.7531031982929335 9.19617193567927 3.78670200596041 -0.711140394938801 0.16523837241794123 -0.1459638404590454
Ni 6.318670902091525 7.627502340530697 10.310990821254963 0.16246518054817827 0.15362984164473542 -0.8240493618254067
Ni 7.550649065393239 3.838321710943828 3.867518453040893 1.6888622787214203 -1.117731563540759 -0.5868671520793118
Ni 7.959701677345116 6.8494227149535645 8.616121489901722 0.23524925438944 0.5046327314584277 -0.7897356761452011
Ni 0.2937183064457151 0.6610544542372561 11.730644776223038 -0.07475945240007771 -0.05680363925260539 0.3752987862465795
Ni 3.863370533139331 8.458586811876824 1.4242660892832195 -0.5402774772452309 2.12692426423815 0.5635665296801584
Ni 9.45825145087041 6.357627400556565 3.038387433459395 0.07289231728435187 -2.495616343801489 0.2189525741119455
Ni 3.23364258046024 6.883511995627715 4.025159103245053 -1.45468028925423 1.7528071570044972 1.7307797448908127
Ni 4.923561229208837 7.830987680851936 5.2539984268654365 2.6227075157257476 -0.12157384165045515 0.48097703971270067
Ni 1.5762752090761485 7.1076290876637085 11.566800533401011 -0.3041818156950955 1.127199393821878 -0.4826235741771882
Ni 6.146198835825144 5.496767560258464 7.504403931731515 0.4944282801216001 0.10517303169492853 -1.6307358068923332
Ni 5.582961392081328 6.831004187513667 0.12093582609671753 -0.5336041789901133 -0.6597928937047606 0.6447552826453476
Ni -0.09661099082502285 1.3893890508163245 4.344063151693106 1.5783701488064235 1.0450804157329356 -0.9762980068518992
Ni 2.2512054541484727 1.2420033190212925 5.515006966581202 0.4087498668161735 -0.8413821966768994 0.37096030677222563
P 4.439390284877334 8.808182466614364 10.678154412577618 0.1943915969431297 -0.376753516415235 0.18412286802727
P 7.003757595848884 3.5486612949376464 7.3871996392744785 1.6047288413056104 0.9501244337803251 1.6636590399829156
P 2.146649363299477 1.3503669058685561 12.56489622145738 1.3756720888801277 -0.5636225797290745 -0.030277310827302697
P 1.0306685349794853 3.2250710254296564 3.0140100810015173 -1.8592852806640947 -3.4967483789779323 0.4166323548880438
P 2.3764589431949505 3.979330355845209 7.181532960112852 -1.151806650847597 -1.7809208845215783 -1.0562076359943489
P 3.331990389656887 6.832213958409668 0.34722956793861737 -1.311687872718683 -0.6664399667076328 -2.258903360382329
P 7.258953608422466 1.8620062141875655 4.592774229579982 -1.6304295885058242 -0.5659982790501027 0.25364524039812447
P 9.208241510432401 7.155053982400758 6.862491991857965 -2.055899596290156 -0.270203916087754 -0.8740871431090882
Ni 1.5045986280053016 1.5106381044163477 9.902759728144092 0.06999519824221494 -1.4535196932872256 -1.4750115446124146
Ni 4.176738707479557 5.108187272848999 3.2172065767987506 0.7183291993777565 -0.38821832252172495 0.9347983449462159
Ni 0.8908255840499881 6.21531520406957 5.289520676476866 0.42666222832022005 0.4585986720175005 0.2996386764091033
Ni 7.22781841947111 1.9336265268446449 2.2137438198758566 -0.13228094365531412 0.31173623100358566 0.4357708754897075
Ni 0.9812742457605725 5.082997779619077 10.11523394756469 -0.200730394676964 1.1203546029859026 -1.2213745317444062
Ni 4.556897488961818 8.919865889873911 12.916056138097659 -0.041612533334463825 0.10620970048955901 -1.0340863786152772
Ni 0.8650068223927662 6.692752694886893 14.055444626544935 -0.9304974035780169 0.29042564245126756 -2.1467577540243092
Ni 5.7325884823581 4.601293267424383 11.959838216987757 0.011563279357567182 -2.009098319665901 -0.2839436342713497
Ni 4.04137566009285 1.5705170747339399 10.363916891244683 -0.1093950401960761 0.4393405951188369 0.7250847729340351
Ni 5.5341860554138576 2.099552700976071 7.344677598990372 0.11878830848551801 -2.7764947088839533 0.26184963058578775
Ni 2.0034931406059697 4.6908538260043375 3.9105900481661298 0.951728030822019 2.945451924914379 -0.1592101639459903
Ni 0.299920961256687 3.8835708936818674 7.979205247363831 0.8956823527813607 -0.04897617278838662 0.4629338090577446
Ni 4.700775822965341 6.539599450680693 11.5828736057937 -1.1441715028998425 1.371097839245884 0.16810669510467177
Ni 3.5987026709148857 5.488589884124252 7.813919595342458 0.5788034012345709 1.730137997541756 -1.7216595277570996
Ni 7.759695600608501 4.987847891938217 1.1762668068305024 -0.7086960471633666 0.7036435723411236 1.3707689951515554
Ni 5.637551131504774 7.869409629386185 7.697127000112822 -0.14710181071823053 1.25601706151894 0.7926392229452414
Ni 3.4974382822712897 3.3073354463577562 5.294009020281721 -0.5806635943717613 0.11679261821172789 0.43823810608327757
Ni 7.757810608747289 8.944333271793816 4.432099774066857 -1.447197864834256 -0.07677751127137099 0.045931215314475735
Ni 2.202120641205281 5.040524505293567 12.514357807825194 -0.2121206387917766 0.5116901525258414 1.1531030010615173
Ni 0.23349891222482955 2.0892086909118106 1.1913805027684559 0.7595509250317048 1.403181607154306 0.2133768797963809
Ni 3.795726521721823 3.0738965537742784 13.236675435358725 -0.5533075709563116 -0.6382974428351459 -1.9048336587178547
Ni 3.0673694177772477 6.054912712556321 9.9720739736436 -0.28851736968496117 0.1826506543571177 0.3675643937167992
Ni 0.9982391725114768 3.4007972816255907 5.404555821583164 0.3338040094369026 -0.007753675803489871 0.6179859849713035
Ni 1.2336662157147398 2.9930482212593277 11.543439763618533 0.4376855760139171 2.0028464252189186 2.1001606229910603
P 5.30328861951888 5.722975961672816 9.339111524979772 -0.2068503915317728 2.013667684204138 2.1485022475192417
P 1.2134377209653198 8.099997589005442 3.5185145544548067 0.9229566151162815 1.3381206129889147 1.0508111475691257
P 4.140942618254459 0.2822226695130128 7.085878532321877 0.6675496548320439 -2.926646105061786 -2.24861200575865
P 6.031467540153191 2.377031005401587 12.066198648304898 0.155774398791564 -1.0616923132580036 0.4376621789751494
P 5.590341932353833 5.033200233434831 1.699398938661526 2.6308329730463593 0.6216138115318778 0.2942668705742287
P 4.470281644035697 5.569503863121932 5.284180804010329 0.30767723044286366 0.8782266191987584 1.3798385615529913
P 2.906029119367873 1.6739009069627788 0.9157496779283067 0.17172320881133651 -0.5735503803657478 0.25903941483050225
P 9.070946580839676 4.070944711527677 13.576744847645426 0.8377397148283057 -1.0603923634996575 -1.7457389373038066
