# total energy = -340889.0256389976 ev
CRYSTAL
PRIMVEC
9.10699108949657 0.00000000000000 0.00000000000000
0.00000000000000 9.10699108949657 0.00000000000000
0.00000000000000 0.00000000000000 13.32900200825065
PRIMCOORD
 96 1
Ni 6.753216362366831 2.0958373868955373 11.429339346831577 -0.9760635222435899 0.746924751627262 0.5532193821178796
Ni 5.122973893258829 0.5963694879673969 6.169755123523582 -1.7579491062167532 -0.7343044917600902 -1.0878005803092814
Ni 3.095202157523076 1.5906452719923017 4.652808176659801 0.15201133220470595 0.15012388537400598 0.014695654338961786
Ni 3.8906978263493097 4.757483021169495 4.562770998875972 -0.666494216984336 -0.812695113154852 -0.5404250585666887
Ni 3.981858806829568 2.836090047970197 2.413481949369767 -1.4567924505012266 0.498267194251716 0.6040871155020241
Ni 5.338026380078091 4.742474699907611 2.1103940014009965 -0.39467667655255895 0.6798917213371646 0.9136044844774202
Ni 5.31847367027878 2.9776035820044373 0.4546865638994975 1.4091583935630312 0.06716929875764562 -0.7585458808059581
Ni 6.051750376203802 8.189024572408547 12.358690480912246 -1.0508522852197064 -0.19866091374244496 -0.21502829935687487
Ni 2.1560072768089307 6.940875020086732 0.2136035645420998 0.12236419876223442 -0.4536017330235414 -0.7846076108900164
Ni 0.8818253905507699 0.12053011593987767 0.1411984321436686 -0.06595830916867995 -0.11520779022311126 0.15170562803882906
Ni 8.38689216710331 0.14055365717683518 6.715164621633497 0.353651640290449 0.894651083303369 0.9813466250194002
Ni 8.96153419580699 2.8966606454900976 1.4534475410199597 0.7956723533446103 -1.0798892958820048 -0.1021131618226822
Ni 6.964380164004768 0.984693408034762 4.935862565701451 0.7347616339021669 1.4122059221401033 -2.0100234025833315
Ni 1.1923510181157668 7.794263831062116 2.2213317236605685 -0.378635049708664 -0.33383177735104447 0.7161363054914957
Ni 8.017230293109884 4.254367300227249 3.6290075276282026 0.8593068994761202 0.4089771523356311 0.4719722651109291
Ni 8.15948149341974 3.98602980873366 12.529488455389274 -1.6569037235369528 0.3320543737356475 -0.3750121082440961
Ni 8.28696115423519 7.416542269983274 9.081582551919954 0.5876482532197105 -0.291010311310144 -0.1454377927522463
Ni 7.2134654764039245 0.9133856680586956 0.3630902692467158 -1.0109477357152847 0.32916831043710404 -0.08875782356169876
Ni 2.200230825381572 6.881124051761959 9.2098608958511 -0.45640294991776237 -2.105415700742413 -1.2638535268442235
Ni 0.30658958603017505 5.433932102899031 0.9127090186231628 0.31533860364286337 -1.2187532920714754 2.579488300025796
Ni 6.613979576096833 2.332136483850709 7.157607746756006 0.08589952817729722 0.4582644286065334 0.2692927171273943
Ni 3.6462752933713216 4.6487091199850585 0.19711444653435192 -0.27222634583442146 -0.4995434898609784 0.19861977609186438
Ni 6.134032040403516 5.684538282804701 4.503150260523314 -0.29186983109696185 0.20026888165951318 0.412835863960089
Ni 5.322453425370674 3.0023472767062214 9.380392035490162 0.6566137246458305 -0.49073540465104515 -0.17632188392561246
P 0.5202459711204053 6.007025943123027 12.283141615200947 -0.15453281307497901 -0.04064142767044614 -0.6177728405192329
P 4.202739767925292 6.50720921294493 12.451940605140972 0.7897385043586787 0.5646211961969179 1.3913912993875974
P 2.887444370540445 8.849727666600584 1.0986774188028905 -2.1645171348902594 0.5235858755221628 1.5346153723179763
P 6.711205812621032 8.237164127135683 5.9993833562280185 -0.02862563415649264 -1.8324357645714187 -0.7262836783381428
P 5.028197437328952 1.1262889049885145 12.704751587581535 1.3504372255727388 0.9320624340722915 -1.0912494580898302
P 4.183032239278011 6.370467742224541 8.140714716948644 -0.28117815571107063 -0.3903029729648955 -0.34825540897554214
P 5.070289949994263 1.3636990548526366 3.5527920301715357 0.07372715448082141 -0.8720500580744013 1.7450815062254657
P 0.5183890556438894 6.028181483348366 3.369078520977513 -0.2834857207983247 -0.9052553411817765 -0.09777982455465097
Ni 0.4137779600715933 9.52481980666263 4.483796083129043 0.7781621123749889 -1.736344897683416 1.2469356680429622
Ni 2.1342142472096044 6.827911903016089 4.617179806246726 0.3410468070422449 -0.9204271638262083 -1.9225899542600118
Ni 6.372234498489593 5.830058892904008 9.071065798647368 -0.977025371936227 0.45388532570223117 0.6531049401616236
Ni 8.841494946685083 2.57532046604495 10.266890223152261 0.8743008017817911 0.5222954388455133 0.19969244033075284
Ni 2.653631482143825 5.296161542189205 6.625860556629755 0.4699300378699197 1.3035912117534776 1.8548722391980637
Ni 0.7302540955932137 0.017639330978243058 8.63884618168541 0.7481100301846147 0.5361297736254445 0.8435005285714828
Ni 1.7472946251632238 1.257547967092607 11.483374767568996 -0.05233429062734213 -0.3921145722523376 -1.1078153328683116
Ni 4.513433874824843 7.055504716520798 1.250629385986628 -0.20963335359354862 1.5142234389251858 0.9535391158888288
Ni 5.820988329811266 7.979581992080376 7.992456545337613 -0.8897436186994225 0.43172421622415974 -0.6930647683840129
Ni 5.38826964973939 3.039522014200769 5.048453206837863 0.18540944804917744 -0.10638145018073292 -0.29780727962731934
Ni 0.774374735166911 7.456339820902228 6.371729060485932 -0.3197935540904234 0.05860161169329262 1.2265275367002555
Ni 5.236765746515654 4.7021216225341815 7.209283546110565 0.3413813075635282 -0.14874705963113738 -0.8650918815890133
Ni 0.9875165752624224 7.687174723223219 10.982164229155869 -1.8056433269689223 0.48564102084727334 1.4460565521409612
Ni 4.8346556633862505 0.6393535750571844 10.432662959964055 -0.28183790078225657 -0.598882174262317 -0.28081974393038733
Ni 8.106232916709642 7.156191609646648 4.575793085388332 0.9463708802751637 0.1042158099879818 0.20952562437109076
Ni 7.613098457965834 6.185286186072136 6.893413025494232 -0.09173618946373234 0.2949680104063114 -0.0038949641790320014
Ni 2.805162706340731 5.591619653050447 2.291321682030692 -1.6880546952184605 -0.522460503668468 0.3320412611095249
Ni 2.6107648752386727 5.516186446125575 11.495451548409644 -1.4400797657322362 -0.9684080625808612 -1.4514851793557002
Ni 1.3950271040886097 3.412653651786898 3.652306853548352 0.23448460830927356 1.1289122627479269 0.19315541054318347
Ni 1.673974240163567 1.3509037324175954 2.5655395576497653 0.7416771300750775 -0.3413941630793346 -1.2803654084563176
Ni 1.2155647383199808 3.686200342165073 8.159055286238274 0.7364413355974349 -0.6414886960789339 -0.12149722277624883
Ni 3.8795781902687505 2.697381467181504 6.990821401839572 0.10487606927980002 -0.10444926615502656 0.9906465622640873
Ni 4.288236199968115 7.001263477785492 5.626452072445143 0.8911122169121751 1.0496466949473795 1.2452752496214037
Ni 8.210389573428197 7.312194366452524 0.09614250458842066 0.43960464741350097 1.7801783499285986 0.4877814642290438
P 0.6739337307996011 5.75100110353846 7.722663756673121 -0.7681116701175222 0.2891002387716247 0.9036887680256049
P 8.738558626768164 2.0682432039929215 8.066511864515567 0.2752872441479323 -0.9383446675365775 -0.2505303489182266
P 2.312301457328631 3.3714991592004555 10.673757798409827 -2.056671184348858 0.17843893026861526 -1.5156408880980028
P 4.320766372023609 6.569373533899799 3.4657537845427666 0.5705563307344302 0.16996688824186212 0.16207411575734668
P 6.942468743521701 4.207466296283859 10.436195561795055 1.1498546693275487 -0.7959613453399389 0.1052733047182187
P 6.4788864707577565 8.019716501668439 10.030047438830989 0.49135632606449575 -0.08919671087133026 2.2013193913202738
P 2.338875657232866 8.750998776551985 5.43880616451272 0.6482416985320513 1.1944026311412528 0.805389066411742
P 7.371489985224449 4.244030865377589 1.272979763438641 -1.9421485931182294 1.659311047426865 -0.160665151224962
Ni 2.963715420642559 1.8974415867194698 0.19107377936626443 -0.05100400185169281 -0.850815059955025 1.3146649530691359
Ni 1.5500098778961062 1.4595865636914622 6.786181848594846 0.45322532352072914 0.1291817359047001 -0.2733054378312132
Ni 7.108762400221954 0.9758687337005593 9.270534402369945 -0.09840383129189505 -0.6573390328476292 -0.795867500074552
Ni 2.729556466585775 1.6826623096319155 9.154571442445137 0.43166893750619206 -0.4498085845296963 -0.08639189443268347
Ni 6.589317844314561 2.6752150509488417 2.619215252240434 0.3395979904108603 -1.30977471485637 0.010856740208845818
Ni 4.360855346656386 6.995498752446431 10.351716380653293 0.865415069256387 1.1509386464203468 -0.7401655785265574
Ni 7.31004511656308 6.1559889958418665 11.524028375647307 0.7637230541315234 0.8154791036578923 -2.274038930472187
Ni 8.033850551788854 4.207794147961909 8.473393100259717 -0.8274414182260911 -0.2796367793658797 -0.7368372854842729
Ni 3.5809508465196833 8.621970927256848 12.455606169041403 -0.11612901648580001 0.12576808223746083 -1.2562731433938044
Ni 0.19256641520050166 5.358271221197734 10.295960649305211 0.6467717988547442 -0.6914190052504737 -0.9165957058952601
Ni -0.4655502935313558 2.577806674603502 5.737135709654225 0.2359766194737678 0.8233569637440724 0.04367507229044737
Ni 4.024078817369676 2.8412172839352707 11.614358798543169 1.352085302699123 -0.47734252828390694 -0.06508104877004921
Ni 1.2355181557257995 3.3842762676533833 12.629229132144303 1.2411352593111011 0.528299221837432 -0.023981450516261923
Ni 3.022929076494971 8.32920848574847 7.610593124726062 0.6562260022891085 1.0321575370236806 -1.0162336667045724
Ni 6.214829265060944 8.212101687746905 3.6425095525692646 -2.0252088520745186 0.06018001192400603 0.4293629150808347
Ni 3.408874250498256 8.666367508659572 3.2450121604102145 0.4776893701003644 -0.5515993300159532 0.7533054583426252
Ni 3.4093569210242753 4.289174220046983 9.042447989949949 0.08789521845108733 1.1237497447103808 -0.06270560655933717
Ni 5.181595594692537 4.8888513671662714 11.520936552183464 0.29306796517012107 -1.0265648734272514 -0.6942770435245591
Ni 8.587437217168821 0.3190479497961085 2.164296460068984 -0.9754842527013524 -0.32207412259448404 0.5748382459392357
Ni 4.8202119755698964 0.6202288938375498 1.5146547172147418 1.283513467166996 -0.5462334377183495 -0.21555229018114488
Ni 6.252559529009965 6.013947256326324 0.15528057241505958 -0.3208255948993636 -1.6036685183618964 0.9166062474182214
Ni 8.040225445528732 -0.034757742068027495 11.523348994114457 0.7906700150340124 -0.9089500164245442 -1.2360174784685616
Ni 0.5570500540789337 4.9549772292309235 5.512342385200427 -0.5966095761780564 0.11714974444083051 -0.08643328919358016
Ni 7.162256865690588 6.260437076274243 2.4362612661005634 1.5900082472659842 -0.17252642143892222 -0.6639704221212178
P 8.695956122603663 2.050639390279801 3.55240589375072 -0.7387080201444246 0.6716379659688045 -0.4857497785109957
P 2.0225898578243364 3.5611977829171177 1.4381596351326258 0.5312027686374722 -0.056330042050296535 0.1941260019865689
P 4.777308940700517 1.0196005047561238 8.125385829601553 -0.019988270196468802 0.9313530667100928 2.273216691681208
P 8.826632337280111 1.7261755129021128 12.42842817563009 0.2517223123437987 0.7805573520800427 0.17110280161851824
P 6.6859976613753425 8.164208021778306 1.5975875312750292 0.605094730830932 0.589174974276882 -1.8446068527163135
P 2.457038866197038 3.4738253107165584 5.66394646532579 -1.7752811697372974 -0.9031735189520832 -0.8565604470792345
P 7.092834272863315 4.303954866532444 5.8656808884233405 0.631101953527971 -0.8452313952196604 0.3118686428163919
P 2.699048046544929 8.640002769549646 10.294961612386263 0.6336846266534829 2.0989696880067528 -0.880932705276012
