# total energy = -381174.47802909353 ev
CRYSTAL
PRIMVEC
9.18564667470859 0.00000000000000 0.00000000000000

0.00000000000000 9.18564667470859 0.00000000000000

0.00000000000000 0.00000000000000 13.44412240782841

PRIMCOORD
 96 1
Ni 8.8627249715606 4.668329198002299 2.34145524652477 -0.9733641210345558 -1.1912108636768324 -1.613437939043834
Ni 0.8995200363504225 2.261120339069399 1.23755549701345 -0.8230330047457503 -0.5976945817121191 0.5046124197434535
Ni 5.534526465017408 8.137205878697246 8.98601104287599 1.2911185332077637 -0.3056812830587574 0.9626853011644709
Ni 3.088177566903272 0.6421400622010682 4.82021477928971 -1.4819146994901509 -0.5529131637313703 2.09571235741172
Ni 8.119845007058537 8.52031163183778 9.6077203904216 -0.7741419354720023 -0.23234596469971597 0.5453345800531639
Ni 6.154300396872926 3.4871285600315156 7.878107270112124 1.3260783371124 -0.15028637909379924 -0.1470573306335403
Ni 0.7895862205980091 5.309597542362884 4.132454204393591 3.209404460775782 1.9576214919428478 1.3136090010007957
Ni 0.2207301636989403 7.205597623883597 5.786417096896237 0.5488767888784677 -0.3861287869825479 -1.6473749581109114
Ni 2.5957718076098337 0.20236989373521005 0.5253151745421157 -0.2962157667704834 0.5686467724165432 -0.2619766430819553
Ni 3.0249619485870864 8.753709720445155 9.473789992093016 -0.10310766452546757 0.021786242637156027 -0.18906684229610662
Ni 8.768057700074607 3.255696199747253 12.800618918762488 -0.15969455978157657 1.020090064336185 -0.8257030953787458
Ni 2.97673730514623 7.271412780122404 4.936156926332535 -0.4284311472951847 0.2406161751283082 1.8785251027303134
Ni 5.345384820619184 0.7278109116325905 7.365819179251498 0.8169916836476768 -0.48062145614549484 0.5422369149644468
Ni 1.8561160049835317 8.540611910314787 6.74336946860849 -0.28215620335362374 2.8332906348270757 0.30570210899436384
Ni 1.5289692095271312 1.8673316792009196 12.444376588430103 0.6029568585523228 -0.4040267503088913 -1.1078587845117371
Ni 0.9333443419775208 0.331329938813156 8.846527921316932 0.047870341318717556 -0.18975666927427964 -0.5045160033749053
Ni 2.091029725241906 3.823690643016845 2.4973668966160143 -0.09568514680915134 0.7218603524594666 0.06091277632497252
Ni 0.03732128120003805 3.3584927682704193 4.705187522625305 -0.840999873636816 -1.3060481579344023 0.6795284244604749
Ni 7.4618220437196445 3.176378143345006 1.2715534113569353 -0.8301678160183187 -0.7271048886878575 -0.5599081069919648
Ni 5.812970963421728 5.381714052011296 9.301732731377774 0.11953881349829736 1.1011608036662712 0.4773101323840747
Ni 8.365772317314166 0.9222205242238298 7.5836944440587395 -2.195028416105239 -0.6210383986443822 -1.2269702806646288
Ni 2.5881017928911447 3.417675887830312 7.266413032803382 -1.6345515810939977 0.6903067460229014 1.0540221983072557
Ni 1.3832481155184175 6.215972826599003 1.7713839286109916 -1.0001020512500323 1.7325450643213518 0.26045506423110626
Ni 0.44884007569128714 4.553967900699696 6.824961891051872 0.493828184643756 1.2635557930981465 -0.9373373093179858
P 5.934634849588232 7.828761059249528 13.044105602777693 0.24502047484359094 -0.592753949877392 -0.45725244240225127
Ni 8.954857004648561 1.5013204139543737 10.721821718791094 0.19299960169160957 0.4849941312918938 0.08942656749394921
P 7.486053778842877 6.459916037238781 10.195080931932404 0.3140908472786913 0.32851345046192454 0.2959635415503612
Ni 2.1149215914494617 2.1838506818075922 9.615585140843327 0.25397177049960773 -0.46553627967759825 -0.33095137047945583
P 8.756336815306886 1.139433503927817 13.244974561896093 -0.49097528857599315 -0.45006080974981844 0.15491873565948805
P 2.6541006620573455 5.169709333798922 5.5863555560937295 -0.12845745614416587 -0.30673800645804594 0.23671272630884393
P 3.30331459052771 1.2403378292988283 7.563246276675179 -1.6945732130632687 -0.5282354584790321 0.5414786966421836
Ni 5.717320827774178 7.087745780960513 3.0703280188776962 -0.9479989027968899 -0.4523159243325823 -0.01522710136239958
Ni 4.319862517321854 5.244829549810221 7.095565521715028 -0.17530269863247874 -0.6503129792387833 0.5149459404589778
Ni 1.4880563405965457 4.943687319226405 8.973051014412999 0.7553499995764797 0.2693850197308844 -0.33645533101682057
Ni 3.59438935269035 6.464646645119169 9.265406255679574 -1.0769384407837967 -1.5511671060290704 1.5905880310288543
Ni 6.583233339751827 0.6120037935913992 0.4884697098240275 0.9851608565591679 0.4647837177822899 0.5531147382192151
Ni 7.555919805130716 2.2936099702789816 3.48229691004106 -0.649354729090572 -0.4045348002935613 -0.33197389820669926
Ni 4.449674071818271 1.4429548169213828 9.64180189414705 0.6213649287458655 -0.12803013879876016 -0.2170270749544585
Ni 8.212923161722577 4.891430177029255 8.803574001763002 -0.04638218680896528 1.6322039067974277 -1.5014797661062722
Ni 0.07028305463302269 7.025981494770738 8.155688317757694 -0.5633006776132815 0.23689630307455972 0.35459112138558285
Ni 3.101818251762257 1.5089904286730622 2.697926299451759 -0.06322471228760079 1.1001475319104086 -1.4207561257029597
Ni 9.131056073311894 6.477570849561318 11.799179543117205 -0.3582950525997313 -0.3475483556061886 0.4220082744879764
Ni 3.481672286087921 2.84733910473645 11.371334180768473 0.42583973241892464 -0.8571654276530851 0.8299891243486093
Ni 8.592648596999064 0.4507754913813801 2.397342556167219 -0.5124820522995174 0.027882842453197137 -0.8744190725272102
Ni 6.662165599006547 5.427734140323428 12.124487372170394 0.7465401145943337 0.5579432699561101 -0.15948218666045438
Ni 3.5064827169324455 9.080084921606502 11.761804985168222 -0.6053148172615382 -0.3305325377744824 -0.34934838492940484
Ni 3.869802587792673 3.8976442819391948 9.240736365224505 -0.3661014360180275 0.3780663216893876 -0.18083802662841114
Ni 3.939062361420113 4.599106166960338 3.79664718153985 1.5654614111645555 -0.10112997197380647 -0.14494414094527938
Ni 3.951564026129257 7.706555219947213 7.4947084948523965 0.11610999032240649 1.4808890864391142 -2.89437258974006
Ni 6.732343937270955 2.030872927166826 11.996768307916993 1.1774896574359979 0.2800155028615371 -0.9964865659846321
Ni 4.747895266856527 1.434145782052853 12.774416862492956 -1.7555749495576214 -1.1796020757933106 0.2139198967840445
Ni 1.030721379142572 4.016267719157332 10.897980370610403 -0.07520965256361886 -0.8279335273711612 1.6461076613627135
Ni 7.423775096456401 8.166315192042784 4.117020481363243 0.3340554633260763 0.4267092795080715 0.09580778842994468
Ni 5.176212771428659 8.624430933438182 5.302294034934346 0.06357232543500664 -0.14766385386928763 -0.5956114739308451
Ni 3.162213876642949 5.004138057985314 11.53204533108788 0.42857718595474575 1.513216080706594 0.3237049733296877
Ni 3.0550908686796596 2.8898410904889915 0.4925655895402709 1.144656670066377 -0.045756123189192165 -0.3067151236399105
P 8.051889595215595 3.1709953545723697 6.614548126790727 -0.9958656445711817 -1.2174443434520645 0.3057154787308025
Ni 2.396029927300991 7.163077266838315 12.874763619129327 0.4561957190029627 -0.7976641869636584 -0.30838582647411406
P 3.7358023785516803 5.463888844434516 1.189905875035336 -0.35311427972974024 -1.4789558739721433 -1.5854216563365664
Ni 0.165371028722748 2.7772801798748477 8.490971758768362 -0.3727662496327129 0.7456808519178318 1.168552245737052
P 1.7634787613452392 6.400944187545389 10.636922463654626 0.8054250618559999 0.44872846409164013 0.23910230958694306
P 5.860194371408289 3.708576122711928 2.9338706492328117 0.8155076429029827 0.6883894743955306 0.1426113790470447
P 3.864502469837364 8.567011457981268 3.243448058877912 0.16498409031529004 1.3203872002648938 1.992848176355626
Ni 3.2925306416896976 6.637290868637435 2.8374893361342344 0.4047322610163481 -0.573516956024651 -0.9099913132048649
Ni 2.057511301638918 6.399051944393235 7.279064423548353 0.5486034806124229 -1.3829696509828053 -0.9202721263055829
Ni 1.1397733728434953 8.862816828024297 11.152275804708816 0.3429103426135449 -1.416695839590657 0.4641437702054458
Ni 5.28507186655582 3.596373452306202 13.06403018831818 -0.1702869905854422 2.3781534389956143 -0.6738357449510718
Ni 4.521459898197374 2.7644937601282433 6.521219203980797 0.84010770083985 -0.20895201125580787 -1.7043128089485355
Ni 6.597011809306358 3.9565334608152574 4.995056209419605 -0.4719781786482001 -0.5585276817046704 0.9795967322078291
Ni 7.314585318059931 7.834887885378109 1.54460869103616 0.2605918469192867 -1.5121051070306022 -0.608695303697997
Ni 4.749374155922047 6.951816585981885 11.33147214978258 -0.14998607424456106 -0.6688493474800739 0.5023130821863155
Ni 6.945946957951656 1.5636633958654387 9.395182904719785 -0.5337000811380291 -0.3054840794462868 0.09442504914980512
Ni 4.8326328546168895 2.031111753972438 4.286120882512084 0.32565618351878756 1.6832516174028624 -0.682321928045212
Ni 4.676917777357956 8.475742875652058 1.3302028448627494 -0.6214214930154136 -0.6034577094481414 -2.8503077382103625
Ni 1.6449288092980594 8.870266387230114 2.6982891324833616 -0.43061787053385836 -1.4007717121612326 0.5461617039401497
Ni 5.829872552741953 8.924057532371 11.057077602862655 -0.015411963679696038 2.0572242286388507 0.47326553000105587
Ni 6.259485233452211 5.421993111342373 1.3781565117357 -0.1319569846569921 -0.4878645108611533 0.09714399074286495
Ni 7.847260951038078 8.705925988030044 12.06319522820402 0.5393734773737227 -0.0571283695818758 -0.019878484091481893
Ni 7.487055014297174 5.9559455491659055 6.525185566083227 1.9256289981966517 -3.8290588345884444 -0.64526384685065
Ni 5.136760420270854 2.386614639772062 1.470208629700244 -0.08945304985651045 -1.2943727784790031 1.5698343434212705
Ni 7.896652171567885 3.659965682123545 10.526357593996616 -1.216415645077234 -0.4244364243134948 1.3897169970089678
Ni 6.654137344079441 1.3572619219385733 5.494491743879765 1.615109413208986 -0.13720692020202177 0.9370035801276508
Ni 1.5893280918223442 4.652897312101225 0.1478503268372071 -0.34750953194845313 -0.22391686009575631 -1.3092496955908357
Ni 5.4359828507634065 6.098084241090441 5.1410051074582865 -0.021006427048338015 0.605206830928764 0.43214870535608796
Ni 7.661315911576505 5.795821361649523 3.992796555553508 -0.49546032093054027 0.35880310258440146 0.03655903007095639
Ni 9.049900887635712 0.42204554523091026 5.056186686009871 0.38156070799589126 0.16835069279467782 -0.5818578717901786
Ni 2.5057524731869014 3.13842305254546 4.833000280471677 -0.6474027475705237 -1.1162986877489744 -0.08344129644479178
Ni 7.436680929605811 8.122756856957729 6.553808040171172 -0.909535456614369 2.79261861102901 0.6435334944231046
P 5.692841080198963 3.3035901599188002 10.159722623361569 0.4928635067376415 -0.7631620394217308 0.9274563027588479
Ni 1.010035303518037 1.780031296103415 6.505651370513451 1.5031694951038692 0.2091088485486463 -0.19421239105278812
P 0.7759997310526052 1.815846131298824 3.400583237065599 1.0112909779873165 -0.18014588565739298 0.20784283735202916
Ni 0.36115848826944036 8.164772003452677 0.2025361539345014 0.2015037825078788 0.2998698185833029 1.0991149768808361
P 0.1788004437152303 7.299024833109682 3.478720019344704 -0.10999127901917831 0.7627146674716672 -0.011710860679024994
P 8.688353846524832 5.970642583357405 0.5820898176238768 -0.6890019111685489 0.24106714662279774 -0.7755439580258514
P 5.901134797277983 6.774386640705012 7.365671290344945 -1.759488939900047 0.44135171201159473 0.29466513445391185
Ni 5.807046221513281 0.4124704274551486 2.8754554497094245 1.4983119099012518 0.6168261603352474 0.9115709989871591
