# total energy = -340888.47652293125 ev
CRYSTAL
PRIMVEC
9.12403313787542 0.00000000000000 0.00000000000000

0.00000000000000 9.12403313787542 0.00000000000000

0.00000000000000 0.00000000000000 13.35394476868724

PRIMCOORD
 96 1
Ni 6.706812214946321 1.875828235497311 11.294766621034727 0.27445086428956605 -0.67452788592209 0.4004079226093814
Ni 5.106903867721288 0.4554388912719268 5.678805568485713 -2.916225938169726 -0.6183724217764448 1.5810811199796835
Ni 2.9235592169490565 1.868237039867453 4.830896388730204 -0.04670871691044859 -2.116852996045077 -1.1467012113002317
Ni 3.60989636702695 4.446205250960583 4.827571591028858 0.6951836144992285 0.6872029102865971 -0.8242121126555161
Ni 3.5879804392590184 2.754737230483597 2.6734868023544522 1.1868019359758593 0.31504601210310906 0.01972216101927571
Ni 5.005855199932013 4.76457926575417 2.2166482843882704 -0.27575852735739603 0.2490457939529001 1.7076835251929816
Ni 5.228189641168045 4.78122150232732 11.504223401799626 0.050512149816938814 -0.23281313414412164 -0.1572792654718646
Ni 5.590742224759436 8.257012829248918 12.380896096246396 -0.27930356439617704 0.03532850009796496 1.0954748090250876
Ni 1.8618775887208052 6.746228038409045 0.16438405671261944 0.5523971433269003 0.8221572870090162 0.07487309515980653
Ni 2.400122555784005 1.5765416981768765 0.09740270411897348 0.9521098396414698 1.3743361436775234 0.009390697186280602
Ni 8.160416689665619 8.872520109525626 6.851575038243063 0.3959529721618213 -0.5080646399581121 0.23580229867943261
Ni 8.817027739548706 2.581672568575969 1.276108269882075 -0.2751124091329649 0.2349641190488534 -0.1513428453827716
Ni 7.032622316805214 0.8039003179753935 4.747594877935684 2.6870285464013204 1.0771117331368676 -2.020124495573076
Ni 0.9589632623617353 7.390567263626077 2.5160169380075854 0.9909085576762224 -0.6370214043361997 -0.05580219457128455
Ni 7.742864433890593 3.900113615337674 3.6293889515745805 1.3882892634235058 0.06188336776835794 0.004752684193636976
Ni 7.645118666122962 3.7349412421558004 12.730222481298071 0.2325557667176769 0.5852283309243081 -0.31913098080576
Ni 7.991339230270307 7.330366892513334 9.29876574414215 0.7500422142103211 -0.22348800008845382 -0.5521220352886427
Ni 7.157484711269885 0.8393043040361361 0.308715313238578 -0.3464893182140549 -0.28728246883659553 -0.381128248444163
Ni 1.8450802435831029 6.9525954215293915 9.0681694908354 0.15487297002321715 -2.1571313839491495 -0.39229583502520826
Ni 0.5932783981697075 4.979130906662957 1.2510299522039168 -0.7312227675109729 0.11627454092472878 0.726640033236297
Ni 6.761574662266522 2.1753793697808055 6.926224228345522 -0.45216628612859544 -0.3716218516156245 -0.16943749810095335
Ni 3.1845339388250515 4.7858656352306825 0.31022716554130325 1.180147149663503 -1.0777210845860923 -0.46774794261693636
Ni 6.20371302380405 5.587028743243388 4.470072809431912 0.3238199016409971 0.9012135670122351 0.4449368582596918
Ni 5.184859607458676 2.881908005350136 9.648933365055694 0.8690976603142969 0.016338589259023473 -0.234335484325919
P 0.20813014633631788 5.409767026059637 12.532556688649114 -0.3597999192800319 1.549538312176396 -0.5145780155965977
P 3.931281312779495 6.489404751643128 12.466255076529537 0.18922625069210636 0.17463292625896376 0.3607581694282432
P 2.4315639742220947 8.730312927930713 1.2503967442992148 0.47257775990541195 -0.40594196505373314 -0.11010929265428133
P 6.726264653747832 7.896750377992977 5.521749022843213 -1.0793030843612315 -0.7333632108927435 1.0737461590987443
P 4.6988862266496305 1.5279288492395167 12.170024177930785 -0.1454789304028269 -0.7221789121411498 1.1494882871270655
P 4.197967679444302 6.335701288204922 8.299342868918586 0.3879912941125834 0.07954813203797267 0.11789510724728727
P 4.997524957612228 1.1504858434510972 3.538888578578188 0.5724990562830979 0.47541420091294256 0.12408298122555406
P 0.5604665499436314 5.403690419942466 3.720729648029518 -0.6511251907274334 1.247137242530807 -0.7532617495888833
Ni 0.8998012062281715 9.119352579927726 4.474799971037476 1.7990764723846822 2.2429661203267823 0.008516522111443398
Ni 2.154284605001681 6.433684280835985 4.8781296838463675 0.7223403774196785 0.649482770028004 -0.9496431232685322
Ni 6.222371671716381 5.5006606448873345 9.34744063650533 0.05494961676300214 0.8914387470136583 0.54633833872733
Ni 8.841845109877088 2.3775861937578644 10.002358265824837 -0.6697176090176402 0.23430823063240938 -0.2158993891079185
Ni 2.7801476629705615 5.24920228964829 7.126292378938399 -1.343867542775021 0.30241958158835014 -0.7333480413840918
Ni 0.47699989414802946 9.075885685720221 9.225332787666446 -0.23087709346367336 0.4787946873494012 -0.6837486331894095
Ni 1.684624995570263 1.4104934178069422 11.106288729827195 -0.3829511605855147 -0.45234909156336295 0.49090509745969
Ni 4.304572883457836 7.460274877342561 1.4119523507170553 -0.1122368805202454 -0.3690507484543386 -0.3410172393558901
Ni 5.850001628392145 8.06509791473157 8.156976929145838 -0.2583855832965873 -0.5353029068487749 -0.21779480635841844
Ni 5.525687867979523 3.1127369215037146 4.369691108470211 0.1268410035866654 -0.49615503300471975 0.8733304674487218
Ni 1.1673926769873073 7.378715144487633 6.743181523720572 -0.7114808089973553 0.5893557228291205 0.6656958894527567
Ni 5.244996110338957 4.6128465934891 7.412588117775911 -0.71340579393421 -1.3981363314209148 -0.5637547344315645
Ni 0.7234464179453914 7.199856721492313 11.32967334728558 0.6605251438850948 0.24788648353747633 0.002074108920209331
Ni 4.557399843678226 0.47911210783590463 10.062744767215044 0.7520003663779564 -0.6592557902543678 0.9652188662196021
Ni 8.56169167019585 7.628832266844961 4.515062504781992 -1.4992038255879019 -2.8375666364946097 0.3423130753491782
Ni 7.073379373149655 6.046095350119199 6.948725006642148 0.25272015748069376 2.448709909057938 0.05288759202765085
Ni 2.641124768965578 5.412650220553669 2.5124777255258284 -0.31748418923095645 0.23215441751420018 1.4036510905915567
Ni 2.5007423940124593 5.318645306401713 11.117118957246236 -0.7092930573174172 0.6846711450036789 0.478698270980853
Ni 1.2382042987220763 3.164990259691451 3.719674909790562 -0.7155776047745482 1.356129647971826 -0.816144248045717
Ni 1.470429191956626 1.2891893962937666 2.302620399703054 0.3730763246739639 -1.5135125289010902 0.5357402514965096
Ni 1.222063883975419 3.2965953146975466 7.996542666409379 -0.324931389537621 0.09354161810358728 -1.2787363574933268
Ni 3.7060363049498024 2.8466801131303265 6.622728774505793 0.717202799082797 0.5091650721111425 1.8776581267443275
Ni 4.723621480679131 6.93903710818087 6.199769616651135 -0.4778027557497771 -0.05391526196121683 -1.1571391188041038
Ni 0.6319369268760876 -0.046592787984895176 0.0940295490416195 -0.43759970116833025 0.8099702580245212 -0.4755949494651808
P 0.10352401799886737 5.8467534725697545 8.107366823378738 0.1275663117884642 1.0574821318313983 -0.5132284435472386
P 8.885603973147278 1.5451094037719957 7.821004479098802 -0.2895653513335013 1.0158960808594957 -0.3430820923047188
P 1.6499445453429913 3.3273615546781725 10.090307559136003 0.9983490731146676 0.8865613643166989 1.072034061503644
P 4.376826102439622 6.314706887791097 3.6980546006986006 -1.8266358700601897 0.03632377413169873 -0.4353013920524567
P 7.111463087763871 3.793179946128617 10.30908545222718 -0.31508997796716703 0.4747387721124726 0.17320570689413398
P 6.408638809677379 8.129677821784618 10.444120231316527 -0.3739556419551237 0.04975187461214658 -0.9290807257361483
P 2.6570279588488024 8.641089007180256 5.641440827688364 1.2412661284620108 -0.09235685376686675 0.06412099884962505
P 7.008845086262654 4.294463454662304 1.5290666161806745 1.1266838876380403 -0.3923739965613114 0.044630751335497335
Ni 5.397732426257012 3.3135751404994283 0.47045704993388143 -0.933189091477567 -1.4381072153868975 -1.6113951975821927
Ni 1.8443229488267587 1.0066545839449896 6.995597902446558 -1.4929969254462416 0.00584386037528671 -0.5108195769954299
Ni 7.140650869999346 0.7013169878003702 8.940893789586958 -0.3425969251381842 0.6148667226160314 1.047875976200202
Ni 3.034689941434237 1.788611602052825 8.865750989287895 -0.9608798725246162 -0.10503162102105781 0.48454753067277834
Ni 6.531639901367422 2.0724420271172748 2.3299295435008043 0.8029555172695848 -0.08677396036245057 0.2818654115860823
Ni 4.303751720469029 7.061134920583226 10.350816042915019 0.013432471355822028 0.5019032483424065 0.061775638545900055
Ni 8.462723281978219 7.245987833396835 0.3809119632144677 -0.08009680545259108 -0.88125692138465 -0.7050412240195987
Ni 7.957927020659081 4.071846168396793 7.981385822442648 -0.0918068948006677 -0.8640246166667637 1.0605006069427478
Ni 2.973002352908432 8.692712787076573 12.301373760007028 0.9652918855493827 -0.7113054597617556 -0.5494025794749506
Ni -0.177095659779348 5.234695076846036 10.154700423508265 0.4665444092271384 -1.6257895186306517 0.10898314946963811
Ni 8.860549377955465 2.683086197693603 5.69086389077468 0.2901240520504487 -0.3425974393588164 0.27431999513865657
Ni 3.4841033211749637 3.1607749563489094 11.514492501176315 0.32799717294713837 -0.71964791818918 0.15892965659109404
Ni 1.3246088932109645 3.6038653810758245 12.481919216742686 -1.2143173677873087 -0.8370704566754229 0.24534391962128066
Ni 3.441439341889849 8.437805547284539 7.929225549393643 -0.1880432861275987 0.6549422504806786 -0.24471297090550115
Ni 5.814262790312634 7.980235281854998 3.442887325960111 0.07350295428515728 0.33885211338377125 0.19818063167191677
Ni 3.3966129667342093 8.939864598640987 3.2584960892268757 -0.9862116664211854 -0.7899426499496847 0.9640739539818814
Ni 3.3639398038129094 4.223852561658132 9.18417518626413 0.47117162358650466 1.0248612604725833 -0.5953890735073939
Ni 7.450904495236956 6.211623560596222 11.77764512977929 -1.0829324535837026 0.20739212296785572 -0.7128000420294112
Ni 8.27028829756796 8.782766994849046 2.329796332615953 -0.006303830730840756 2.0019390829133004 0.7836205643863988
Ni 4.531414597099097 0.9283338828792435 1.2046442797728651 0.6121176991159846 -0.42635318172023345 -0.6455950049378236
Ni 5.768633500234605 5.831397724679069 0.25988257510088214 0.9835757714602351 0.8867724518862405 -0.05184732368859458
Ni 8.226520310264561 8.805403721240486 11.486382267262819 -0.7560398265546527 1.1320742054156763 0.04758083510275676
Ni 0.034450524590405984 5.208755450432952 6.03892112280699 0.8526240881393057 -0.49170548187379837 -1.295394277764982
Ni 7.739570657902156 6.285382245057486 2.435519242618181 -0.2747293147619333 -1.3592237135161171 0.5939867938432286
P 8.792922043810623 1.6617419202821817 3.4210936602371804 -1.9892558310186774 -0.30005493801091554 0.7545262181236038
P 1.9382822428126691 3.309140860359872 1.5496449606801717 -0.18785405293492807 -0.04591450314392738 -1.6872368273028557
P 4.918319225325212 1.4802740237890981 7.886306097178676 0.49707805903962143 -1.2456521733448482 0.20198329324745862
P 8.809546032317355 1.7843780506438656 12.3491006653198 0.08773760982730051 -0.8006633788012986 0.26487967566136317
P 6.637360074159687 7.933146146463534 1.3167020060320764 -1.914093486753226 7.430488136116236e-05 -1.2599228243312495
P 1.8196698110961382 3.713070934553914 5.677189702204407 -0.1714704693705821 -0.2279393509915881 1.7765703208623662
P 6.881774675761413 4.146781853142014 5.971857653914464 0.5253293405758307 -0.889428658562165 -1.0468228523453391
P 2.2920118862909913 8.626207709016434 10.16383449315376 1.7130285915549788 1.0911676970093014 0.7862029804015944
