# total energy = -340868.54474453215 ev
CRYSTAL
PRIMVEC
9.31098164302883 0.00000000000000 0.00000000000000

0.00000000000000 9.31098164302883 0.00000000000000

0.00000000000000 0.00000000000000 13.62756280301755

PRIMCOORD
 96 1
Ni 4.78995061445133 8.36675483221559 11.678330156437122 -0.25019661972789164 -2.2722931514256737 -0.044224259925698034
Ni 4.227269382721116 3.2201098289246923 4.380007653726967 -0.2802227337763367 -0.22561610217505013 -1.1786569382712218
Ni 3.363340656759381 2.0738349010999215 9.682751261233463 1.6602155615190055 -1.2699622108451225 -0.652401743447012
Ni 1.2597013039986107 7.4503307927693605 12.910821048210282 0.9860000646310115 0.7773193047587195 0.4836692418328832
Ni 8.37195967085302 0.4671580107121004 5.028515650380446 -0.7626336777220866 -0.2692626352204072 0.22252486484423611
Ni 6.797649614224476 4.089178216653623 8.074699138883659 0.2772754782225547 -0.2690888286467043 0.7522111968371819
Ni 3.3349049193734914 5.957845641231581 1.562318443603238 0.36979148327510514 1.6484545643283348 0.7035188738378013
Ni 5.0675947706759 5.733497542897263 4.701141542165687 -0.1819561993932544 -0.42096157839101694 0.25412783646149784
Ni 1.1499900094282323 1.1575225934312396 10.206240709792528 0.34052667287271676 -0.07601415074278521 0.9873419233708867
Ni 1.2856323873711393 0.238640454878961 6.0984842918271625 -0.38533920120171705 0.3085069254330106 0.32548263405540073
Ni 2.393024656609311 8.68707121648192 8.348681286099103 0.36692110370584546 0.569896071442612 0.9579483007001179
Ni 1.0532582230163117 8.783551606394358 3.551015592408105 0.2129541904366655 0.5587302846337797 1.213546036838923
Ni 1.4171127566003943 7.27574989035108 1.8164858911687445 -0.17004427844701683 -0.5994447316340064 -0.7447660534130464
Ni 7.00358990220781 0.9860888027472198 2.9788622992362854 -2.4898444743147183 -2.0104028974099375 0.47741503339305524
Ni 1.8022521938073137 0.27851007750056506 1.291243184800326 -1.1062258768940048 -0.8325152332045728 -1.4115168664928788
Ni 4.739671314554864 3.4794299736314405 6.537972858927722 0.14506086902880178 -0.2970732296747723 1.150041588527374
Ni 6.41752879602574 6.371793255082882 9.213295300296464 -1.240597127419444 -1.0614143770062687 -0.15308913864991697
Ni 5.296300408334577 8.974184640853657 1.4208781175037517 0.29958776856650987 1.631736737353022 0.06039212793481212
Ni 6.429083724020464 8.64839339948749 8.569679293303283 0.1677696234802272 0.7397470029319002 -0.9688101831152864
Ni 7.012081517301435 3.7231262914444345 12.16110082086522 0.9208431683177045 0.6101250941659879 1.231217743087073
Ni 2.2958086991613507 6.6257502744673396 4.240951869979978 -0.28157693381138604 -0.22336073048197017 -0.11468199962662828
Ni 3.717763166122145 1.4415354609760287 1.096642741139937 0.12127122280837178 1.280038621244518 1.1977350379485951
Ni 1.068248903170628 2.7154825666119713 0.4591859483840721 0.008191020451224603 0.6496509201747521 -0.0729149429921712
Ni 1.132913669426359 8.099706572895126 10.47577965665416 0.08484871831527967 -0.8738693706713273 -0.1298507369472667
P 5.421346889373378 6.629577087848348 2.6353932284657806 0.1483534237371445 -0.11837050422180904 1.5785357278500105
P 9.079389420396277 1.0620477895167306 2.9769544791346583 0.6157992617326298 0.49180935444151425 -0.25375579783405977
P 4.642595021828838 1.2726156352868323 3.0672784481042186 0.6227990900892306 0.4160764823845738 0.49178441474084983
P 0.9879323770767569 2.740389442023646 5.568630787438609 -2.7484581144617115 -1.5246366638387099 0.5793500177666602
P 9.24789025191967 6.797398217724993 3.3513993230339705 -0.8752333408983894 -0.36083530252308177 0.2757266456781961
P 8.430991293324054 4.026263914912805 0.6709800504127597 0.15737696739199347 -0.15039796497099905 0.10235741662300436
P 1.234459233254293 1.0413867216518686 12.674396606919352 0.2724500318094533 0.511071802215552 -0.5071662965135588
P 3.1335456342696126 9.307657441926228 10.545539391966065 -0.06537981095739062 -0.47135262924905924 -0.18825823035188224
Ni 6.384958982870586 5.022855504749509 0.6494539923700492 1.8157205086992667 -1.9049470443672674 -0.4626499592687387
Ni 4.292129679587556 0.9697945851881803 12.590900380656102 -0.6051368969227773 1.327517897772404 -0.06632674825169223
Ni 3.7591411677406428 3.891710921800988 0.5062706505408188 0.03331301232983295 -1.1402287162020106 -1.6958474517900022
Ni 0.6379614479511221 4.095658659751389 11.483102152626174 -0.8123390153670139 -0.3572190459267332 -1.447239773815785
Ni 6.305573554922946 0.4156384880848563 10.703401496070624 1.3578530584208357 0.6953090843334992 0.12015844936016726
Ni 2.210650462707079 4.866449638145655 8.513261263328719 0.31366250149202113 1.044341223574066 -0.02580179155445234
Ni 5.425210946680235 6.886420511486122 0.5819586877497765 -0.775183232252323 1.6348613990249325 -1.9423488820544936
Ni 4.267939749748479 4.444271116681673 10.085418621043177 -0.29611626507814165 -0.8400449659227146 1.6967650785082649
Ni 5.316291085534154 2.5434528731143637 10.972204875396734 0.4997404363631329 -1.613785809301556 -0.6956178738231696
Ni 0.4895295058715885 1.5151015255097267 7.882073554391425 -0.41324826890715927 -0.644579933409748 0.08028680997621011
Ni 2.4090860996317933 2.3502313858085424 6.9704986740907655 2.0537712370932435 0.40558638148652726 1.0428900929498361
Ni 0.10462842979010428 3.774746372671472 7.97904649522322 -0.8121060734206014 0.6143401606886001 0.13242158299823648
Ni 3.546292131512276 8.465842296937474 3.0668696960180233 0.3538313604014229 -0.025474233011704518 0.14650660033639284
Ni 7.115079594237488 5.215397290408582 3.2354012537802417 0.34187033138480477 1.0792213232807026 0.23040786713673866
Ni 6.010555107289708 2.6784900372622205 0.8374734343328788 -0.8121207287086206 -0.03009861915759333 0.4512332327913648
Ni 7.862909692345703 7.715218904390569 10.15321560146283 0.9195123653214228 1.9968282440492966 1.1937619122334602
Ni 4.524783173386252 5.289214751441761 8.114791293962211 0.15247644476658256 1.6292790198411486 -2.160791863519872
Ni 5.477091735388218 0.42477907858640435 5.099242796666286 -0.06571328303740942 -0.015292150272380114 -1.0581146232090743
Ni 7.710777566233048 8.260693442378436 1.597327733901517 -0.166035671508256 -0.3858325958983678 0.6061838501300527
Ni 7.6412152237281425 2.8318046580205887 10.105968888228636 -0.35041744962386745 -1.3839834369593003 -1.3352638602664102
Ni 2.449616801937221 2.7682292765959478 11.893727608291723 1.1894753690429642 -0.5060694639049543 0.7456340578402965
Ni 8.637452996269278 8.631521901077788 7.629609085335375 0.03511895519032016 0.37843913164777404 0.07398452190726613
Ni 5.957882885157431 6.216541950180353 11.785007002148934 0.4530096079654972 -0.4621107989358171 0.008014128553728133
Ni 6.511830416275998 1.5149711717692542 7.141892427554498 -1.0235646531483467 -0.7787784058027492 0.7425824154981663
P 1.6235372156197687 3.0548492189501832 9.361004710214523 -1.5727003521151557 1.1255867979191194 0.11039982731150665
P 7.356196770185424 7.649613729007144 13.054536978179158 0.07452908155682648 -1.1790742283142983 -0.22200601622628863
P 8.351894505801745 0.9494500906930369 9.28902337472571 -1.1793881600102913 -1.8938550482191643 1.0970300693273494
P 6.664009097295964 4.373116596346713 5.990690128339874 0.8181013717720877 0.9961384386165941 -1.6083029318101139
P 6.764856337514225 8.237118037315872 6.11144424692455 0.5358801195084836 1.4529733338654525 0.0652103752590619
P 2.7038345288026235 4.04326576706298 2.271591767476033 -1.1680570512681883 -0.5709589654894877 1.0467230935426812
P 4.623135070572615 7.5335057901721605 8.276645946917808 -1.3533279168569725 -1.245391977704926 0.9225102716074821
P 3.055808250040801 4.935602297466218 6.2306983663956474 1.527914306148717 -1.2095821670951685 -0.7660517022647
Ni 8.875125109076158 6.260890154885328 0.6635778201502247 -1.1876056628240772 -0.03383314649936109 -0.2656929155912779
Ni 8.206792170693134 2.5548588254056916 6.196602483378821 1.522460225012681 0.8631260161118941 -0.10430245616451714
Ni 7.48554492465981 6.4170446249897 6.890450304263009 0.25811536035433613 -1.0663964036018925 0.07032789899128532
Ni 8.73160564081614 4.645481426082155 5.028679523654183 -0.9288251580819165 -0.28597994797508813 -1.0973781966953873
Ni 1.93075304896863 3.965286297316148 4.289179960660296 0.5904296726195897 1.955204397860923 0.42133824500414535
Ni 1.7193472148669207 2.102363748300434 2.7687935220725635 -1.177383470875437 0.5219282853140818 -1.5595147066628174
Ni 0.3376040835473969 4.760211339660717 2.557334615376519 0.6317077054327701 0.3479373635144911 -0.46169710843716616
Ni 6.508143267616925 2.653676271665169 4.59075799473373 -0.21113384939847507 0.5842052889764326 0.22675175844139017
Ni 8.562611327275244 1.351740355753528 11.646128127049728 -0.6866562937545078 -0.23685310854145017 0.7762060170898825
Ni 7.875302608672035 3.065175097391883 2.7068429069130953 0.547389919920296 1.3278634540372807 0.3709824182594127
Ni 1.5157532942120882 5.081998858998091 -0.15472337225361527 -0.5090815112584007 -0.6321100830775114 0.6175239577332203
Ni 0.9883886151684099 5.395555470722784 6.395782998820519 0.8121081303031304 0.4167632240389532 0.37300381956481565
Ni 3.6545043580672227 6.732230658470297 10.265288160932048 -0.19870667937871586 0.614066081091607 -0.8192359995971634
Ni 9.389938585108647 7.556531847328448 5.538623356381882 -0.749799759182212 -0.8303359661650667 -0.8706940582671392
Ni 3.06532407309528 7.06002376085086 6.550428158829852 0.8620677500507088 0.2068701890261147 0.8519265478516488
Ni -0.12108838281917284 5.961923851112071 9.143167781216796 1.4270378449466135 0.9918297839389112 -0.4613739207697925
Ni 2.7886110150169405 1.3867589570332692 4.509374430164279 0.8482303299469843 0.3532492626457078 1.1373349395939831
Ni 7.06062897464591 7.669110924189218 3.976590759909537 -0.023842868055868615 -0.11714640200672083 0.0060004405578090204
Ni 8.832741521459731 6.1947914974844025 11.753063818046192 -1.1957599165000954 0.10975499463865614 0.18865983666567507
Ni 8.185386224311287 1.6096266093150802 1.0501166978709289 0.160457148979214 -0.22888423140336067 -2.0734494322484616
Ni 4.987092024952783 4.372734846106758 2.4943486190784423 0.15474904285084318 0.03642456137562114 0.42267701842022687
Ni 4.479429382683349 0.0696349681603111 7.234437065602818 -0.8289984783005658 0.4825096743071432 -0.717396660261158
Ni 9.006326148861545 9.143700369356441 13.518746201062145 0.1266427715329303 -1.4555680911758222 -0.8329191535112106
Ni 3.4016274125323926 6.1978548103855005 12.728020411357077 1.2188435377924363 0.2580729371521749 -0.6259715742799413
P 6.41510794084554 1.0943103402836287 13.085512751307965 0.7706457493932857 -0.2612215100834856 -0.988384248592472
P 3.351711240912958 8.123067825384059 0.4295025394822333 -0.2904341270916998 -0.1692678052923085 -0.07057729599793006
P 5.312846022393099 2.5527824765395963 8.682447383087736 -0.11386593148323615 0.04725430500127346 0.09103993472765612
P 3.032130424182151 8.802089770485813 5.251763190705919 1.4774471506371007 -1.9667388808630835 -0.42305985568094234
P 4.759010223052079 4.009392416503102 12.30477578251566 0.15539387552369366 1.8763836309072783 -0.3338436044255863
P 1.676097705974499 6.05755694171144 11.121903110955142 0.44972579500790294 -0.3149688790082705 0.3576800447235517
P 7.719771974325637 4.856924504109713 10.11831524964766 -0.8761334841151557 1.176157825998452 1.3793893898307148
P 1.0458839256981636 7.202993881204604 7.536873572167077 -1.0458777148232503 0.37029876192882677 0.7634734000145627
