# total energy = -340870.9630799453 ev
CRYSTAL
PRIMVEC
9.22019973454773 0.00000000000000 0.00000000000000
0.00000000000000 9.22019973454773 0.00000000000000
0.00000000000000 0.00000000000000 13.49469430358327
PRIMCOORD
 96 1
Ni 3.75680717713043 0.34693582367488945 13.467637491041206 -0.26797296987470626 -0.626566784661779 0.26853578435671166
Ni 0.05813796810289242 8.222896643096195 1.5833055706580017 -1.0414430760906643 -0.7040073834384457 -1.4326605904500294
Ni 3.3490807339493966 7.626082348062951 2.690801822824754 0.19496649560999327 0.5206974982307743 0.3799421985558618
Ni 1.6530158111843247 7.175823124474552 13.585917898623658 2.056579395966 0.8285981575383536 -0.2743539337003856
Ni 8.935627286553762 5.9782114082134 8.671878869050426 -0.8371478468805776 0.2145991822392562 -0.7257067227887503
Ni 9.331210726960789 8.57916515272997 11.34878124109172 0.8733057848583734 -1.739522524080449 -0.4549057965469456
Ni 3.2722672517092577 8.93264916210729 9.091172974555127 1.4447799994213828 -1.8682491747256018 -0.23176849492969118
Ni 8.67574674275103 4.3651928225671535 3.9337169894504393 -1.0112917493182647 1.2230161811128872 0.9762861797773573
Ni 5.889596070581666 8.412371743328444 13.634769281765287 -0.5402592224127857 -0.7124997371801729 -1.7785528985100338
Ni 5.222311790581265 4.790714250830825 0.6252613766267509 0.2580387414801298 0.19921318670148916 0.12679523795039452
Ni 6.421057591383954 4.749499958955489 5.3463815614452646 0.6405960090613354 1.0525379004522453 -0.8697196101690119
Ni 4.905524175312186 0.5236013007074944 2.1726588802358724 -0.6448462996972572 2.111634427958615 -1.7953028642748632
Ni 7.371706263376455 6.341256764497817 1.685528078748264 -1.3457539611644564 0.4913342145773086 -0.5399907992427475
Ni 2.5223146627705435 1.9021917033388989 1.3472076095092387 -1.1997312424430178 0.5684251433240405 -0.6593342089007871
Ni 2.4616088691000266 4.5654278956447065 0.6781595053397657 -0.15650536342031757 0.015232757789354411 -0.4158342844667806
Ni 3.031712246110263 0.817150325094561 3.3155247397992635 -1.9712887050172951 -0.3055157040151706 2.3677409854130382
Ni 0.8689106811862297 1.6408082670136437 10.978635409153345 -2.3345413587326185 1.2948995975167505 -0.6268717174967074
Ni 6.688609341191222 8.085368146986015 11.152528372188877 0.6453234964439919 0.7051234993207598 -0.001034611912101444
Ni 5.870943606943231 8.106242678709899 3.0713655582060695 1.6882575552578858 -3.0927290848682087 1.5189714951331326
Ni 8.810011288229473 0.36781773155839287 6.608419421885143 -2.452378616158777 -2.2822739167874695 -0.4378863791708136
Ni 6.7344337328289 6.181581349129346 12.581426949486811 -1.3529923878944248 -0.6009184879660554 0.8137225259781019
Ni 2.7483386339186375 0.5643721009856928 10.976867896904462 1.5608521945273184 -0.11559885501394285 2.040430297009963
Ni 8.775361778415713 5.768885218404508 6.027472168213928 -0.36546020288960285 0.017067497005248025 0.28249790296375865
Ni 5.660520213390901 5.24080751082778 8.113374503042241 -2.338410611880037 1.1248437491055079 0.8712481309983963
P 8.105394420353628 7.7225256350911415 13.226675874643172 0.08880873140429221 1.4445830529192283 -0.8592842737683009
P 4.202502401954111 6.296077786826867 4.71554565218589 -1.3691258031211775 -0.38569221366576156 -0.41622663480919286
P 4.228014694038911 2.9115638261041106 0.34372442818044213 -0.9697442648937815 -0.5043751069216669 -0.3796892020047912
P 4.702993272552985 8.632623869574086 11.73838630412694 -0.8785762892286935 -0.6471731480582209 -0.9720649426071579
P 0.5292274664574563 2.6655504623865034 13.446531532309253 0.8406985403463134 -1.1310192817886005 -0.27774470454948935
P 5.058902194405298 6.870219611228914 1.3488866078426838 -0.9719451291998423 -0.659360177042716 0.4188609871082464
P 7.192142877633242 6.127338915325633 3.831913078418598 0.0905164581240183 0.4146785735957826 0.5450520158157387
P 3.520078554334179 5.6717504164119665 8.892639028289878 -0.3221669394186064 -3.678660612507129 2.066609783618808
Ni 1.7498002455949284 5.44609525324486 7.574909318681005 0.5358256121214643 0.64358028850064 -0.09906434769402939
Ni 0.9459740308334876 7.7135912617517235 7.080598747823525 0.14244914243756757 0.11634498915134801 2.0354351577882173
Ni 6.054278054292039 3.032495963069861 9.94749255127045 1.1447042354748609 1.440201893132397 1.3569364601438372
Ni 8.383650821809054 6.297940267130853 10.91429224677034 2.60622108803495 0.977105590354859 1.1300893137751635
Ni 5.867449151323376 2.5833984846215725 4.265483740867319 0.6848578070931883 -0.6544915360965051 0.62273404117925
Ni 1.9962377384906715 4.192646008662224 10.235792516068114 1.3473652715156343 0.36023237883176024 -0.33667310345458146
Ni 3.921350857847934 4.481192152787197 6.099102054281289 0.5246037752637159 1.475756650308555 -0.7825036771731363
Ni -0.037403583411783944 6.892320429489581 3.276079804212715 0.08733240396908186 -0.9471661224829494 2.1266653541498086
Ni 8.013008021116299 2.481211013289504 5.78997919087708 -0.9560158595640953 1.3657512302219899 -0.15752994803009
Ni 3.6860144851799097 5.371734344078288 2.681584389359928 0.17479207754464735 -0.2431980769228715 0.46188042809256585
Ni 5.56019522236282 6.907321694116241 6.232335781452872 1.5714554239644614 0.9902141027123592 0.1344447840758523
Ni 8.979939565469392 3.3048975378271135 9.571017052358378 -0.8135381778814376 0.44013686576788713 0.6916632600507958
Ni 8.473971896352856 0.36449384962974446 3.623797500807297 1.1119419534421753 -1.136194912452269 1.7084728538634961
Ni 2.518515940566374 2.783688878896274 12.403553626316475 0.24814590784645002 -0.15557642384814496 -0.2123479243112343
Ni 3.3737447676779255 8.289531025061084 5.390253114823614 1.183659790802452 1.2537223519474925 -0.5928886756830434
Ni 1.426466288663324 0.4945853328033152 13.05260772781667 -1.003600294211278 0.26655732047410224 0.3354297179657836
Ni 2.6345890323826158 3.1736940985908655 7.5526831057068025 -0.9324331871481489 -0.555925725305449 0.6054762825400669
Ni 7.356400732165481 1.7328627390680846 8.263300479433312 -0.3146541759813291 0.04698176806617715 -0.0811689554708473
Ni 4.1054505817572915 1.952893580525134 5.903644888597427 0.15976012291218938 -0.8484619863418162 0.05637426502467065
Ni 2.543456580280643 0.5901490127968507 7.2477434468269415 -0.38036925879095135 -0.07149286583366397 -1.7044747884476965
Ni 4.711494296514744 6.6891348925641285 10.291782177681755 0.2712398135514361 0.30964129614777 1.0964302309598213
Ni 5.524162682620356 0.6875945355133742 9.857590995805023 0.36180537974583493 -1.2787569263186171 -0.37431919594212953
Ni 4.293413569267491 4.644749272155559 11.83884129996832 -0.034328598078540884 -1.6481552879203614 -0.6822005719759993
Ni 1.8649789780572759 6.790086857159889 9.72003944919603 -0.6296436238148897 0.3410288093201159 0.98960835080756
P 0.41667003671997643 3.8157426924922078 7.424254024507532 -0.46257308328421626 -0.4009198292487934 -0.4200832895511217
P 6.949236721155453 5.235644199093958 10.034829969248062 -2.1119200775198337 -1.9083591553726102 -1.317136040317448
P 1.4679571865244 5.8985027833225105 11.753702899577343 0.3642731245600372 0.15040002185352808 0.025748826829329847
P 1.3122003559539202 5.503546316483164 2.3009533465220824 0.8521648891147001 0.5313845456309751 0.26567774608262634
P 5.00886417158484 9.045458303291793 7.7930776798340675 -0.597314572664881 0.8296399685393067 -1.1616817438694638
P 5.7136746636507025 3.3925539747082802 6.67633817764382 0.5592043960567208 -1.904401970497075 0.9691786221982986
P 5.118999454907184 0.5490075604977601 4.330636436768591 -0.45019630688641826 -0.6176630544142458 0.8055980970987544
P 2.7570056214718397 2.8972909572399006 4.513880526162058 -0.6635585313947798 -0.21587779184136371 -0.22937428366590173
Ni 9.216585206469922 1.2406792682409493 1.610362246163186 1.258340053225162 2.1673751731643445 -1.4964571160807
Ni 8.168156318518148 8.925632590269005 9.225593341405537 0.8604818936208277 -0.14670740349328928 -0.1850376665320555
Ni 7.010901415576536 3.85399730032012 11.975461606425318 -0.3752689614499085 -0.565182982237659 -0.6118477332840495
Ni 3.9466234247450918 6.6811317593767034 12.858878427523734 0.3858133126246581 1.0934660061251749 0.3217013126360976
Ni 1.6159782696936706 4.3901795632790455 5.442761229096734 -1.5958585353991743 -0.43846513449241903 -0.46636108957173883
Ni 6.270104484765833 4.261188971928722 2.767100817931416 1.0545958114225387 0.2195657822159122 -0.3977794838475988
Ni 7.5066070026221015 8.042282154607168 4.98612715955697 -0.16314420889307385 -1.3680734505972634 0.6507433819079825
Ni 3.64113055389375 6.960992475549425 7.46228273744709 -0.20964183823398086 2.550221689851195 -2.0288436206136287
Ni 9.167847231782444 5.836008270944205 13.591046173599285 -1.0996222555345578 -1.3168233941730356 0.31154314115617315
Ni 8.039534535148812 0.8558014015020345 12.49701786687824 -0.2933399878845851 0.36498814834919074 2.598420618153925
Ni 0.9658251204101315 1.8528636358818416 5.779858177858834 2.8293486194601916 1.0926411962310343 -1.6511123136661565
Ni 4.726873589321917 2.4045358340422354 8.313811498489386 -0.9196033823733324 -1.4556992174370478 -1.240634922635915
Ni 6.284239050637173 7.736890705950598 8.79775764306117 -0.07380814423040191 -1.6685173965164812 -0.8032280542046812
Ni 6.427465630053608 0.650259181578073 6.220122705162476 -1.2862383222973268 0.20469169331755716 -0.1376416937465952
Ni 1.6219898397837642 6.787929330471114 5.087513395550343 0.5125144481993495 -1.0611912052518693 -1.218528834765495
Ni 0.20550902720567268 4.117151014954114 11.869554706604994 0.36930554477762206 -0.5941906823239187 0.002513767560789219
Ni 7.203963173423887 0.181167700460508 1.5022157598783146 1.8635031754001843 -0.6779137716751873 2.018494159058504
Ni 9.224994028436432 3.882211110865652 1.7421649983685379 -0.3189859705874636 -0.7268997146555868 -1.3908495679515143
Ni 7.498852814821842 4.111194766061169 7.872075427341605 0.9343090640146231 -0.7079468277021679 -0.839986087660321
Ni 4.930261970636912 1.6529697101867011 11.900511526509119 0.46611272100635853 1.5190920798713967 0.5534081010899179
Ni 0.6236045067721653 1.7186267510019733 8.012002097348155 0.14649734436501222 0.1407776682724156 2.805022126899685
Ni 0.5921073831758935 2.4740561384583497 3.535407136043965 1.717047997127017 -0.7964987059006476 0.7988260684822436
Ni 3.991027905655968 3.023211222148505 2.8395669760956666 0.8367051029162041 0.3364306484264722 -1.01025868006806
Ni 6.086659395022728 1.7874555404537362 0.6230826434790682 -0.47799121761149943 2.560559067221461 -0.8670484910947519
P 7.599961522809523 2.099596175162375 2.914989130227531 -0.6613345271602674 1.6547393688957825 -0.41623460522899286
P 1.114399415550883 -0.39657092377611863 9.23167959511178 0.30491740830953945 0.8999791803845016 -0.03749851116609026
P 1.2221097863982366 8.923853091760742 5.253606069787994 0.08741596482182365 0.39572620086299587 -0.5351558397479493
P 2.033810051553757 8.854443429738923 1.4818925960860068 1.4272155081750582 1.579002383073784 0.3046358725133786
P 7.413492207622322 4.363699150244154 0.4709539614215511 -0.0985627254672625 0.3028314723147882 0.6462112983655839
P 7.757350328695871 7.396434838501657 7.1878001636571165 0.6395202594986534 0.2849443076217222 -0.24407250910802483
P 7.66911301924465 1.4612817620685292 10.584347406779536 -0.540293932305463 1.1913823562576902 -2.0303934815992517
P 3.6867797617404587 2.503145867958726 10.299474590145199 -0.17274779342110894 0.8413338599374671 -0.19670764667081608
