# total energy = -340854.75797811896 ev
CRYSTAL
PRIMVEC
9.37544937136898 0.00000000000000 0.00000000000000
0.00000000000000 9.37544937136898 0.00000000000000
0.00000000000000 0.00000000000000 13.72191783993833
PRIMCOORD
 96 1
Ni 5.116632832319831 6.074353753124186 5.941109864345978 1.398525082218901 0.8622945213495342 -1.6858371187418515
Ni 5.080481098916455 1.9011536565187874 4.4436921286578155 0.516208095000853 -1.0055759298804101 0.5011668843970142
Ni 4.70265048269342 0.9345841864441765 10.697964508520625 0.474903322714795 -0.6034245422173609 0.8592215388511654
Ni 8.227125724238354 7.375478639462471 0.6048233750722265 0.6871993107421712 -1.2229169365308614 0.2209978866767484
Ni 8.718708669658264 1.1003027573184974 0.010256741790272972 0.06794782879488298 -1.6465118387796678 0.46238642119470685
Ni 5.999237651457214 8.072008911697159 0.978968502083419 -1.3793585365927794 1.017478337744951 0.52727926521335
Ni 2.5686294106473926 5.853852555532384 3.875316751194241 -0.4397162332907008 -0.5877223009907555 -0.4245575232723914
Ni 0.8790449609492972 1.0043544067868213 7.609723308526265 0.7144599462303374 -1.5204138840066137 -2.0024203934250933
Ni 2.8317889036192136 7.246669338313877 10.8686239412994 2.4039197493264406 1.5338777228210034 1.324480653607977
Ni 6.849028397225351 4.279386438028279 12.196658242890374 -1.3928326598198142 -0.5137735174174314 2.068537596769141
Ni 9.302096016915792 8.295191487855703 6.664707996930481 -0.8631869512568165 -0.03863828119748829 -0.855265639527211
Ni 9.008006915931073 5.51368312008771 12.906342270821364 0.020798681912906115 -0.46685397004775725 0.5576578775052073
Ni 1.9761010000941457 7.232034261591194 8.802047978111569 0.46761578791444625 -1.0093539088656036 -2.818455369586456
Ni 2.1891205889577585 8.776461438788138 6.150314582794177 1.4789923836370336 2.314250983914698 -0.1187469137246213
Ni 0.2846967756414873 3.1983502295022967 6.367629065089348 -2.6563082344993285 -2.2088650648780153 2.388615257758886
Ni 8.148475078097038 4.345924003371576 1.1714239799390016 -0.9252099299268324 1.4107463068754413 -0.2678012201835323
Ni 6.019441745203136 4.455682391066938 7.5404134227557424 -0.9209917780804266 -1.1490679117601954 -0.8938139321140542
Ni 4.246047339485125 3.616832794905061 5.549541401920669 1.0376455567214453 2.591266780717963 3.5576179607697953
Ni 7.377878754543192 1.7274265766524637 3.4112554378815934 -0.6590308187277554 -0.22962445200349485 -0.5886700096160055
Ni 7.955612705731676 6.340644646240386 3.637090328713327 -2.1715519302498536 -2.179232586723563 -1.8990553614731809
Ni 5.064814722745023 5.786114932648727 10.438084547795823 0.39241024911588546 -0.18378682484408992 -0.94272839842657
Ni 1.7071568547598035 6.721578536259199 6.210801233008186 1.2786815929959914 -2.870439990183863 -0.6409708759022509
Ni 1.610617850907481 4.368706345739367 11.709955218952945 -1.9432364268657691 1.5701942978638508 -3.218339044261251
Ni 8.479644081989004 1.0487565357801785 10.69745635915588 -0.531778181524968 -0.6167649680800088 -0.3321962986301505
P 9.337460212558307 8.672037681877663 11.867798412218647 0.4756592270442131 -0.08164255267315618 0.10868310173071606
P 5.968767440471486 6.431595882170402 8.246488840161069 -1.249420382138029 0.43770665905983974 0.43352758798148566
P 6.629370990091617 1.1128658596941516 1.3551574770930388 1.4446972098995894 -1.0886930102165637 0.5550515502306118
P 5.1275552310270225 8.298191631706608 12.104117868264334 -0.9420689104657001 1.1170785033377921 -1.0031634637841755
P 1.6953344128973407 5.187651862540413 13.64395013764463 0.6381380344391462 -0.33301699475923296 0.983645448355906
P 5.182064094618107 2.5681512627211553 8.634310872952563 0.3863938677184765 -0.5979838308177637 0.4547571867842233
P 2.4732342116382267 0.9906006223203401 0.21331772815879607 0.038194251681534216 0.8287359686677986 -0.5185441993331973
P 6.44488089416018 6.184412155204638 1.7760420326664321 0.2528335431301065 -1.3125967576861977 1.4760297014642838
Ni 4.797680039170756 9.1338535750269 5.2761598563218515 0.018502172569245554 -1.3538207973329912 -2.118773095885925
Ni 6.844490679650861 8.15539415985318 7.238325188228555 0.0894435367748137 -1.7161769073759734 -0.2378915771082935
Ni 1.0390341946133477 8.079396765930007 1.8138869722556605 -0.14738797450008165 -0.6051829196693641 -0.01446888304013637
Ni 4.715541725802767 0.4212708240941971 2.5875284418181717 0.26924206639511694 -0.0863103904624707 -0.46498812048361204
Ni 4.358833997379992 7.973557316139886 7.34096573463765 0.9297713240452699 -1.8206254022000514 -0.7386619973978376
Ni 0.37779780214966624 3.1425944311231797 0.11388077285549243 0.9174889071334907 0.4294449332716797 -0.4630209694549123
Ni 6.717162699528651 3.671491665688691 9.872151474935874 -1.8736963138831022 -0.17618253013427077 0.04710492390760274
Ni 3.628373973281502 5.504345172351776 7.399379472959676 -1.5368020955566501 -0.20540080356943982 1.5137375004277027
Ni 3.090616938906294 3.625111316843645 1.578034413596773 3.783626156176942 1.6053230232461837 -3.5109879196160825
Ni 6.2351614635325605 0.46980096351740547 8.757890548351051 -0.36398361834407633 1.7722112725627222 0.13348961925143463
Ni 7.012029962824698 8.196411751564739 10.231898724097594 1.569419367371039 -0.4937826761178012 0.33432260094453387
Ni 1.4390096226358573 3.1536293352247804 2.576426972024879 -5.613525013259119 0.8344330190525758 0.8916385217292901
Ni 4.274426825224756 3.1878497260241376 10.623398745741303 0.12173864936309357 0.5374901443080808 -1.2514428118846963
Ni 2.609328237074792 1.799823797954555 5.921309852474974 -0.7084060267267736 0.6293667160044193 0.8378559286911956
Ni 5.7117019896968095 4.7767915376088474 3.857285886650317 0.4934641164361179 -0.016316220661520286 -0.44353997791216515
Ni 4.201448326051552 6.274088329998021 1.9265573745763045 -0.051018142919079884 0.11926139146719461 0.7261636078205107
Ni 0.9750936287909877 4.78598885360177 8.995155987254725 2.054137876404043 0.7725452804088437 0.7461289951988439
Ni 4.800023901554275 8.119608068981634 9.76222526669385 -1.1330026307672165 -0.022160081036807 -0.21785188484859905
Ni 2.0271034455594887 7.207995608985838 12.909251472811786 -1.875917232793821 0.3799213726202553 1.8588196538815858
Ni 7.8264658883998575 6.153388792696399 6.103673596452084 -0.2066714427517473 0.09234399825106032 0.16915699074605706
Ni 6.923066322195905 1.941589970359233 12.490046997794897 -0.49007745935207214 0.16401761263696268 -0.35072572489290565
Ni 0.2557397622105576 4.921145334084929 5.052341624684896 0.9948839973842027 1.8612511461412138 -1.056372186596671
Ni 3.893989834031249 4.756484313918051 12.20533053370939 -0.009194522015074489 0.8444618640434876 0.2058183507228326
Ni 3.1460164702031155 8.586121062347441 0.8426766546616847 1.3451168418010897 -0.9678167088537656 0.7213098792726351
P 2.0633583089077385 3.9748437108130714 6.1650518519167825 3.1457058941755567 1.979969777731061 -0.8602677207274926
P 7.661457976600218 8.187936345185939 4.539470783552924 1.055472557600537 1.890137233047945 1.7015023360829342
P 8.337259129915077 0.15079379276103427 8.178483079420737 -0.4468731560504562 1.1888832439849204 0.8238817258992909
P 8.649020953271519 6.770359000184968 9.369463309542855 -0.014561956974574922 1.2102797073828253 0.3112605769187478
P 3.8435967927856205 7.36962835895321 4.683029541908517 -0.3591797691975298 -0.7332490539123823 0.28905087359092796
P 0.02778976996393795 1.8175433975739481 2.0361132525617305 -2.6653664880468546 -1.1360375609387983 -0.4506958722306561
P 0.8304107540362605 2.11845782581947 11.442076124685673 1.1675729125429182 0.3009347695127075 -0.0059672733270284325
P 0.22645554559088887 6.204053721978515 7.514795006903896 -1.2046240517589448 0.04843804089672948 -0.6891952581262777
Ni 3.1818681892214005 3.213979103875592 7.8879069593764335 -0.07938975208323747 -0.20995088483396743 0.7133304606115844
Ni 5.437685726164536 4.216664680645349 0.965832559741233 0.40300293703006723 0.8999431849402436 -0.7516684369598344
Ni 3.139041135749767 3.1412912436379443 3.787441600256353 2.0274014888504635 0.5517682514936497 0.4646855016415288
Ni 8.869990923340024 1.3482177693479198 5.23455536146946 0.7050623070655212 -0.5716765603818025 0.05356173527654001
Ni 2.3094544837275515 0.139057605034285 11.374440694201938 -0.5077612497850803 0.6292093644909486 2.1126934653507488
Ni 0.46859996843209106 7.331179640413987 4.224224105604669 1.122604318252028 1.672521118359236 -0.0466701503630293
Ni 2.679109707956878 2.929059192535193 12.819949378454814 0.8599365626403189 -4.091528358146419 1.7765209556816695
Ni 8.765117144851912 3.5632614762673827 10.722306925690885 0.5461344502466401 0.7060694081737968 0.9779489121917608
Ni 8.199374393617505 8.99523755366567 2.345830290374791 -0.2865031674684098 0.4676746661768398 0.4281082167381272
Ni 2.5630603936241547 1.7131571424616086 9.648649195948217 0.5396053908788706 -1.0878951969056168 -0.022966121877870126
Ni 7.606695975871713 2.5916648901526034 7.879043409386923 -0.22176433252912772 -2.476126353397677 -0.8231211935841823
Ni 0.6248165212036316 2.6275541109690246 8.916475339674898 -1.373403861671241 0.7877106752953724 1.2757222532573513
Ni 5.809675437327845 7.635956753867547 3.6486033807411653 -0.2505475753094072 -0.838324126576866 -1.0861591880511163
Ni 8.306067009315226 3.8301898999519004 3.357986946263866 0.09404658276446383 -0.23338443326655936 1.1891118150559585
Ni 7.2021828302747135 8.77966784252879 12.737521363696219 0.2583243910413487 0.4377040879566785 -1.1606957258071107
Ni 4.4830399528073555 1.0102234381951494 6.969444795951045 -0.5060815480898122 2.1606563663832725 2.589521773002398
Ni 8.216906484246216 4.6475884675798245 8.291688819909776 0.25306262842177707 1.4015931796212635 0.04873808863565155
Ni 4.227699584746949 6.576859097251289 13.28283032267112 1.6292977888942264 2.018117749555692 0.5448761523595067
Ni 7.681202673318971 5.836770486481308 10.96351099094382 -0.17597478499883887 0.7789627538994133 -1.163651208891009
Ni 6.66035685080172 0.7983785931581557 6.3154575010671055 1.4191818392373041 1.4672853796127503 -1.5091123429508653
Ni 2.5777798493926456 8.808469223497454 3.587293566058065 0.07094367819841331 -0.2594862725599338 -0.3840377087814741
Ni 0.6100483130975639 6.595159974741795 11.053745942529433 -0.3098690958878599 0.548525833296952 -0.6854355339735292
Ni 0.9214716827258257 9.016594827704282 9.580684687185833 -1.5047849192201053 0.55802297415411 0.5865028267613577
Ni 5.086472011168726 0.83816518834589 0.029452037166328625 -1.854253374667142 -0.32686228801174677 -1.7319951053551526
P 4.887684354697832 2.954447909873456 12.774063115800212 1.3337299401203868 -0.5351360422536074 0.1420151402239425
P 2.802940645402879 5.48403794866098 9.921674474464739 1.0904925253191478 -2.2995630428852203 -0.36834549485719786
P 6.615457822983056 6.517775014287578 12.848394492341184 0.4151935655589881 -0.5468273625486066 -0.07689346802394499
P 0.4456451177928732 5.520020923972742 2.8160390859469286 0.4899468473114788 -0.05969972985347784 0.21963083112589268
P 6.672319924407193 3.002122070754204 5.543352667683229 0.7666944780550214 -0.09053111341203764 0.09071751839123086
P 1.9254829480597 1.4760707746440374 4.052055225450908 -1.4497067472990388 -1.859574015549107 -1.5561295922406684
P 3.2136884649400357 9.270632008279453 8.360709941834648 -2.3638377937038904 1.0895355607225172 1.8246628054942189
P 5.431919824701083 2.9265371966105285 2.637037378172737 -0.49661474624995766 -0.23311729564810174 -0.3769468633729637
