# total energy = -340888.8404341013 ev
CRYSTAL
PRIMVEC
9.05888992253765 0.00000000000000 0.00000000000000
0.00000000000000 9.05888992253765 0.00000000000000
0.00000000000000 0.00000000000000 13.25860108826114
PRIMCOORD
 96 1
Ni 4.957876092807618 3.02178296519591 9.712906428704803 0.19916356441047636 -0.5660669275045089 -0.004415612569192395
Ni 4.380091035643896 0.8894869646426316 6.111300156116077 -0.3221486845861613 -1.0355336525847652 0.7448694117601301
Ni 2.5391706053960106 1.7979088209690501 4.838779773088176 0.3964044578769431 -0.9194735416636874 0.5592784438277658
Ni 3.5184909576912315 3.0055766111521365 2.8426171465025933 -0.0009070851953016637 -1.630123113008999 -0.42035762625843087
Ni 5.028526375192967 3.146578232555899 0.9614978922920235 1.777315683668823 -2.068942545517043 -0.5489703770335383
Ni 5.139126362068555 4.695032402153577 2.807508512778699 0.0571615368126564 1.5184439047644365 0.09604407281046684
Ni 5.259555244493329 4.983068865639219 11.517839512907807 -0.273501098781787 0.24711978057478085 -1.0459556192490373
Ni 5.255687098503005 8.089434685897572 12.71304951769067 0.8894358576510165 0.4558866724029762 1.0846057275210674
Ni 2.1224616696701477 5.24184511472498 11.612505818325825 0.3637527332801929 1.4319368249101274 0.5787581498189323
Ni 0.4818351070458711 7.72376353590822 11.685441658634732 0.8898379781854416 -0.3226791031683346 -0.4946409103530384
Ni 7.962111988253508 0.35048482694911626 6.926796825664619 -0.778218162423905 0.17805480745631916 1.162219618650805
Ni 8.497229673954864 2.5821731557849383 1.4712805805902394 0.5750627032452161 -0.6309492300001908 -0.060234005090393034
Ni 1.3727569998497848 1.1334845407339758 2.6115330179737977 -0.04999021587519778 0.36515912670941625 0.2389207897037563
Ni 1.9288822512456703 6.710200579764223 0.4941524796525332 -0.30890544642300993 -0.9277200979431959 0.448774229727911
Ni 7.800791276788155 4.070249824151902 3.8091698993627703 0.3158047446460045 -1.0377897956087934 0.5371142490259008
Ni 7.663639683594903 4.0515703931634945 12.430429364480476 0.27025096727560555 1.1520215950718806 0.8606600710699048
Ni 6.4540876443111435 1.1936627463867346 9.345603772643186 1.6739069429631688 -0.7774614867635384 0.3576828729370291
Ni 7.139519490240747 0.6921997425791845 0.5573717546471002 -1.5963745558036442 -0.39459260147918496 0.1315306957528509
Ni 1.9750916486617056 6.3826945329534155 9.50281084220173 -0.8186235628241451 2.1518750206462163 -0.3373109941488965
Ni 0.1945170135298607 4.844196083363622 1.557766708422161 -0.3172365919965246 0.7740213507337379 0.028147923189125717
Ni 6.102448714787865 2.3249912713228245 7.225088858414071 1.1130022763858896 0.6507297550612277 -0.8319004824387093
Ni 3.445150185003479 4.586316664378662 0.6660621275302752 -1.8814373912811018 1.1238106798553034 0.39558993239544776
Ni 6.115013395088991 5.91367956690405 5.042643749224166 -0.5072488289250361 -0.29851561854825365 -0.4419384377530002
Ni 6.394090616456527 2.1978135159172725 11.913516423936393 0.028759074410563377 0.038458561086514416 -1.5420330049382862
P 0.1405686064662035 5.797091653799878 12.743610588681209 -0.2433459153546454 -0.46208920166926226 -1.332524606958376
P 3.9751858334669627 6.3316476883269965 12.751790766267307 -1.1100282813592304 0.043347256637383404 -0.2651684105463756
P 2.4024900744779276 8.595201568299979 1.4891003229264643 0.4171401477623977 0.2987699006509048 0.4504043091321662
P 6.697155778298022 8.036268061032896 5.647567428771532 -0.6587618813370849 0.5245634089440837 -0.40186702365341115
P 4.742618750835489 1.4197454617978293 12.811825841459534 -0.4913617253811345 -0.8552543266733013 1.9513819387910392
P 4.272743190244951 6.4442678076518645 8.486313711616829 -0.3938510953274701 -0.6752117993629919 -0.6118701018815527
P 4.687921173576516 1.4063926580747876 4.01376311613628 -1.4583765071588948 -2.0586445060251446 -1.437590166541163
P 0.42880436552980156 5.583193145313812 3.6273543553716316 -0.9467264638423695 -0.7472240280352357 0.8074395211828674
Ni 0.40129161099299676 0.2668042373214188 5.134565211000338 0.6855622893593807 0.43821702303735494 -0.8018347734015804
Ni 1.9892688113662922 6.516784221358073 4.815735768942536 -0.25014776876782724 0.5520875825062814 1.4456724293286651
Ni 8.051622879425404 7.722875764697326 9.116919344050777 -0.32058699652599626 -0.9459561613352483 -0.06011830544813518
Ni 8.486295593837013 2.6262355962929953 10.462123730248164 0.7985216498679473 1.165320883283948 -0.3085143816321783
Ni 3.6003199102219208 4.084309221287697 4.994820057626688 -1.2709047772640498 1.7493119993670456 0.8583545628651797
Ni 1.8795203601419697 1.479570370744212 7.298408795655036 0.015988919229088593 0.7155724625682257 -1.2939359480519006
Ni 1.4921441099352446 1.0892590402075917 11.68107980314447 -1.1325544874862044 1.2706237556885214 -0.5983854371315566
Ni 4.225464843819879 6.811832265631797 1.7371952349227824 -0.09892113724794577 0.8567494231615889 0.06201269425737062
Ni 5.702308488702059 8.020125119218473 7.72928674108457 0.1885323099488753 0.9416837592121395 0.711140394938801
Ni 6.688078770611123 1.179268170324378 4.900113893093079 1.063664092272394 -2.193155367452242 2.6079951492162374
Ni 0.5739504290660546 7.54485951913322 6.767070478822914 1.0423126231798114 -0.1446597769356412 1.1048279681052133
Ni 5.551523266198646 4.8130697376428815 7.450564628201391 -0.3647590630575202 0.6891844594930002 0.254310127675633
Ni 0.5673274746549856 9.156907095878628 8.666020346037598 1.5640100234300096 0.6861842392140957 1.3600598362641674
Ni 4.474258196228034 0.4883040603285198 10.96508869800231 0.2997646604640063 1.0889964003895956 -1.8601543135326093
Ni 8.528582491923283 7.230851218283967 4.707135079069442 -0.7741388501482087 -0.44860787935337576 0.6734994446575756
Ni 7.453690851108326 6.530762088484702 7.02982992180082 -0.010633568454446202 -0.9322519243752783 0.6377428558832565
Ni 2.39841357401974 5.152859639167695 2.8794895460913974 1.213202794566891 0.9751330400095206 -0.9805087024991371
Ni 3.426226163987581 4.687259874613299 9.669710018071866 0.48245259581696265 -0.5062658961864765 -0.6138133416508526
Ni 1.208908858100357 3.3158164138000417 3.7388058778984856 -1.9229583933430237 0.783657074051289 0.32701501153952717
Ni 0.428756353413294 0.3022851914204946 13.781917902606407 1.1940131090123178 -0.3231683840999273 0.09849999055012713
Ni 2.5714927245844863 5.413103428418403 7.101797366778658 -0.6537849969477838 -0.03872801269781718 0.6909225252300295
Ni 5.522380817367557 3.2124816566299343 4.477827398851425 1.6908625969809008 1.6142115839850653 2.2817080169816704
Ni 4.022446062112221 7.1018526260070916 6.1813054455400405 0.34752315879520795 0.6866691492703142 -0.11581894144454892
Ni 0.8400172727490367 7.4861397947555 2.756317631802758 1.1665359866379716 0.2917554170062846 -0.7170012245949523
P 0.34898920422545676 5.920183849857336 8.238258658736102 -0.7522957861311883 -0.08138132859196952 -0.14253116062841262
P 8.654482943851935 2.066097256668271 8.380854644763511 -0.28582491045446257 -1.576555464195188 -1.3914172675295262
P 1.7669636530464512 3.2254811636466 10.891901020553988 0.7321139118666746 0.4355500177281531 -1.4333079942260412
P 4.002588975435892 6.215739191965858 4.192078305067321 0.8362070802338631 -0.29211022924254204 -1.5196176133575634
P 6.750829700997494 3.9609996118724697 10.382121049922745 0.639647271994821 0.7212121773525063 -0.5621758199802189
P 6.297450378927755 8.219801170550419 10.28437834549228 -0.8747209200383451 -0.11426393825260321 0.9251579936429745
P 2.3025342832431632 8.620874462296655 5.932839119057532 0.8897909269975901 0.6802951274231703 0.2670496867294884
P 6.890662725603242 4.061507995391566 1.6893045075399924 0.8281057912829674 -0.025675807499549327 0.00011132876688367923
Ni 2.788779257895803 1.6607934633354269 0.41211879620994357 -0.39243493170623384 -0.09850410431518519 0.6510778824292658
Ni 1.0654794542014963 3.7238831685545466 8.515707997587334 1.6350552602032937 0.010063554883589121 0.30692518276818753
Ni 7.975446674196734 0.35544456917324474 10.988675329653384 0.3985603278776813 -1.3797385456400173 -0.2055717819296653
Ni 2.623943697146503 1.7596531288914345 9.639215076977647 0.9607513173665518 -0.5909518636716468 -1.329663226250181
Ni 6.520507425109884 1.9460850831792227 2.8514341640491585 0.3906811822399207 0.4620799456978816 -3.293745643327024
Ni 4.050637327503066 7.252429494042642 10.60889586452274 0.3631554660158262 -1.2832144478693384 -0.4387703244376637
Ni 7.167067574448189 6.926834873002229 11.972450844004909 0.7645213816631027 -0.5225170679380162 -0.7763857372008565
Ni 7.835668002930429 4.181203107733867 8.315410506407764 -1.2648937951832795 -0.08316618840653418 -0.1685851774029871
Ni 2.886089853277699 8.48655830164432 12.539945002234186 0.49115475157665084 -0.4445501643442344 0.23285118647090866
Ni -0.3275395647034633 5.367464741066514 10.340329673114393 0.2682966717627121 0.0205809094751452 0.6565535608318563
Ni 8.862456938338768 2.573232031446646 6.022985038411916 -0.5649302427969044 0.29927615086336196 0.13305098905211923
Ni 3.7922415517934023 3.3074007050763603 12.00529203758506 -0.8880176371472513 -1.3647646979390045 -0.8433580894563476
Ni 0.9407838346304853 3.6218528915310597 12.810433490080815 -0.1419855725375877 -1.2208387138455943 0.6004844857524304
Ni 3.0868439125085865 8.44135444100797 8.189930386970799 0.4576630475771085 0.21480564182310746 0.18773861040298637
Ni 5.394306231861203 7.93902087788035 3.6537791372305954 1.153220243365672 0.4629615769718865 0.38626582678104443
Ni 3.0051508433265037 8.561221672258506 3.694350281568462 0.4777780731594288 0.2059124530985357 0.279023571261913
Ni 3.8188293936706934 3.2726689211726003 7.497274982229288 -1.1920253891583277 -0.9577829787668473 -0.011761254300986197
Ni 6.354448914223127 6.131210690242857 9.684029405347992 -0.8747330042232032 -0.5210250567735221 -1.0835526036662049
Ni 8.048968624682628 8.844710573010792 2.9132330051062945 -1.0726706666463786 0.7894659674235823 -0.42308890914666497
Ni 4.599769115890682 0.4680121469366517 1.6979095470627315 0.14055835317275792 -0.20492180705049226 0.15485600074235267
Ni 5.915672522683608 5.459004823577597 0.3429876896620136 0.5079085739962221 1.1352644302181998 1.6982601749965527
Ni 8.4095486785442 7.303467279779152 0.8112471442931286 0.27524224984260987 -0.34257789897479063 0.11163138572576257
Ni 9.195316789084664 5.071646691150687 6.081587903109833 0.35506754680136915 -0.25066687449609093 -0.3244310528624348
Ni 7.394672183363674 6.199695897940412 2.8796227117730315 -0.9761720227969962 0.4697215214035394 -1.5418661403431189
P 8.624443664920046 1.777508200898297 3.8323189866313325 -0.7111355098427946 0.3590627840036913 -0.7235207708810248
P 1.7657769384686233 3.1778314027353387 1.54836629836558 -0.21020902359136057 0.476424901565644 0.5638143840249064
P 4.614815932026349 1.1756446143615447 8.408339316741603 -1.8589929462346566 0.4643049783736584 -0.8767672610444125
P 8.551682661186346 1.7158443373007763 12.447294299820493 -0.10453874054503931 1.2681740085964481 2.0456982302771216
P 6.4629834741999 7.8174324575474685 1.4098268832385632 -1.5029735770429793 -0.11235849369977424 1.0317433323043972
P 1.7971206975471339 3.561185505823318 6.113368300681865 1.0668556026264981 -0.7658287876206166 0.8555973118350167
P 7.1584797468162735 4.219585624270182 6.053598650963916 -0.8306475838682145 -0.31002721873227895 -0.06028439871235425
P 2.314057191204974 8.646302766265839 10.346694449163111 -0.8966442024739978 -0.4502269030140375 -0.35780885699193216
