# total energy = -381171.0419845224 ev
CRYSTAL
PRIMVEC
9.25247702061566 0.00000000000000 0.00000000000000
0.00000000000000 9.25247702061566 0.00000000000000
0.00000000000000 0.00000000000000 13.54193537438048
PRIMCOORD
 96 1
Ni 1.9438436861860833 8.430154052485419 13.32358569841987 1.6952288443693966 -1.7616592080784887 -1.527424510996492
Ni 3.3616470326379413 1.9288361681389994 6.702635134144238 0.4752344808019687 -1.5834272516143568 -0.7711314307804525
Ni 5.0482996096040536 3.128290304730725 7.731077584816947 0.6480334391759872 0.4606259868601745 0.4425436754371669
Ni 5.788701341517589 2.4270820663113004 5.5604677102458036 0.9530143537336103 0.913820457142968 -0.020700979992777254
Ni 1.7526504969598542 0.46081685208360273 11.515669229791065 1.0861635589264906 0.168607031779858 -2.234302016893881
Ni 2.3257859457320924 6.52148828468097 9.844066732267239 -0.060983481661907875 -0.4337957540412078 2.010603443456518
Ni 3.744967911289385 3.20886087634232 4.65459375052348 -0.5855278644425981 -0.5176741380234181 -0.8565483628943764
Ni 4.205907821319983 0.7680444328490892 4.691630491578149 0.3613852614892808 0.22917939404627627 -1.1628027448477847
Ni 8.794498100363391 4.69850045591228 3.081927991888352 -0.6971193980693607 0.16262767426797153 -0.5096137296127868
Ni 3.2594441692914002 1.2459108247017188 0.35410803233204935 -1.5296703696078753 -0.3774675117631241 0.22972215392362372
Ni 1.0427171725241533 5.343731207164714 8.017002262036439 0.1940054172483046 -2.4887142173650174 0.8474209466718114
Ni 3.113662138249566 4.1911131102489065 6.6239835263075895 0.20183828302916207 1.9415580107220822 1.0568691808377475
Ni 1.3782582588234755 6.030311279102979 5.867558354348469 0.6677918527498371 0.45883161396391303 -0.9453784344549073
Ni 5.754106329200667 3.2237111022767033 3.3225275589615726 0.9451439498465981 -0.945971587954216 0.03223674854651867
Ni 2.906832262525451 7.899570746437309 4.437164236898786 0.20694526523842421 -0.1817451118237128 0.23622370248756738
Ni 6.261077313389245 0.4694521890708675 6.578306822027049 -1.6201122657402163 -0.6148302129511412 -0.7723961564254891
Ni 3.3434104000418854 2.715916647615752 12.011181946193263 0.007478824875548409 -0.4627412334309643 0.01481546774627771
Ni 5.42557862063235 6.192063085822537 10.27223529324052 -0.6161283629372745 0.1417947966830203 -0.47505193247751737
Ni 1.0109349132814076 2.0143013001987495 12.935663562848072 0.19212774060961751 0.5739807830349469 0.669063263263093
Ni 3.3278662383161763 2.2103242825326097 9.145140154729695 0.4321291649720622 1.2255376619831602 1.27154035396552
Ni 1.8445275957314597 3.8002699676194847 10.493158542262613 1.3206008589375964 0.7443809021594858 -1.2456562871099064
Ni 5.410682132311878 4.913500269019611 5.169796663692631 0.9674567544111855 -1.1625515480689268 0.046840871612938685
Ni 8.229560346406021 8.36113982491871 3.2778121870639474 1.6664381453899493 1.445750590864768 0.16925932065187627
Ni 8.836670891521596 0.3164291693584734 7.649568812015479 -0.4845488162243591 1.3790348347047734 -0.1407614703224995
P 5.165472981088808 1.0588164828829238 9.081005683647595 0.39156538461708695 -0.36658197519887187 -0.23013533020164237
Ni 7.038054087744286 4.238300744059096 1.370173444230663 0.07412978923587878 -0.1470935831881144 -0.8802567622549098
P 7.397309273152533 6.517019338184829 8.944380829308104 -0.20424355003654504 0.011221579747432287 0.04066353915763319
Ni 3.81007759347023 6.48908610946464 0.9235739486397538 -0.48644680457802025 -0.8590680439924366 -0.6582589735587373
P 7.509625094098003 8.437750336281136 5.38017023819112 1.6504965344590286 0.5041221103705963 -0.8740758302551785
P 3.968794587662387 6.171781655761373 5.927954824634625 -2.7866150851474076 1.1311977163479938 0.1258182187491059
P 3.684188388446417 5.159181296580782 11.636138333660758 -1.3464656425195005 -1.108593862905549 -0.7414151346629425
Ni 1.0578357202978494 3.802018685813627 5.6264304708261195 -0.8779093450686558 -1.0066545076565696 -0.7240403908299207
Ni 8.028300461966952 5.502947835126626 6.62902150015262 -0.14104017790518292 -0.43216875996074605 2.959170560052052
Ni 8.042216187702348 6.372708451020606 4.710359355962186 0.4540593893862503 1.4061324622525138 -2.1114415952215184
Ni 6.615493453212642 0.5781771236081543 3.8653833507912165 -2.2310801675224736 0.6546789695169628 0.056845291123818226
Ni 2.846774432905461 8.359206057180215 1.8976044312907059 -0.07297664946804205 0.4479226803608931 1.4833113227273615
Ni 6.82367419061054 7.589501729918272 7.181546130674744 1.288344312896736 -0.26315060878539837 2.4988898723464383
Ni 0.8509725356557503 6.83597998531006 1.096415774552428 0.08433115524891283 -0.8176383160927403 0.775763016015193
Ni 0.1381293071350876 4.530392197344173 0.43528279070595927 -0.9057088837794274 -0.13779698837753687 1.6960922208109566
Ni 7.952494916122464 1.974654435320972 0.48243156411183513 0.7481359983265438 0.33092797344068814 -0.5522179374365587
Ni 3.7080690321452603 5.789987435850847 3.5071857235289507 -0.5977696579244286 0.5617667574672583 0.7051808349212565
Ni 6.698071812380475 4.415976064070288 9.052540437487389 1.2295190152284114 -0.1764956904993154 -0.8331289555291715
Ni 7.436512019123862 8.581524579766732 12.945142725757588 -0.42313107523850996 1.8474582061221796 1.241552549354178
Ni 2.655757040746369 7.170096190117859 7.809296176719807 -0.126218282401002 -0.645411685282424 -1.6930709174861294
Ni 0.09402922497243878 7.387594172073965 7.794128590816857 -0.47484932954840803 -1.382716911542051 -1.8422617495229046
Ni 5.369425336398224 7.865373590640749 2.6544357869996835 -0.46383086695071735 0.09318449187448467 0.4421970907310255
Ni 8.345012757128286 2.517071659730498 3.128241266601471 -2.3733351916713645 -0.6447521973215542 0.42168740081344797
Ni 1.4738363484821544 2.6576815560076468 7.741626334092829 -1.663393959246987 0.5271064870809117 -0.08375882768521059
Ni 2.407022695703361 1.480507384556105 3.123745487921399 2.3174106125896023 -0.22354353591673756 -1.1211781273284627
Ni 5.516178877547915 7.575215905094168 5.365314460770406 -1.1966479755320036 0.02165948725130463 -2.0727151251855984
Ni 2.4058846410055854 3.896643770318885 0.4829367493679207 1.0520781872070073 0.09680306246367844 -0.12073849023335334
Ni 7.672431683220377 6.946528583106953 1.7944550395247956 -0.2888454424483412 -1.2170689623905169 -2.070901211905311
Ni 8.204865484712021 6.50670282608711 12.934214624915782 1.105618839437625 -1.6627416703749685 1.2141397045588638
Ni 9.10364186916066 5.752052279258342 10.203523621678833 0.6841669516737506 -0.25069104286580696 -0.17734029788779782
Ni 7.014062414318831 1.7915571636602168 8.10517374368236 -0.25502206614099304 1.3189730935261865 1.5751912368578098
Ni 5.097189699222297 4.443511436270117 13.206759294830778 -0.48714665885852226 0.3411843610613737 -0.7787634934044136
P 1.1002675808181497 5.985233210098421 3.1094726165653985 2.3981435089642957 1.539527207797297 0.6403322138769876
Ni 2.7372343551252967 0.06789837881425469 9.022856640077615 -1.2336924298798109 -0.46504956984916684 0.11504555361363412
P 6.917836651254913 3.345982588708402 12.776599600760251 0.627596511477874 -0.25497630050472214 -0.6446763497782961
Ni 3.6364363535259483 7.22847006888423 11.790651927452922 -0.319820550673617 0.9054877689075567 0.3207194083388025
P 3.961799714885818 0.3095388495744639 11.933586971254876 -1.3299439907153934 0.23114140286865353 1.1366865073767067
P 9.039429677269931 3.6447543305446466 9.447734094904567 -0.07258892711132016 0.47922406157733594 -0.9968143816376961
P 0.2934691471427898 8.008685210265462 11.923200140330303 -0.06803601763331509 0.07242283384710108 0.29327828140871426
Ni 7.356163506965491 2.6093558674996817 10.504655670453309 0.14913555331880768 0.4302576589809622 -0.01841244106891668
Ni 0.5405685794614329 8.195094868770147 9.738615324169569 0.25655392940448724 1.3081904010883858 1.768182353908987
Ni 5.265381230085363 2.2653117546373074 0.8503424419572259 0.8079678828825118 0.4375331095964529 0.7102345952950799
Ni 0.8433484944283784 2.5159058476010703 1.6319796890868152 0.22530834112664422 0.050703439892138484 0.1353647247869604
Ni 7.081938587187763 5.1077837856365464 11.465468989398799 0.14659478917482496 -1.3080222509416377 0.44783963372878355
Ni 3.8219392692633014 8.746810832783446 6.632962130199631 0.047206482482473534 0.2918037537457168 0.42673781875316186
Ni 0.6002914694061418 1.7061475464637728 9.771494927210332 0.25101962984981935 -0.5778420657625661 -0.39570074694169916
Ni 6.730094636030881 0.39056741880833445 1.4932693263824568 -0.06612285977100225 -0.7297623809153625 0.8781569423030875
Ni 8.195372443086677 1.3420070530845882 5.353086386879515 1.0294100561855304 0.2950464290527306 0.5281231012708839
Ni 5.120524446765297 3.764166801516081 10.751281375938406 -0.1800075603073158 -0.6150621264562891 -0.34114939405838024
Ni 7.585014278467695 7.483218524118733 10.929236120761571 1.0073047396460586 -1.2543507295601108 -1.1418685657982786
Ni 4.687684310044807 8.092447886517157 8.998399567048109 0.7449180056098783 0.22527234568238624 -0.4906204763397357
Ni 0.5022549965507238 0.06035020790006781 1.0895717171545067 -1.7980760561446258 1.0467925133280358 2.027765814168417
Ni 3.6116397145825543 4.724499916893972 8.974430099567977 0.06801056371201836 0.0851690777691759 0.22250146780546842
Ni 0.5486885534676726 8.076024739455768 5.208269389211485 -0.20300016454774716 1.4993969154353146 0.4655609622679466
Ni 4.528180855289146 4.460739548849445 1.8730798151775117 -0.48275418621778143 -0.7222809849366529 0.48614984216289175
Ni 6.402853021795822 5.5848415109803495 3.1954901215150446 -0.8461060845151299 0.19641788334453913 -0.13911159342390234
Ni 5.40903519136713 5.728467714830464 7.529370805728264 -0.4908991839224191 0.08940625577897506 0.2863051925249908
Ni 5.789987435850847 1.568378160692453 12.065269152264682 0.153978997454038 -0.2680267059307771 -0.05508639945118255
Ni 8.576611514364142 0.9975095688385477 11.592790477895909 -0.17582437546390364 -1.264906136478454 1.0655142581072552
Ni 7.198926909128164 0.08192050803765528 9.730611931376274 -0.23426297921677075 0.9959291508192655 -0.9783680020070505
Ni 1.4331624586332143 1.3538132140143535 5.163458716798518 0.29478623341280846 -0.2764175010976337 1.989160957312026
Ni 5.627985812246412 8.410002157105302 11.275232506316877 -0.9154245684052944 0.9446217587945409 0.288859069295096
Ni 0.12552465742143623 3.8786014397444006 11.834554931850834 -2.7315464263080376 -1.0325719988532798 -0.2568524344815125
Ni 8.214599090745025 3.238931427299794 6.931141713493944 1.0540545942070878 -0.05024244109531993 -0.2857097250328369
P 4.36406966687908 0.7499734195952299 2.2421925898134796 1.1336608331765057 -0.6486232502411862 0.44545056467131666
Ni 1.4685439315136393 5.638838968022756 12.411333080903674 1.3556151702292525 1.3756394358699793 -0.5569598229969183
P 0.4275208875680439 0.9126393710638946 3.3222703400949207 -1.2793089421673451 -1.5566430415419772 -0.4938415543801946
Ni 2.027532342620038 3.874484087382531 3.2216126404437326 -0.3593170661063425 1.189976477049099 -0.41180690847494245
P 7.551862652596732 4.157517365471494 4.89726494724574 -0.24777721165312167 -1.2635779045853335 -0.09859255026393343
P 6.0277575953908995 6.278407203217967 0.44212962384704574 0.26289324135895364 1.0302076123861612 0.734762148122799
P 1.608644941543815 9.216494333784755 7.112739158597712 0.6360898936608658 -0.07100435623301966 -0.7505970582725268
Ni 4.919144280122398 8.49790994315052 0.3672382227516652 0.28015485665287876 0.37186944885005635 -1.3927375290028465
