# total energy = -381166.49985202815 ev
CRYSTAL
PRIMVEC
9.21638761501286 0.00000000000000 0.00000000000000

0.00000000000000 9.21638761501286 0.00000000000000

0.00000000000000 0.00000000000000 13.48911488130460

PRIMCOORD
 96 1
Ni 5.024783589834414 0.9293436330170761 0.6053525960227915 1.5728435625612396 0.2690001255876399 0.7891211824896539
Ni 0.35175448219342625 6.28198176941538 12.716417331523004 -0.16813317746723302 0.41653722407107613 -0.9969473076711347
Ni 6.885793385476249 6.566049259764584 11.736433336671112 0.6216222961723101 -0.4630219978961768 0.3418471914563532
Ni 0.8258546629426766 7.616606818973106 1.5679074807909983 0.4390112368038762 0.37891992793893453 -1.7623750031985908
Ni 6.726515779603336 0.9075109330661246 5.740629610303981 -0.40673077950361564 -1.1268132141270528 -0.7894381995094404
Ni 5.456967640997389 7.768677209952337 5.384341587181907 0.8546722289175862 -0.7695216630911715 0.8318829989372124
Ni 8.05985053493457 7.884812906723809 5.868344776119472 -0.7939736254859487 0.25349354531160856 -1.2845287958053877
Ni 2.9633726680439483 7.188312083264266 5.733831603007843 0.993284771217883 -1.5626583944981216 0.6996077117088532
Ni 4.888067700150419 3.348645307686663 0.5056746021102049 -0.9960386798139363 0.3477311610409559 -0.6718739932390106
Ni 3.0627253234837126 9.104657068447878 0.9481552012005736 -1.9024767284499042 -0.03762243833846424 1.5146450998436365
Ni 6.932308492341229 4.940250885224625 6.778698043038808 -1.3508460309753831 -0.011796735524611942 -0.7927315255487315
Ni 1.8976265025121675 0.2433126255667699 12.381361099897832 2.5414943372805263 0.2512659415326705 0.6843942371932084
Ni 2.9651145652497104 1.437332469986365 3.0715795067936367 -0.2844437138362198 0.24932630130779637 0.16288452747378399
Ni 2.513410205717401 4.699426684237515 5.814860237153977 -0.7619718757683717 0.1816039582601582 1.5505148171570522
Ni 4.244330694167003 7.666421392502969 3.076219957815336 -1.9925897804879167 0.7901336829145682 0.45683001015285196
Ni 1.0554883264311814 2.9254748833344575 5.058350594136563 -0.3670113494268066 -1.1652524919398577 0.14972330750147764
Ni 3.079443850104096 4.862538307240572 12.642308360985794 0.0850963155497115 -3.0664410977059577 -0.011378417040270726
Ni 2.880121041273318 3.0836280899528576 8.511765949736784 -1.6357420018576732 0.6245543822174404 0.0032331622253170124
Ni 2.5656855546649284 3.4065242201320918 1.3023575558693987 0.43514404053898614 0.6480218692117614 -0.033082127265949474
Ni 1.485884398451734 7.059116765643244 8.540538589348786 2.1587257250194627 -1.0221562028365945 1.779207244264581
Ni 7.536811337452003 2.789984773165628 11.107260987588575 -2.4282033044641538 2.1132498520748513 1.4787589274699888
Ni 4.1232181482362105 6.804541714756679 8.465430562424778 -0.5565870130385318 0.4446146990335827 -0.9923468327846459
Ni 9.389194594551018 4.061597382533959 9.55536513650959 -0.5770365391421352 0.5431789671627419 0.5538066220799172
Ni 6.667696795650035 6.084465372501689 4.594904557143191 1.2026926390641868 -2.007937723698897 1.036821261047937
P 5.947168850415774 2.5288015725619655 9.506372664729746 -0.6855126670683678 -1.0852914407341825 1.291921488725033
Ni 0.9497671473449536 8.199644697987479 6.721396076440367 0.1862005764919051 1.1907490935490654 -1.6324671877611434
P 0.9079717524327283 0.164597304640987 2.6218658869250553 0.7158807378372639 2.0402433778101376 0.9257210652352961
Ni 2.2270386185351785 6.632471763266846 3.3379220410257946 -1.1538049122245482 -0.7470293955259263 0.5441130489412371
P 8.045804760640488 2.5691877818511166 5.955188029033412 1.3120082321725792 1.09811918862647 -0.6180361214829485
P 1.379932809682204 1.1400210310409697 8.512306030034443 0.5319445318995032 0.2237687645536662 -0.3142224877605492
P 0.06657088733830817 8.427759500843656 12.399382823686972 -1.7377158098890135 -0.5068742191944368 0.335322502963958
Ni 7.33804151186115 2.9648657227917443 7.978150026151929 1.2921690859594648 -0.42472464497787504 -0.16015170192365322
Ni 2.9688195529572043 8.783622648509722 7.550423941541478 0.5571038047739502 1.2543062494754205 0.6490958190022305
Ni 8.599626691812185 0.6076133758353494 0.568718378016528 -1.6846258720425695 -1.905287715536138 2.1306683046616146
Ni 0.28865172140817774 3.8078886720566096 0.43676275238954976 -0.7779440828269119 -0.7158046331836898 1.4621267182299464
Ni 3.2734303706696024 0.9964481491819115 10.195463512774301 0.05082119641692538 -2.558259215443691 1.8054880323379807
Ni 8.626962496639118 7.019937903094595 3.3583308091339408 0.9135484344285041 -1.6462282461009776 0.8393867635134254
Ni 6.354293544422837 6.75115118294197 9.491143506302226 -0.2270831736388799 -0.44172863573503923 -1.6637107191564575
Ni 9.161144306406161 0.7194781987171383 4.637733109075341 0.28506386391872196 0.4981059860835034 0.5823798057319196
Ni 4.318384366380222 5.61125918132365 4.338598668715662 0.38284188870116 0.018638698147109837 -0.26171181945634286
Ni 6.2886452174564695 3.0513430851286003 4.545548038063731 2.0886078851564545 -0.07938075322217296 1.5668001845806372
Ni -0.18024857360831611 1.5361966568975294 12.075778874960633 2.7327059938337777 0.6860885941764958 -0.17259429856238018
Ni 0.662395582137201 3.2310349889420595 7.497937537324046 -0.2826642533382938 -0.7624560144936418 -1.4645024175509747
Ni 4.959854141079948 4.206008955640237 8.567813566019328 -0.011242148572722573 0.38513068473533674 1.6931457365881228
Ni 1.019350871702117 8.954135030540435 10.453942625334733 -0.5973690800519003 -0.7821056704037692 -2.679318322241256
Ni 5.348896283141482 0.4016446300994126 2.999938684783954 -0.5333421835779782 1.1372120408628739 0.41393141101711295
Ni 5.5291227374202006 4.567208391571573 11.8756413374897 1.5971628560328945 -1.8727632605458715 0.6733400362615759
Ni 2.096995393279606 8.864634693158658 4.642184624156733 -0.4337296766899627 1.2256402489992957 -1.4539706647817152
Ni 4.548932295492069 5.234668378547749 6.758747329381067 -0.0312908396934816 1.1796666104826588 -2.1795071805411883
Ni 8.858846801914115 4.755499184765857 4.914421959726487 -0.6903026322578434 0.4588010178362937 0.8696352779853217
Ni 4.922638369033031 3.4661265970086186 2.9119627378669026 -0.975141781760269 0.3831733038986498 -2.1658101426700704
Ni 9.20667325982661 2.6337393587249673 2.879345943098691 0.35503463668090474 -2.4377996899033367 -0.7389083090806888
Ni 4.8828327921458 6.345436596196714 13.203010325300884 2.2230246442078485 -1.823189820493118 -1.3682819670636435
Ni 8.859676276774001 5.55563828377458 7.6017094504895395 1.569061212700672 0.21389727107622516 0.43604649774859744
Ni 8.778157330821802 6.5380590914370735 10.026540035919638 0.4002125187691236 -1.8549419160937346 2.452424124684731
Ni 5.05546494326289 8.664049239263386 9.792436424575078 -1.132657845833288 0.22619485749665558 0.6702932790154521
P 3.067186054952437 7.684927898265775 10.316096806563827 -0.16716747111985406 0.15662620526889798 -0.06128507206272671
Ni 6.37038535670464 5.174688129790607 1.1708129811174313 -0.8244802787152381 -0.6913099904764352 -1.6803323868735383
P 7.645896497914438 4.498749066468923 12.769253958459057 0.1798404386018322 0.5815297990267985 -0.0718016553233344
Ni 7.115438108629552 2.6152512857368255 0.6334653423018187 0.3578199127355257 -0.1471609460909401 -0.29911005759914294
P 7.076895176806816 1.6112641317172771 2.6330343050940637 0.39125556668615197 1.4700688558951587 -0.36269858098406565
P 4.791498393684941 7.97015665341882 0.8265007316946551 0.9912985940257896 0.8681211553336405 2.167574176549028
P 4.107974243588959 2.968736605471215 4.856553185307122 -0.9054229771078923 -0.48932078369170573 0.7914261764737466
Ni 8.653634721578142 0.8430542849817944 7.283392943175613 0.7679239795867485 0.2701049286160445 0.11312879620689549
Ni 8.618363607258292 7.814703848288717 8.345755772917789 -1.9274105155771064 2.0189554149656392 -1.3511363085222923
Ni 5.096487083277954 1.7556849212108863 12.015725816743569 -0.6496540054985458 1.3655599401467902 -1.8410389328593972
Ni 3.740996132800412 3.487932569436307 10.55257455928513 0.797209358814427 -1.8712380821505967 1.6802105165836936
Ni 7.06971561107513 0.5847346159222073 12.153840754024573 -0.6897472739750057 -1.2551567704011737 0.6174787063175817
Ni 3.9266879047670513 5.540431244676656 1.695217125563878 -0.618762715236328 -0.4032973283420345 0.8043063748705245
Ni 6.945303598479454 4.562231542412253 9.699765649951068 1.260349884566339 0.7876831644915466 0.502821903501934
Ni 1.2667463568569959 1.6157985942846578 0.6230959849145015 1.6871105861376363 0.799686616710326 1.2954490422623173
Ni 2.8451079857987667 1.9632010983798784 6.537283071623713 -0.446386960442657 -0.4598978504448983 -1.3853062695357818
Ni 6.401278687041754 0.05863373456792551 8.062389649644556 0.35722187414021056 0.10127961017779331 -1.1099352074247917
Ni 8.661929470177009 1.639383329467437 9.68691063290029 0.9035882378919987 -1.403730023458608 -1.9048151467750936
Ni 1.6478716222002776 2.304308809927292 10.607880256387444 -1.6273620053240943 1.0443239971828853 0.7172768468538421
Ni 7.5217517605513935 8.877316442127592 3.480124446088573 -1.140855294042416 0.617817320603923 -0.124840685327185
Ni 5.081731647159303 8.517895768951346 12.159101467913722 -0.536468645022102 -0.0533835578274629 -0.12501911988657824
Ni 7.4392466611546615 8.691163850794348 10.099070239306867 0.6439968072127683 0.7605366859837418 1.6755357368158437
Ni 7.487558963549397 4.154443268517279 2.8048858282041267 -0.8225599217640737 0.012312498818765892 0.6365339231768199
Ni 5.233525546518571 2.7599301340757325 6.80328920771825 -0.26138503224454335 -0.17667901015471507 -1.5818311107718306
Ni 7.232578391620221 7.763691144405684 0.2632006677906537 -0.2642302150028224 0.008008215016457175 0.4376161562285625
Ni 2.1708186558095233 5.200235955475118 10.509639097259928 -2.263706952418559 1.4504402830309537 -1.4990955821448118
Ni 0.7673610174621988 4.102103404858427 11.832840434719545 -1.2053167069505952 -0.5207568907137999 -0.5419078137598021
Ni 2.61851388685238 4.069523475639543 3.6442996401897516 -0.10458913416700052 -0.6897927825009604 -1.2227955804616488
Ni 4.280136358952113 0.33409772734263776 5.485698806866398 -0.8726262422928456 1.8814867564617985 -0.26839540212410556
Ni 4.262431678887197 5.634466044625814 10.411006241670798 1.9055252854682405 2.6154644610100894 0.7040348942422714
Ni 6.198260106890814 6.893258659215229 2.666433571146769 1.265878527694052 0.6152788704527855 -1.77281908135005
Ni 0.4764070424984687 4.815534731846991 2.7404079824289327 2.428751206547824 -0.10712861275940261 1.5004240711482484
P 1.999596611954241 4.9932358959967225 8.249308122765095 -0.6551834199572072 0.197831218752298 -0.8970928599756423
Ni 2.79514595007159 6.926566683033347 13.1308837996788 -2.1786720862344024 3.0091414926535403 0.35402033648377745
P 3.02610861661338 2.4038550095010303 12.682222691243542 0.18769644431114124 0.10534683826863146 0.016275854341888097
Ni 4.303536766388251 1.4009000908626739 8.411758009157708 2.9215738327452008 -0.708235048366548 -1.4449512348919242
P 1.6441942836547798 5.546993312457094 1.0499170202889423 1.2061484588232712 0.02719404391628865 -0.350706441619196
P 0.6489590110457694 6.718608119272415 5.215485389954768 0.9203045222054149 -0.7166970630909721 -0.5881357343790904
P 6.735971793006044 7.154957977509488 7.347142694351574 -1.3730369652501258 -0.8647082729973496 -0.0014845549653264756
Ni 8.571028241920757 5.847843844138005 1.2443118268132596 -2.5602363937747197 0.9394142464516724 -0.6948010343488291
