# total energy = -340867.6277864753 ev
CRYSTAL
PRIMVEC
9.26631073219159 0.00000000000000 0.00000000000000

0.00000000000000 9.26631073219159 0.00000000000000

0.00000000000000 0.00000000000000 13.56218240960549

PRIMCOORD
 96 1
Ni 0.22627866776730696 7.183809097317724 2.565463295117525 -0.17331523588880474 0.6217829901198904 2.449357827054582
Ni 0.25387652014804246 3.417804474974059 10.167635189187541 -1.085435936731847 0.6363302918064461 0.6646260534273457
Ni 6.1665628036250935 5.716257181527178 8.945967600791324 -0.6582018950685569 -0.006090943389086285 0.16161903049779908
Ni 5.36440610784457 3.3985120166398777 8.877193971343456 0.6444943156744772 0.0490839020108445 0.9994443630613755
Ni 4.863914148408556 8.078943952044055 7.604302218839962 -0.5864040963999643 -0.1804554464780118 -0.3909478056377461
Ni 3.35420052012016 8.174183090737 5.071197806406777 -0.5079571678459703 0.04824803637311045 2.1596572356947967
Ni 4.8754229059739025 7.470972057825058 2.358897776178333 -0.4473850626898682 -1.043829316934654 0.30145361813065497
Ni 6.614764973253336 1.1003187667790535 0.8990424578384936 -0.7939286311806262 0.223412409655512 0.527135540546634
Ni 3.6980640342042728 1.6812515671367911 9.183237966001476 -0.5019047910043033 -0.6148857487794249 -0.3903335690925149
Ni 6.407987255805089 5.929901235010789 13.599341909713361 1.6184605890694064 -0.4465116589459794 0.21077595183842407
Ni 9.101629569964429 8.863874576718311 9.905003858936649 0.39009291383661854 -0.8313654358708455 0.453413014051503
Ni 8.663082895813716 4.960024320282775 12.194002148948766 0.34339679533166023 -0.16585260896317242 -0.0889192888402275
Ni 2.4971038697462853 6.666165197258956 3.2628300660355336 -0.032210266183957434 -1.5791954729211963 2.3416067502198317
Ni 6.759884661039892 0.19608346857049513 12.255099566828891 0.6311523471499324 1.2230843153466613 -0.012501474901120404
Ni 3.5451421130280045 6.525632333139749 11.924819537217438 0.01732203621821533 0.19960965080895945 0.48182010443928636
Ni 1.5764681286915851 5.3256636638987445 10.910626492814487 -0.6322982878289175 1.417212117105443 1.4032350861000606
Ni 7.790567104869199 1.5953992009186417 10.50163193591611 -0.5195924380920535 0.6840263123308283 0.31833805259081954
Ni 6.288905900352371 4.872809806430079 3.7174751013120737 -0.9170867865990657 -0.4695358877552946 0.7220837813241823
Ni 1.1600772028007313 0.3129334964694813 3.245308399626262 0.16503448393725126 -1.8090361547005551 0.11496224987120846
Ni 6.569582443552344 1.6775357766507168 4.6454404939240925 0.6244016586896601 0.8688346364608973 -0.33880609063718425
Ni 2.3666249524534884 3.709405998181716 4.546219621635471 0.896208914708792 -0.351836184348265 0.9561814386076822
Ni 8.844730379351157 5.830334729342789 9.873377014776997 -1.5654650107089814 0.4062774940162809 -0.5247760391755221
Ni 5.13309120035362 0.44936694485043593 2.8168925826786038 1.3633058540052907 1.719957200354012 0.45119903711931975
Ni 4.779701919138125 4.3702421934557085 13.239374474717158 -2.55077524836182 0.7986520047982245 0.7715173533649615
P 6.59968868616894 7.563236710867057 3.663050353579135 0.09276874449330474 0.5090244327682202 -0.525535800159682
P 4.807352589488363 3.175231000299616 4.802884374594635 -0.3048855266303394 0.713665732463816 -0.8338815174244801
P 8.704466238234682 2.547457000672289 12.438744866896998 0.020821564731041558 -0.30265560885855614 0.33805609984503715
P 3.1789375244752507 0.5251829702320092 6.943145409224777 1.7043814574029423 -0.7045925665179543 -0.2352785649654787
P 4.647091750444337 5.298884026729781 10.520334130275323 -0.0944654154694373 0.35419671416064163 0.051625437485775603
P 4.714291033748603 2.148820325582727 0.33011416265459426 0.14527349926024014 0.2785605155825654 0.9698465947996007
P 1.0693600236020608 7.406191281545394 5.058829135232682 -1.3037256804488129 0.3522524459500772 -0.6320979988926534
P 1.6568255728193553 2.7835162591080533 8.759216233464034 0.7489903759070391 -0.610637257915716 -0.9432544461333691
Ni 8.956778605180608 0.09260657989720056 12.442840576111076 1.1929003355641132 1.4750231145766401 -0.44746759510134554
Ni 4.505900978283956 9.220720191727587 0.5684584932446375 -0.17205179579534885 -0.7075567913526007 -0.04513777287890291
Ni 7.679649368913318 3.9118563486549083 5.32765870053628 2.2838399757230086 -0.9742832904147156 -1.998714662438732
Ni 1.2833191316406005 0.17764443742775413 5.765107316899961 0.4695441152854106 -0.6149495121378248 0.17056775505065463
Ni 9.216958069689317 6.82126470138841 7.096208178319718 -1.9017676181980214 -2.272738466493208 -1.0401004460198409
Ni 4.927249380259722 2.792152460437283 11.543993637422846 0.772338049494044 1.2135210971382584 -2.092593866387396
Ni 3.450903735862481 1.4363800474734545 12.256157779481034 -2.25175929313838 -1.7271406054763285 0.627206475128307
Ni 0.33510314419499915 4.751847389958226 3.679677821031034 -0.21660927069074953 -0.12495175698375253 -0.28322398249650577
Ni 1.58729117928444 0.5047414894033814 8.303377697402938 1.4752915377466786 -1.261845238164943 0.4739378734777322
Ni 8.905628571556843 6.309115723420021 0.6245205980321632 -1.1508625417667728 -0.32628507535203805 -0.6080201320078432
Ni 8.370045094488 8.713148771116108 4.832504135913179 -0.05065176071859664 1.1164935773685998 -0.5556344193172753
Ni 3.505908554628907 3.4795644340505794 7.245283654032721 0.6149543972338312 1.0667622715817433 -0.39723878085278036
Ni 8.711063851267314 8.926561166838741 7.5791571588324524 -1.5944508564183704 -2.0009489510858893 -1.547551106543038
Ni 2.034733511456677 7.566591115246006 7.345711926571556 1.4556403391746544 1.2363095557876838 0.4622113290694233
Ni 6.946934403563319 7.529034759036383 10.335373014124865 -0.14697094156732107 0.8485365483334936 0.21408856115142483
Ni 7.084585445135971 8.025607069156665 1.1867678833894801 0.20557383881219438 0.2134326727349808 0.31302152547391254
Ni 6.529570515076362 4.550546061979481 11.265372361878265 -0.869145997053729 1.1521840887916737 0.9661118103475167
Ni 4.967428102323607 8.48444696316898 11.961261156281239 -2.2072671242632764 -1.4294670232133964 -1.417969564096758
Ni 7.989060740784901 2.9396628563171237 2.870503748354991 0.9344232209949842 -0.931039392124416 0.5483741382104362
Ni 1.4094243504061474 5.089798997982201 8.037071348431903 0.6021253637899631 0.10139428137878667 0.42411709330086317
Ni 3.824011725692355 2.6638974576498677 2.646591696273827 0.27789280009157946 -1.1530803753536982 -0.06202683532475769
Ni 8.950848166499592 1.5989667304376904 8.342735424361921 -1.2604506718102615 4.126058530712803 1.5438484608804703
Ni 5.787941359083962 8.901319737202666 5.198492819432702 -0.3626294183090271 -1.0532336409676892 1.0224662778778455
Ni 2.4426828285375217 7.655149244112368 1.33253343301364 0.29210200171242595 1.0633190502281493 -2.3558406344310265
P 4.477277345337613 6.662847858121763 0.49626374198265977 -1.3723641075528172 -0.27754441561322524 -1.9157922146118878
P 7.4936096542277495 0.5766610312453182 2.868455893747952 0.910076930940136 0.9024353552344782 0.05721784397188855
P 0.42782740623477616 8.423604368825929 0.7426364039371288 -0.08409152843428097 0.7055374469297269 0.590126539556874
P 1.7800675016592244 4.940101752838736 1.947854438041877 0.039265116148209794 -0.3093451050635898 0.7125437030442309
P 2.480832228615247 3.4186106439822597 11.664778140734269 -0.29975720426483854 -0.29278257271921837 0.9919336565066273
P 3.298732385831779 8.84529562428794 3.1365932656617512 -1.7948722044953473 1.0182404127219562 -1.2271821395651188
P 7.699210550250232 7.165193079645596 12.340324603830314 -0.40652663391260957 0.3112477214029414 -0.3115683379671537
P 7.477504806684615 4.06179451786979 9.546799802817 1.290883534378822 -1.2435068448670712 -1.947684178224478
Ni 3.787104011213468 1.2183622954625941 4.937380237462777 -0.4708456077056536 0.8778080436041011 -0.1966009458896227
Ni 2.9589275157199872 4.264634053381424 9.654062905935707 2.260134918796585 -2.173104105228322 -0.6449316603222118
Ni 9.00054338938442 3.9330576669395416 0.7777195818905596 -0.11032680798172613 -0.8723166814722267 0.42761585048274103
Ni 3.4630796677794424 6.45552342835761 8.903151686776473 0.9382091703999778 -1.0678542190943414 -0.17623986573476744
Ni 0.5945987549933045 7.287730768892094 12.195696957128074 1.5274023995093051 -0.6451851710939147 -0.6548124097710335
Ni 6.042866825573709 3.503934830505381 1.825455743451965 -1.337250808789452 -0.5395182304817031 -0.6739535014758586
Ni 2.5515156446446094 5.953826848564513 5.640660767703011 -0.41548692842969087 -1.734725616912438 0.2140232551311282
Ni 1.865938400498252 5.476120746498215 13.428784346509422 0.000398263879683185 0.43061864186480675 -0.4281416410792239
Ni 7.924743280027192 6.377630822806637 4.665906067159862 1.2794572948197511 -1.003254223725769 0.5564664283002674
Ni 2.4001782625534256 1.0862247086012007 1.0552502126964618 -0.18254061114181463 -1.523755289675021 3.0596127619302146e-05
Ni 8.527164654293175 4.035283603703559 7.491803650323171 -1.1255148070306036 -0.5904073040220864 1.9047801797721002
Ni 1.4775595310647611 2.397009184383258 2.7818881683639054 -1.1934677780318093 2.298277234194261 -0.30638293711147235
Ni 6.83975099071439 5.458273832592532 6.643665668881807 -1.4417165300047106 1.8550545304121988 0.4268892567293615
Ni 1.940773123604326 3.245432568186146 0.45733967835222716 1.1687283663036 -0.6008747792123135 -0.38885981276046583
Ni 4.9063631165300166 6.56190067219834 4.608022205740012 -0.079212860185741 -0.9639471985960302 0.818061776783404
Ni 1.4408371427946556 1.3845350405667576 10.508981973356397 0.27360651401139974 -0.133212454330648 1.6424178712159518
Ni 2.9869210395564716 8.292467543491956 10.165072127720087 -0.6674529813531795 1.275761591135719 0.8884850637019731
Ni 5.828110814837408 0.893754174470906 7.981506844514956 0.4989482794791407 0.6116705842762369 -0.20542857148358168
Ni 6.665915006877101 3.059281657775309 13.15283454826443 1.9693575494328532 -0.21947450805368654 -0.8038942270337702
Ni 4.053352909059781 4.869270075842348 2.3251823056457117 -0.2113012282142748 1.6027974286108526 -0.3511946941095242
Ni 0.14253160728091835 2.0123183065045236 4.944731201534105 -1.760980436843909 0.37099810198869654 -1.1434299967481276
Ni 1.5367619884600934 2.3708040584615175 6.672390304611936 0.1850844606095909 0.5311292350870596 0.16693118673933185
Ni 8.870991103135532 1.310135834051321 1.0059766069366118 1.5382359997896993 0.14291554055102484 0.6358451246399114
Ni 5.988047333016065 3.0807424327522366 6.648005082060433 -0.22426884411853634 -0.4982728506786709 0.3123715505947395
P 7.6675105022381125 1.3724981033063823 6.634524453633648 -0.3903068296196375 0.35744221768113277 -1.3752743392210767
P 4.355101042198239 6.0841575048902845 6.848440936644167 0.40439724627443263 -0.4765956228155534 0.003116434141794633
P 6.971277001086804 7.395201437364635 7.791391806498278 0.7972458684793172 0.9593950604489735 0.2687301597557049
P 0.7363390193627247 4.408882707986705 6.0908709468034035 0.8884755506202763 -0.0368531642726075 -2.783391178893471
P 5.630302885894198 1.2953282699696582 10.096230854206016 0.34807260354077474 -0.7424510321266246 0.6706918000054514
P 2.0002999018650267 9.091232769651773 12.10145394680733 0.26075331219781545 -0.3092409753855577 -0.5876361690348524
P 1.2016180724991625 7.124986558650393 9.396896845581788 0.7440080922010993 0.49481883069179944 -0.5245235568450838
P 7.555045292438903 5.042309156981876 2.040538854946766 1.1224675355638476 0.4848295806895715 -0.48740993982223796
