# total energy = -381180.73122415383 ev
CRYSTAL
PRIMVEC
9.09359289553106 0.00000000000000 0.00000000000000

0.00000000000000 9.09359289553106 0.00000000000000

0.00000000000000 0.00000000000000 13.30939239707737

PRIMCOORD
 96 1
Ni 6.42374124828295 6.812183159149204 5.46079069579832 -1.1229689006802983 -0.8572546449327817 -2.9560662100951154
Ni 7.626250681919547 7.950937413530175 6.773562670445932 1.8958453391763157 1.7733240460109265 1.7946616311464383
Ni 0.49606912867825786 5.659170151227681 3.303004792657241 -0.6609231506544617 0.47922791823207783 -0.04719954050393806
Ni 2.2739347267839833 5.029056917597554 7.097659227882593 -1.9822097228051732 -0.7512735155142609 -2.8038185935098876
Ni 2.1690401336141587 0.2238151439040311 4.828461353598145 1.0513708767273378 0.39151884764986766 1.6633757044145419
Ni 0.9165795946215286 1.3717230088168393 2.0956702986707603 1.1695464913295213 -0.4176795652056355 0.38660084152296004
Ni 8.115476882001333 7.213647094932598 13.220618981358108 -0.2003699260137517 0.5581435588923743 -0.656076878305754
Ni 5.681613138305542 2.0850062423716484 6.417216595435152 0.9778877199365223 0.9937840794518046 0.44082746407700857
Ni 7.618230133052985 0.8658509870794507 2.6693987100252476 0.7865981589574841 -0.7994894130978554 0.32561864541263275
Ni 6.18441607246644 2.067673854458195 12.77379529523311 -0.710614604342318 0.03420209980300561 1.1916613209506897
Ni 1.7903647414357582 6.618416883357039 5.281565984283385 0.31633387767659715 0.11850137337271852 -0.3929226699759298
Ni 3.477244396588672 6.338325130931918 8.309066742092806 0.8695692006340767 -0.5338443200253773 2.74665114315996
Ni 3.4774171748522376 0.5493557638803853 2.5356656059477967 -2.267365117996437 1.3737188218084988 1.358561654452086
Ni 3.8257563413856848 2.776355730046474 0.912403816798938 0.009187580036539016 -1.2024684388685225 -0.6677394022453467
Ni 3.6653999256113723 2.4346276054926075 11.835923053025356 1.088893299152828 0.5829212800576864 -1.055048582689241
Ni 4.720002072043183 2.6766081104123334 9.013785629930464 -0.5219830498114171 0.5002361450526288 -1.180554926624883
Ni 6.311435376965453 5.104442802068975 7.009124917553845 0.15554119973483535 -0.623983340205319 0.036078748000428186
Ni 6.2996500806717295 8.172493708977909 10.025579688165747 0.874638387626868 -0.3054069463514482 0.24719382834582587
Ni 6.045029481733273 3.472797629700068 10.858973823754798 -0.07818287625932988 0.41323129962629473 0.31957372477013346
Ni 3.964388163914855 5.159068014134093 1.3163093822542937 -0.260522427133932 -0.24417201080036655 0.3290891204597365
Ni 5.709066695026799 5.207818765237988 9.183507536949302 -0.3981947170081465 0.0954041252336228 0.35735120062922326
Ni 6.52408904504316 4.036873192276942 2.035964496297538 -1.042171983836889 -0.11724024727210777 0.4885232274910748
Ni 1.283260537871364 7.761936180375287 12.079817759233528 -0.22789795623069137 -0.41260163646209586 -0.3324482667399565
Ni 8.602165969686554 2.6652138386098376 11.432901384792027 -0.9672950320223406 1.7035610183841756 1.8025567176237989
P 2.1681489615178737 2.2461628943140535 3.8305095623522964 0.6276052532286224 1.0165689385568042 0.05672573482681844
Ni 1.6046644824742502 3.6749209172931065 1.827100128347604 0.7826157772709683 0.6458649707697587 0.18426402159082458
P 7.378141095439659 5.790345227645082 3.1981674891221767 -0.9293725459449542 0.29734602372018465 0.11933106836286546
Ni 6.424787011457162 7.786134230867259 3.02398699354407 -0.14630194052475448 0.02294915259700564 -0.32024632535712594
P 4.181315820617601 4.181997840079044 7.3947387210533195 1.5099659492004125 -0.09633846412243408 0.7432334188186039
P 5.040278411136484 4.091598433863072 12.883864142717078 -0.2686625397425631 0.24292322599493005 -0.015741836215289018
P 2.5857903989266777 6.116850677819556 3.096602969642754 1.200082198024533 -0.09476777720120452 -0.2711480251685782
Ni 1.5486752314862475 6.215479785536932 0.9394790800589152 0.12742233001143216 0.03170144486833895 0.7420016032940319
Ni 0.8422903974441063 2.685601673710553 6.665676285238581 0.7033736065091887 1.209252808780208 -1.2454559981736422
Ni 1.664809505380641 3.658079583391892 10.599453597005342 -1.9714925934979854 0.5167197445299488 1.7716584853830455
Ni 8.532627265397899 7.3864526392764365 10.69774351371056 -0.19170145170547628 -0.12795480547613447 -0.07522739317543174
Ni 6.359204020044871 0.6028242709388973 8.244995105807071 0.17728939004520436 0.5432995519010062 -0.21300998337526542
Ni 6.372598882267598 8.882184973369123 0.6003171673986355 1.8281888163696065 0.11145655071079513 2.584372624701291
Ni 0.15226402752447904 5.5219478355854905 11.999655010454166 0.7199376815154569 -0.41130760024102064 -0.6495164514794168
Ni 5.20970113895157 8.149550574294992 12.2413936258049 0.1249882666486428 0.2125222451055695 -0.36640328352916257
Ni 1.1565140411569277 4.2095787070997694 4.892864906021783 0.448078489212467 -0.9878006081748602 0.12534025067142288
Ni 7.943407918675852 4.58045179663927 9.99496792665837 0.6642840967068947 0.363153152022981 0.22283519699580331
Ni 0.20026637593935154 1.3810712222350083 4.3423751711168395 0.043884102977459906 0.4824957903500723 0.8510174057738182
Ni 8.648415982765162 7.716577339392964 2.208826420916856 -1.0324514141150154 -0.37842216236690956 -1.3792112123816376
Ni 2.5558633849585894 4.276643954141595 12.785601506790318 -0.49723103967771787 1.18887861599923 -0.01130308371764505
Ni 0.806967245497087 0.9718959197409084 10.859559451132357 0.6439965501024523 -1.4538377387482768 -1.086783709008993
Ni 6.636313074025284 0.20499413484606954 4.909648040928955 -0.4654861431659532 0.6441976103696647 -0.2129829867920719
Ni 5.331973587998944 1.1526037962446587 10.745417583424658 0.6746047619066123 -1.1261961493683441 -0.5902715497751705
Ni 7.172662272096325 4.405582006725465 12.917364029303842 -0.06104467391714648 -0.5497941584864144 -1.4112810963329887
Ni 4.4579156334001375 8.324884137442575 4.4510463333844905 -0.33361991845055444 -1.252343983542727 0.5166634373707166
Ni 7.913344500815476 3.606200636358181 5.7418718311221735 0.021847434892394633 -0.9053245038568152 -0.3284229476306473
Ni 3.449799933460234 6.749419181510875 12.897519991053716 0.13361740307855052 0.3219265412730262 -0.6182788336213739
Ni 1.7720866198691045 1.6755945064642488 12.91263899847497 -1.4942423678175685 1.3025458012080986 0.9493978400269455
Ni 8.212041744148744 2.239724630598038 0.8138347267941699 -0.36561292641738324 0.881043005601631 -1.14272320048909
Ni 1.369194990013093 0.830379609569478 7.7810563686370005 0.13059224309898154 -1.1370857996976544 0.702304541814726
Ni 8.712407595434087 3.2135847663879 3.077930186147746 -1.1874346844638517 1.0797586838414115 0.36273920441401397
Ni 3.1610692678568437 7.97640856701684 6.9155600316775 -0.5099477159134379 1.3360015097633828 -1.1736774827787595
P 5.147491870475213 -0.047970520840005235 6.572271446595853 -1.0045580301388572 -0.22275009348116478 -0.8041575079974861
Ni 1.9652799993136587 8.742025427246322 0.7980855333905443 0.6719889215503201 -0.7833012333737671 -0.004327680841076417
P 8.811818752133917 4.4361455721909 7.7688118459059075 -0.9362469044672844 0.2806225403179167 -0.5755152174016024
Ni 4.081959225474687 7.550009999723117 1.9964355576716244 -0.31441197806353594 -0.46499146291772175 -0.8570139896768854
P 0.8866634929648238 8.242368876200878 6.5177689980337945 -0.7031332083636084 0.04022182363452428 -0.5945390668022729
P 7.576354138120428 1.5480659607673588 9.98707559745056 -1.652844980086547 0.373690304108879 0.15046944163888282
P 2.3540765602998626 6.103137539848157 11.055859201883962 -0.20531390028258834 -0.23756710388933924 -0.5421587534283437
Ni 4.221945993333923 5.927958567778498 5.831297313547204 -0.24833128438437876 0.16748757346343413 0.2850386671077414
Ni 1.0548749542163876 5.687496692859583 8.877510866660039 -0.042697538868526466 0.7378806391471228 1.908154495560972
Ni 4.045475731083934 3.481018237608653 3.0900146616452213 -0.34724316566094393 0.11993887715019344 0.5100544166946313
Ni 4.045730351682873 9.445060181693858 8.707324277048137 -0.9368775960727478 -0.5153891986439834 0.7470916162224295
Ni 3.8082420816158464 4.47751232592558 10.377412613060343 0.15059979656915998 1.3962457992664212 0.69903744102768
Ni 5.470014326994864 1.5103093633819136 2.1344135508770923 0.8186708711223125 0.8835660291338009 -0.25530643015063126
Ni 4.587235616882416 1.5800390331197736 4.516435631269733 -0.5282346871480837 -0.1100460435165137 -1.2467942573690916
Ni 8.487786759206273 9.074759988501969 8.989163818013115 1.1441614755975134 -0.8523165842012159 -0.7808466011856874
Ni 3.0765170418236374 9.246819858234632 11.673974349148395 0.5647101563662984 -0.017604857565956776 0.1076639164375823
Ni 7.798365113209123 6.537856744571475 8.678216595793062 -0.3308490405736366 -0.1612955857201093 -0.4792415450788327
Ni 5.744177056901848 4.227729518366954 4.847493334009514 0.275446652543932 -0.5461341931363239 -0.6228697954261659
Ni 4.112386387047833 7.532104715462053 10.382803294883582 -0.9915911855655439 -1.5007881393558862 -0.9520015961983798
Ni 5.610901360543204 7.313894862171795 7.942872306058799 -0.6759615330448229 0.43698726439531194 -0.5877935205483232
Ni 6.30106868115153 6.177404912402812 11.346443141703912 0.44175254699443917 -0.5199621627266464 0.11333936955580481
Ni 0.1025711802045115 2.7381262658344285 8.867329680139628 -0.05729806239052068 -1.706342694894371 1.823053294915254
Ni 3.3185793890787365 1.6669919676572567 6.748115160300597 -0.0551067111661567 -1.3226487426055609 0.4967425300770736
Ni 8.216761318821924 1.1322432419224013 6.3253822202723065 -0.20974211125727105 0.06133418013310728 1.6871373256105138
Ni 1.468296964557068 8.028260233272093 3.1769785084940874 2.0488018089031104 -0.23761106975339727 -1.0678565330871868
Ni 8.701331599380264 8.166437376160301 4.558280707986704 -0.07379220339080195 -0.7220120475459824 0.8879626155395997
Ni 1.7903829286213966 8.27163205789316 9.505528027145333 0.43168050747041786 -1.0835814000216113 0.3708556628735613
Ni 8.588061807223928 5.841460312881977 6.232921296564215 0.854310217592477 0.6154105109346434 -0.739408645755875
Ni 6.938365853108848 2.950779933912136 8.183971641834342 0.5076342372889129 0.7056040385016041 0.5660867249988508
Ni 8.492406304358441 5.191604889241301 1.2577029952529164 0.038355202739430716 0.8574387359191297 0.9268623779285907
Ni 5.972780886784485 6.271650908381319 0.6116023160873005 -0.09275434631560155 0.27035381140205694 0.2633791798564367
Ni 3.515191959423321 3.458029634961638 5.460909821864251 -0.7056683160806363 1.5331292746907532 -0.6564838839361855
P 0.4413547994035112 3.8453439403183074 -0.023833397419921465 0.46428698065152946 -1.3046085972743984 -0.4085971432883931
Ni 7.5420712931919285 0.22265207338245152 11.899022584238715 0.9635219381331536 0.26507790771509837 -0.33001908847317357
P -0.22425982059289148 0.17469155549454743 0.5970025528160259 -0.24861333440117184 -0.7954355547434558 -0.7631137026822987
Ni 4.927354175507279 5.995869518952513 3.4752419874498774 -0.38238731766224465 -0.8904416732077115 0.05369363286871399
P 2.6408702906327575 1.7854178269420968 9.909628195487018 0.9402403418973937 -2.345576533500857 1.2084328839820735
P 4.31333660116719 0.35283322010471097 0.5860475015466987 -0.9133671716556334 0.10410653810362715 -1.2867659126660225
P 6.588235248790013 2.471365720482299 3.7774047990065536 0.1997693163152753 0.3737599810045498 0.744215580226215
Ni 2.319366316508859 3.2282436380124997 8.531866131678928 1.2786088307765269 0.43575596309137204 -2.2111088666068692
