# total energy = -340859.1794021389 ev
CRYSTAL
PRIMVEC
9.39850133065768 0.00000000000000 0.00000000000000

0.00000000000000 9.39850133065768 0.00000000000000

0.00000000000000 0.00000000000000 13.75565671249304

PRIMCOORD
 96 1
Ni 1.097622738908103 6.71856544839881 4.145101733037027 -1.4019461920853082 2.927513338158087 -0.26487170524156317
Ni 8.079412005442487 7.6898159425591395 12.29365005185071 0.7687883844695729 0.41411858732725454 3.8650769045542654
Ni 8.467316338141796 5.012765708328392 4.7523454630478135 0.32298686421674055 -0.1758526575986778 0.223054512095461
Ni 1.0321809762888292 1.9657246843471143 12.594211294998145 -0.6069824347719482 0.247675910188567 0.3027576816540592
Ni 2.1752266706384016 5.703508540972873 5.909732330107532 1.1871264091948135 0.9696866721829688 -0.4245930044960171
Ni 6.635069165315423 3.398798721748269 12.589754525813301 -0.9725804487909958 1.1908879331197748 0.008413163764359704
Ni 6.1265068764899855 3.561655947465169 7.894137475086855 0.26985373183718686 -0.02170885243200132 -0.3916196348937901
Ni 5.6239220343148215 3.854146697784631 10.149748585120113 2.6642660558938247 -1.1626597915120171 -0.31412272895789123
Ni 2.62909908201424 6.846056114768255 8.000990912911218 1.770253891726035 1.5178016431947474 -0.493808387149414
Ni 4.802070112407255 9.341912647787314 0.7724064080284923 0.11551992214689139 0.03380769257806436 0.25870002921321256
Ni 3.891195588815103 4.368169515704109 4.3555501483812735 -0.09467444615644986 -0.33683225474026507 0.550291152727491
Ni 4.081252076490955 1.9047754052165684 13.099071514270841 0.6107642704118836 -0.23413159584522902 -0.7575166682104955
Ni 4.843790058445882 0.29662609076933766 10.559501613146296 0.07333326147651241 0.01414081027675629 2.1261328786851057
Ni 5.58691073728844 7.4539135668958085 6.156000312548516 -3.093188283892815 -0.7609552615783991 0.6466656122941831
Ni 8.165727838832607 9.414008549130479 7.3287659468312585 -0.036724866224859334 0.24276407470924644 1.2236962378990475
Ni 1.540433114580526 6.367822788742244 1.1396039632751533 -1.1776590931343267 -0.2595955444442884 0.3936145538366318
Ni 0.5578658853390734 7.375370293851248 6.6900767120995805 1.657491991940255 -0.016407751934062065 -0.5808191461130191
Ni 6.257578371748982 3.7070695552844137 5.06151761283201 -0.06011779122750291 0.8495590760607368 -0.01081817366142653
Ni 0.5409250872461191 4.050180632110757 9.725813219051064 0.007606094482032063 -0.27600226793708593 -0.2244511353326715
Ni 1.1252543319140866 1.61453089664147 9.355758519493579 0.5851748519785536 -1.8147602016685263 -1.0368657411326274
Ni 6.764326749877088 1.9159784184353212 1.0067007001668826 -2.178337328602803 1.0427198859205589 0.07847366802687131
Ni 2.0147002731750674 0.42512615614859345 7.126792159858948 0.5108373176072427 -0.6899344502851473 -1.002012638009184
Ni 4.927615289065055 3.8361767638297195 0.5886074423333837 -0.8758185239778981 0.4090830817858761 -3.3141398907126605
Ni 1.5695778662511233 3.4652555224779666 5.8035527648064775 0.9473628118747877 0.2112742316310813 0.39478337733375235
P 4.304146926739223 7.915915681656061 8.953391773420936 0.3146667743868194 0.9658217899109238 -0.3951068221114421
P 2.6139674953681062 1.857331772055274 5.09633342001955 1.1294678781410805 -1.8181250043757011 -1.0244357428993904
P 6.0182831372165495 0.24043527270645498 12.454261035823246 0.21458606961313367 0.8435781758869536 2.115513194187731
P 0.8191451536131036 6.083170388275499 8.809782677798 -0.4955870763163917 -0.12397370934119939 -0.11640541007563823
P 2.5425482860985587 0.43110266294876526 11.133732168465649 -0.4959406030010685 0.5160101200574339 -0.21683707043083944
P 5.278846670774788 6.635858639401309 1.9008938242942994 -1.7159529642906255 -0.4386075736075543 0.6318156917655442
P 8.576310754499072 8.712278868790762 9.482296177859348 -0.33170676058824167 -0.37752099070887885 -0.9659662859085878
P 6.365350982973341 5.804373253945737 4.78999491829362 -1.5613823559991755 -1.3489611552478444 -0.4827858107866653
Ni 1.392688678507715 8.178725965746647 9.467261395773745 -0.5491652666531639 0.9023268546810719 0.6429223432016669
Ni 3.4805186881384147 6.822851215743843 3.6045732625340547 0.5272484119754145 0.2534470083443893 -0.33693587019766486
Ni 7.569392948958571 7.150060028840213 5.615416390889511 4.532136764234085 1.4945146476423488 -0.5907436043155826
Ni -0.026892870825619683 -0.2392228660745598 5.451325141988364 0.9101075270677552 0.4532155533287162 -2.1612706029285036
Ni 3.7720883853576774 0.8592175424224956 8.922303411738897 -2.4116754820124595 1.1731200676133926 -3.1190576954604086
Ni 3.563986775718735 6.114279426659786 13.724513561811385 3.1642399484240022 1.9808290404075628 2.479567517868743
Ni 0.43999646446630347 1.7641550329187698 1.493726323899391 -1.1178050970911715 -0.312824578971758 0.4667588392307897
Ni 2.359014358132283 2.694193100095683 10.900504606193305 2.0984955765838116 0.5934864571680425 -0.15789375912741194
Ni 6.832400092782646 5.254824102161423 1.3873681870789096 -0.1553555660865905 -0.36722089433445143 -0.562669986007818
Ni 6.167427949941704 7.489477494764735 13.875742962063319 -0.7134883263456874 -0.9672001583156892 -1.2550600969223096
Ni 0.23009598173166496 3.8328308974657297 0.3122586175199678 0.761568983902998 0.3290734367304526 -0.31961537664134637
Ni 5.283903064324863 1.7775666938777965 4.4075736710908044 -1.4300208388343372 -0.480073811172141 0.32485939864910507
Ni 7.171535603676495 1.7116362092053559 10.858880524865107 -1.5789694729533192 -0.18644097463748535 -0.4079569386012329
Ni 7.246686017851953 9.036780913592667 1.5257357386816288 0.31255332758824234 0.19349942414616353 0.8648684527242976
Ni 4.000537749710211 1.9041926981531772 2.052178675702265 -0.5981656078112666 -0.023340217387837224 -0.3325608810584208
Ni 8.472053182657106 2.4555463621337994 8.743054260388753 -1.4961588681139908 0.3771371250068989 -0.5319787275715483
Ni 8.02765446031189 1.6064199902591012 13.004129736642323 1.273944078311006 -1.253859134635673 -0.1593178931684482
Ni 9.484497306798804 2.216335714110569 4.670127376103478 -0.725870244949808 -1.143906936384546 -1.0385642118809728
Ni 5.385961386927576 3.6672011139472085 2.594275756025883 1.7333919857026794 0.09968475488684768 3.2457287491281135
Ni 7.375332699847158 1.529916191936412 3.220033593200781 1.460156481877453 0.4428524649268373 0.35728280928513306
Ni 3.2527272188574528 4.845462991627877 2.0245574210474055 -0.1451320885863694 -0.5251802165924763 0.15636395274644685
Ni 9.179064820571437 5.4578693182502915 2.460845237010253 0.5220696959879525 -2.5491526251567325 -0.03130215254739125
Ni 6.937503529716631 -0.06565228904217646 5.177808085533011 -0.00742765992263882 1.0427623091227205 -0.6539392631374609
Ni 8.496583270325685 4.869729921267826 11.800908259796353 -1.2553727430667219 -2.898668646012253 -2.549412306576022
P 7.419157910114813 4.909758137122412 9.159355224077272 0.13199760808694042 0.06391762458956735 -0.397112025466929
P 6.361168650018354 1.8177076917446524 6.50553150542329 -0.4512113784144938 -0.5073210769238683 -0.18863669673722352
P 5.394429436348799 0.4389372534010741 2.807185638787908 1.5792682351406608 -0.5639668504423706 -0.5766220773125359
P 4.482690250662582 3.583686033861776 11.858875394552477 -0.48651519592211057 0.0693645066367515 1.0118471076011026
P 1.7221813273525373 4.829100201347803 3.9057125134943695 0.4986741998821476 -1.4908487687549872 -0.9952418949442537
P 6.642475184121109 5.722089377494244 12.436323996621914 -0.4871667134631803 0.43794242921972965 0.5430995200750582
P 2.7258096575351836 8.497814473959625 4.878099286428312 -0.7484219049980787 -0.3648814475679974 0.2690677456007818
P 9.125982086796677 2.2907248497032087 10.94621515576606 0.7748932118157299 0.9685116780382611 -0.2911540359768599
Ni 5.2715534339813725 5.952286863036951 8.759010095574554 0.7999833220151383 0.5714130223077708 0.5159790097091823
Ni 2.2679146877217384 0.7357062013859529 0.1797923847092409 0.8810445482635278 -2.2902471648009333 1.1834772424780005
Ni 1.8985817930427784 9.159826088978496 2.481438292600529 0.5802349914747749 -0.33960853193382157 0.6002245472228244
Ni 8.043415746526529 3.038901922095842 6.413657398528496 1.1215378246607266 0.14873111879153741 -0.18097403798564315
Ni 5.024391654093155 0.21968902154951334 6.6010785465176545 -1.4479231730360547 0.007812554065883317 0.8502962113370776
Ni 1.944249109510831 2.740546507138375 3.081885966521987 0.5522220512016167 0.5633731827224298 0.4736054298389779
Ni 4.189457018762346 2.7259976275556324 6.383710954720684 -0.403958101854485 0.006796968317175391 0.36528048277862896
Ni 8.321658369295967 6.920332468348626 0.8980032764419152 1.2888798736852318 1.3385702989318238 -0.9195604449505389
Ni 9.46532436471302 9.169929477577623 0.08553387810505332 -1.5135387541533354 1.2445034044523857 1.8370444669880233
Ni 6.766676375132699 8.701592773128244 10.742727270279035 0.7596648249017498 0.4994609574495011 -1.1117858874802855
Ni 2.4650764421705573 4.662135830684095 7.919269066820869 0.8404828247910816 -2.5940888235477906 0.6809427883094983
Ni 6.30795433722928 1.0621903900534913 8.786452778709988 -0.31132639715967675 0.7784176800292206 -1.1556360518960163
Ni 2.653046462619426 4.557793672332927 12.606481038082944 -1.2376323883641651 -2.6636147954630705 -0.33068346153004985
Ni 1.1426791528096967 7.683631728886371 12.751630548023458 2.330581859864238 -1.560585314019177 -0.520630906658897
Ni 7.772626135067888 6.7723718667523 10.466760964457233 0.17239658072927727 -3.2284910450935884 -3.937843752004347
Ni 4.6806132836942185 5.190425573155641 6.734466772278683 -0.614060424664652 -0.0880692821351064 -1.6152063437981667
Ni 9.650662804875605 4.722023079199103 6.988024232112673 -1.6107614206529357 1.428420841337069 1.5110118739664236
Ni 0.10682994157180795 -0.12706867367353766 11.396354482535784 0.5397768834597284 1.5552808710871278 -0.896820580150862
Ni 3.9520884769395144 8.684083365723431 12.438359711943374 -1.4443010029024352 -1.1991064643748255 0.5009059174261437
Ni 6.450426214228499 8.165173327272283 8.35822605707409 -0.7199083709394182 -0.5793675012681572 0.2593158084203405
Ni 8.257259840290185 7.372560142045538 3.143167012738625 -0.5569611085484988 1.3155956924135213 1.5508632016354065
Ni 8.176827468540113 6.630783448849189 7.683386428009685 -0.9828489205965396 -1.2278578254759047 3.0927802498211188
Ni 1.1703483398197703 5.8157924326880055 11.073138152673751 0.7980542233132255 1.3735591563021827 -0.011752769660553952
Ni 3.6927180442231426 4.8392787779551085 10.163586938025558 -2.7957646128571594 1.1162891746672776 0.4450121915823174
P 2.474521935698113 2.9103774206139277 0.6278424247016762 -0.7295183832253564 0.5969744157166428 0.5762994038657946
P 3.1943719260091012 6.6218172788737775 11.751071768274743 -0.35856193310787277 0.04450682416312335 -1.9598154142703732
P 0.32037422315284775 1.6899726643486237 6.982329680343175 -0.2790130297389517 0.2231938658868027 0.00974268120906064
P 8.071968392632712 3.4759510166415066 1.7643693187420815 -0.08956926371940056 -0.8178380908083721 0.9906954132241519
P 2.859456342074329 7.998556701146406 0.8143566173421687 -0.0842815329579 1.5886450483698704 -0.32929120916821353
P 9.207523481667396 9.404422078087586 2.8909159445467543 -1.41102732845097 0.2113505933949715 0.436793403216951
P 0.03765321464621518 5.826036798802469 13.202624198536125 2.1252620460443787 1.83768955677119 1.7480087071745896
P 3.984861050004775 3.0589113307726237 8.56445078605885 -0.17347644405701737 0.35707557837033344 0.8345885707938336
