# total energy = -340897.19109446683 ev
CRYSTAL
PRIMVEC
9.00717269049066 0.00000000000000 0.00000000000000

0.00000000000000 9.00717269049066 0.00000000000000

0.00000000000000 0.00000000000000 13.18290769150495

PRIMCOORD
 96 1
Ni 6.338014296827698 1.9289671388069611 11.407631301641016 0.5536855231210206 0.6170485607586985 0.39035130970432774
Ni 4.67057042286256 0.34555748574744666 6.122616764352156 -0.2996366195265743 -0.5142918518147466 -1.253661673912886
Ni 2.534501357811133 1.4773745116544035 4.810772473188783 1.3949844160554943 0.5836329614127304 0.19089463953346478
Ni 3.4647531666486984 4.388312646029489 4.738543953789211 -1.3210669999407378 -0.022820597438941343 0.7099430321965902
Ni 4.910368386695309 4.56948292152556 2.7415303259551944 0.3989809603548677 -0.26625110208759306 -0.8632771969777777
Ni 7.227814892219262 6.075644357734276 2.593091216021675 -0.04574275345275348 -0.02205955090320072 -0.5679931979929443
Ni 4.848606202193143 4.63673948149022 11.307032889791907 1.2815630283088446 0.4796094699412128 0.24571235870429295
Ni 5.758889108735054 7.839113701872607 12.343644098258599 -1.1571684293801425 0.33003374376119293 -0.224851970315516
Ni 1.843002680751154 6.569138353168018 0.4120448331473573 0.6210101165096079 -0.35544884140018784 -1.1287978486572494
Ni 2.751249966220075 1.5564304681040915 0.35818734357287135 -0.0979394900609668 -0.5966990505680692 0.4361614260599069
Ni 0.6105539164553978 0.13978862109060278 4.9949511444298915 -0.9687299646966541 -1.0367220164659114 -1.01942029196267
Ni 8.569775566655412 2.2620613994274357 1.3778902870917054 0.21622951875382757 0.5421304712935696 -0.25871519872186416
Ni 6.860421317236201 0.4985163950368342 4.732479424282822 -0.031220905687494617 0.8498457540632202 -0.0018622500197193735
Ni 0.9352417826182565 7.2979357331627295 2.460682171679304 -0.7599077941504913 0.7659632563159519 0.1976486704278467
Ni 7.73772896383026 3.907113441589688 3.5822048996910407 -1.244265577409967 -1.1647626967876326 0.3603452502605407
Ni 7.681190939603908 3.925551124494156 12.711434889566078 -0.5617418177665938 -0.5163808731332914 -0.2960918395981094
Ni 8.015897484171573 8.56520893000052 6.91881211692589 -0.7163355659864954 1.3554380212214399 0.3374071534071286
Ni 6.784553899989338 0.7542525512972604 0.38393074440787794 0.22175661921964387 -0.590020610106629 -0.015382910213973507
Ni 1.8800491828449863 6.422312427898978 9.188763799804383 -0.3846005232634796 0.09912862527306154 -0.6520081075530191
Ni 0.19855682132435384 4.819765234601494 1.3537663759422012 -0.11802803328072575 -0.23027134155887438 0.10312823335075788
Ni 6.460187589898628 1.9079624116290335 6.815273763845703 0.5194595120586151 0.46761450236286567 0.532827705835405
Ni 3.5549149672709355 4.35974189362452 0.39430610685910217 -0.25896562416977337 -0.30188993433712524 0.4659777380903911
Ni 5.90766058334819 5.46733592948019 4.750711743645412 0.3905924791808563 0.6577992603134994 0.028653144960318393
Ni 5.157327052975079 2.94956089172455 9.454109708820441 0.11730709595430118 -0.303119178758536 -0.5032255666982559
P 0.24124181364690947 5.50859778848623 12.371117777005647 0.6127753873046415 0.6966455437567357 0.30536195204612576
P 4.026953876882282 6.244024447727493 12.607948778088648 -0.36696815489369705 0.10782666726769172 -0.3002308014671474
P 2.557478655851825 8.577179462770445 1.451319462637426 -0.6358530950597113 -0.5927791466883726 -0.8532951460644014
P 6.335240087577782 7.7011688490724515 5.827148167042297 -1.3266619775300121 -0.04658067597301655 0.15059876812789547
P 4.628155645726684 0.9829888061046181 12.42529952480415 0.4600076365498852 -0.7898994554165751 0.430563106036523
P 4.008209950099578 6.190683969876854 8.244023953374324 -0.1765995630670313 -0.44519345435518815 -0.022428247096529113
P 4.6693994903869465 1.0229266106959267 3.833905842497045 0.6043501393554237 -0.17775116017297127 0.6077823049654243
P 0.1498163066682987 5.531223806784238 3.5810447758228947 0.5562535409585129 0.7456456278045223 -0.6462385520590935
Ni 1.5026036029174292 1.1558004251593874 2.6022668230440402 -0.1895764349426735 -0.3208492490484474 -0.4212042905294423
Ni 1.5817136024044531 6.7437063709362075 4.762931775104372 1.4762544158805802 -0.488439666638333 -0.5397617139510769
Ni 5.9388614302368445 5.759186345440402 9.317626720180224 -0.30086740660988187 -0.7351568124580564 0.05198102105298145
Ni 8.615694134045238 2.3831898604432045 10.197731093956419 -0.034002582197689826 -0.14289651438763132 -0.059791775346651865
Ni 2.4056627568020943 5.123297953799174 6.972980353965058 -0.028884287134517996 0.34097995836005146 -0.18608050597427309
Ni 0.4727684906153829 9.035365340477997 9.060784483088986 0.11863507073710534 0.06938610390330631 0.13055496210314288
Ni 1.6231195761767232 1.1147817598213587 11.301680827661064 -0.7407600175774469 -0.5188349911007387 -0.4724273503704767
Ni 4.136237905548576 6.761900860172662 1.7380871309361872 0.09183594826639023 0.7799086627524503 -1.258326169268091
Ni 5.665277560896202 7.830529866109072 7.973707886357931 -0.38178825062566507 0.6787750912342181 0.24850740495092685
Ni 5.2213050020080205 2.9322761269499176 4.845312279067514 0.6460454622116809 -0.8583447926731669 0.026338895004844962
Ni 0.8734606830530232 7.29347718258251 6.895043088388226 0.6637696189643214 0.14794924632019038 0.8235485109295881
Ni 5.067273338427514 4.400499350948758 7.252840421374988 -0.6187825127306699 0.2870670103916798 0.17937326915742655
Ni 8.083361209112688 7.086492349585606 8.972524096663687 0.43590020197872026 -0.1136018791885721 0.29582315931775505
Ni 4.74242064100078 0.39216239971144057 10.292199223937049 -0.6993135775072021 -0.5912840502000849 -0.11445754232064806
Ni 7.990686407254326 7.173060288224998 4.6938665748235335 1.2446299027279208 -0.17148898131334336 -0.4837800563791346
Ni 7.015813063922999 5.985293406481363 6.993532921063942 0.857977382031419 -0.024349889599274192 -0.07714183658932522
Ni 2.3538354839968636 5.278050191210828 2.5595674192448614 -0.0128089788392102 -0.4288533224342678 0.33043097919961156
Ni 2.4376292133863418 5.001331825704697 11.39932668823705 -1.065249691591959 0.7989214564095273 0.6240980114063124
Ni 1.058838209005703 3.4715806036988135 3.6690277413232018 0.8924910995375727 -0.6910269120183776 0.4087295551011993
Ni 3.5467814901518664 2.6198893568020227 2.842761942058424 0.2625515417488188 0.3588573528611046 -0.3598587975424254
Ni 0.9548774195170056 3.54186357375429 8.191147344927487 -0.1673497623339892 -1.339390480840274 -0.4224417624809692
Ni 3.6050128628814133 2.5630180671787657 6.951980130373575 0.2007350226626543 0.7420617671080059 -0.4040745728276912
Ni 4.211546878076301 6.660993502293449 6.077557481255971 -0.07301470179482909 0.9997953186428911 0.03269491912985982
Ni 0.5987788393371708 7.405625492227612 11.10120818066315 0.6205180073645378 -0.8061318581150375 0.8674495831879125
P 0.1623461848746518 5.505652442951418 7.84247247664304 -0.3524671330640446 0.3918312366839639 1.1255675146454098
P 8.490602516958162 1.6195437285396572 7.846308631576608 -0.26435002841013827 0.35732137583255236 0.14954255894923923
P 1.7418161005123716 3.122003216690857 10.3006758743432 0.3218792329748586 -0.10094279566366487 -0.007342556408000258
P 3.9560944477618887 6.286087945120685 3.8679835804065528 -0.7624626993618611 -0.5894876204212944 -0.14988220167684507
P 6.901160760214661 3.9004391264786915 10.565783993994978 -0.412561784363096 1.0792223517219672 -0.3365383776489301
P 6.361730183045315 7.769947621255408 10.13896109228809 -1.059793039352762 -0.14308934712472776 -0.34096607440298055
P 2.6102516818104355 8.40443990109879 5.86983496079943 -1.033238428792685 0.5536227882038852 -0.3355027372955641
P 6.651031569077846 3.820698624889414 1.6275754246050766 0.8661570896287342 0.34041714387804595 -0.5136503615760057
Ni 5.086260458878231 2.497022511418612 0.6882759106001751 0.06276885569710479 1.5332902257486498 -0.19881286593927697
Ni 1.5198793605191725 1.1104583168344784 6.993902215152404 -0.652643941364805 0.29050277554610615 0.4102807016384031
Ni 6.836327129757232 0.8720879899046886 9.179904344550435 -0.00847949822592088 -0.0008698041994630181 -1.323481265809185
Ni 2.767111597678193 1.486057426319722 9.056657396471094 -0.1726287513447414 0.7689485641965209 0.9985565611397833
Ni 6.3562538219286 1.8393547757309736 2.6540229391834442 0.727649705447734 0.43664042257885444 0.39993561095865315
Ni 3.9994009350138082 6.982882839839593 10.403318013720899 0.6978835299288948 -0.47337788720920404 -0.36082964609612694
Ni 8.103807491571477 7.292702565714027 0.34266077894623675 0.3172800436399504 -0.632961118223897 -0.13978522245215927
Ni 7.272814727974377 3.9251367945412468 8.369432622947103 1.11212295910473 -0.7548455491362355 -0.12836129688593376
Ni 3.088595612444316 8.308999897163403 12.201414533314987 0.21765699522897355 0.09725660506132928 0.9203916826025828
Ni 0.1535002403800365 4.8731327339708 10.187764657154371 -0.464747979448348 -0.1093616158549794 0.11030186828106166
Ni 8.616414707876386 2.383153831751647 5.551665585656583 0.1649378104583869 0.29746866534097804 0.6038893976689212
Ni 3.6347275262433274 2.6470820117549234 11.522547515515011 -0.42454723885974627 0.3614253706985969 -0.6746482135500381
Ni 1.06307158026369 3.1383602426578885 12.481775399537565 -0.2452727000637131 0.7947135889757668 0.6978115390403788
Ni 3.1805138117799734 8.357737709667592 8.013098955554858 0.3067863431974781 -0.5902612653625253 -0.0864865110290188
Ni 5.603335232936249 7.739296211913004 3.501498829168027 0.24567430637750592 0.46987450204163594 0.757729812662566
Ni 3.1564646601654505 8.393298028234684 3.5565767906690176 -0.12260665379034369 -0.3049909418599521 0.7518021343242214
Ni 3.2370878646978825 4.381674359610049 9.2607689413163 0.580287184868949 -0.5760919158406789 -0.5635747572102746
Ni 7.323939441294239 6.197043033936724 11.393762957543307 0.018747198700516103 -1.120023187788413 0.058932255559833994
Ni 0.7917989514864509 8.89578118221198 0.15148083221824774 -0.30202877390783467 0.5386036890872337 0.179654033622639
Ni 4.661419135206995 0.3494665987814178 1.6708152587776155 -0.5773473855143347 -0.7689861023026756 -0.2787464063411264
Ni 5.990715724560742 5.597588656632854 0.4535345736274982 -0.2852957774238699 0.20962615450469704 -0.386080964463748
Ni 7.86113623958703 8.893115059036738 11.097714298299376 0.7045663412657092 0.20682185228668254 0.9115614859054624
Ni 0.10396619379243101 4.926193989461869 5.715198915918048 -0.31208847213668184 -0.7889172940089639 0.2782794940070369
Ni 7.8990564374511285 8.690003310382247 2.4948517827522827 0.35489296889671784 -0.1473774329771204 -0.053796476995165425
P 8.55803021320772 1.4982621455847698 3.4846383022364815 -0.6749354057731537 0.5601983845388738 0.9450395630582499
P 1.9282465649758145 3.2298731192135257 1.518288693786916 -0.8405635574303459 0.4823716060673822 -0.16240141718977835
P 4.778872669683916 1.19961131409311 8.114000909130336 0.6027833090889361 -0.6087953196109709 1.1301988427698342
P 8.460626645582458 1.513160009543729 12.35682699649943 0.5588267010023279 0.6729412581612604 0.6700554519730331
P 6.245762832095134 7.760156824324702 1.3543329271169402 0.03386451395792878 -0.4913290723709861 0.38852891178360827
P 1.7963815538759593 3.2431226705337366 6.010444135340252 -0.6869758818774556 -0.15180615817243534 -1.0723446507655274
P 6.820708691967126 4.012362256801561 6.041120764766747 0.9598504028188373 -1.1932489771527837 -0.7453818326201743
P 2.3088356482417494 8.391370493236366 10.085781842832171 0.12395056941274782 0.8051903201373745 0.2644940101871703
