# total energy = -340891.9040968707 ev
CRYSTAL
PRIMVEC
9.05500196870340 0.00000000000000 0.00000000000000
0.00000000000000 9.05500196870340 0.00000000000000
0.00000000000000 0.00000000000000 13.25291067482462
PRIMCOORD
 96 1
Ni 6.129077342263464 2.0055561823041366 11.401095119238107 1.1560070620821898 -0.2438457378091994 0.44644943824947625
Ni 4.590541945284441 0.2888826356504117 6.100315033776829 -0.4094011272469272 0.20461430311240245 -0.5154411349278414
Ni 2.792725619830948 1.6568118336533797 4.927776480839441 0.31223528212719126 -0.3734673894647955 -0.15341772563392933
Ni 3.1804155322649237 4.242929471888951 4.751698344129325 0.46636134668205487 -0.1409638161412927 -0.137465316069731
Ni 4.834918340397559 4.350358016116831 2.6358051509413745 1.704667364074477 2.6334578122637162 -0.004576820737405021
Ni 7.35124002289236 6.097357670109868 2.696106031540763 0.7768963582886879 -0.11479564238635714 -0.7396778402568616
Ni 4.8243239880082625 4.626843448471357 11.440720713674692 0.8754310587314923 -0.27542145573295146 0.739282918811288
Ni 5.5694148310452745 8.05643452693173 12.262176010933839 -0.32130510563894343 -0.3150210724024446 0.21807762770615993
Ni 1.9381779121086162 6.369650636518885 0.4046408762568512 1.0254153332038403 0.34802066725691677 0.08890746176568559
Ni 2.458568879470069 1.619650105272461 0.3577685636859477 0.9495449071277711 -1.2618642643283364 0.01002370278458919
Ni 0.7888138258976624 0.16600173043762953 4.553885486017473 -0.6557832583247352 -0.9031562925609027 1.0956360171933002
Ni 8.83752805808827 2.062122780061349 1.1492336941815469 -0.5071716958301976 0.3938117574491024 0.6198999141645647
Ni 6.769311261652564 0.7216709857552371 4.903179473292188 -0.35448442060438945 0.19317829336131892 -0.7898896852245622
Ni 0.6581139264214971 7.1559055188394405 2.378791594978254 0.8382557352327756 -0.5315789210299684 0.5655807318967099
Ni 7.699730831485937 3.7827542681076904 3.6518922840949717 0.8276010837324069 -0.2870415564703831 1.0989653386768494
Ni 7.779179419403622 3.8430515267062626 12.728916996695851 -0.293569587396888 -0.018017776733659296 -0.7540708757537401
Ni 8.055230211660126 8.715801665635858 7.023539498987523 -0.8751747197463121 0.4216197808003061 -0.2748501566105137
Ni 6.780077659080661 0.6394253077067364 0.2570045009610783 0.4272936912566319 0.04428030997461407 0.6148464109010572
Ni 1.6393809547222715 6.720097325553564 9.010694106141633 1.6861027136984124 -0.17522376576542725 1.001448795085914
Ni 0.11006083332152862 4.856188540194532 1.2776309066383973 -0.06968897985570578 -0.7415591164399744 1.0104720816304469
Ni 6.3133466338208954 2.1669163186949683 7.131470595828741 0.9047100102012677 -0.07502479024632241 -1.1912592004162645
Ni 3.4944973330983906 4.204056348122069 0.44617798162452926 -0.39534413493322884 0.3954480075009448 -0.3055002773962029
Ni 6.176317287917278 5.57690331773412 4.674367721189294 -0.3992560683931253 0.6145656464358448 0.7234850325470831
Ni 5.507062086983139 3.124872149738472 9.378396007067805 -1.2622926101150067 -0.47099781701280174 -0.7712905820661361
P 0.4680829370646561 5.478067970444225 12.406062709883964 -1.2998582270736065 -0.926910714668023 -0.44119873137349824
P 4.033233734597207 6.233336635776598 12.766197345603523 0.182531355170434 0.0478338316538273 -0.21386384673512848
P 2.3511765552503574 8.259194132659198 1.5477416175552605 -0.12331010761527149 0.8824257448817706 -0.5355895848512583
P 6.4433674081439 7.826410310055394 5.783941411926497 -0.9722896570234546 -0.8375065157715771 1.035315880147004
P 4.474692249157376 1.110921980541277 12.912006421487192 1.179367076964369 -0.616953429941731 -0.4614741937930827
P 3.8230580821972304 6.21378688636763 8.344906970989632 -0.5152627003684481 -0.011396671872715857 -0.6550538363578784
P 4.678855380201377 1.1227025381980937 3.8868795475906 0.5869471133876278 -1.4131919402024566 -0.7324941780242288
P 0.4255063174625411 5.6002471129987414 3.8747404118529154 -0.3934296915193353 -0.3345665986345399 -1.332934440802285
Ni 1.6060585472072175 1.186549357597182 2.6529009947969238 -0.28764216616885946 -0.660501489736011 -0.9684561422099771
Ni 2.086344910524058 6.379430038724391 5.124224750143543 -0.5149474831208745 1.0917960746219197 -1.8356491293023935
Ni 5.659711311409437 5.803713008885497 9.509307793591754 1.2178845163132768 0.10456856534171023 -1.285160772962432
Ni 8.502474872525218 2.547407504505448 10.184464139356752 -0.07873309233584505 0.3413165157638638 0.3083889117979076
Ni 2.377644326219515 4.946629900591368 6.88327027335323 -0.3735234395137116 0.6537281755679193 2.0628060936020023
Ni 0.6719255210363645 9.314156200580086 9.15483253414853 -1.52897205798927 -0.775734990990735 0.448218357224441
Ni 1.3521472349437322 1.1810076963473957 11.341417222779217 0.025745998615852434 0.48066696467144965 0.7799582850434632
Ni 4.202553217783075 6.772824602444911 1.8192268777821199 -0.24869175304759106 -1.039674414226016 -0.3808888787398472
Ni 5.447806153619413 8.077034656577585 7.958836998420995 0.6114211872695922 -0.6314487953444287 0.7408461495333499
Ni 5.201374273042731 3.020413646180412 4.622999600104471 0.35435972210106714 -0.061271959436604156 0.7082021382460835
Ni 0.9062970443931283 7.440114867935907 6.992447338475447 -0.4520055921810151 -0.18462500447466915 -0.5544463125464452
Ni 5.119680044618595 4.6269792735019895 7.34616831624856 0.5012062222753819 0.24233367204004713 -0.4535120015232126
Ni 8.17128817283416 7.188349591156407 9.023178237457126 0.28623423007773935 0.4291150607360868 0.7568664362210061
Ni 4.621274622215445 0.27717632901034067 10.269323090994613 -0.24438489814212103 -0.34761469006774975 0.35595457739201275
Ni 8.324544082397281 7.357650964338191 4.823568800837948 0.22378110584884042 -0.6981588950774685 -0.2067732584369342
Ni 7.145836356568588 6.08319564691597 7.1011481104902465 -0.22854278890354188 0.7417792028705805 -1.43562918616005
Ni 2.343742398573765 5.256473960469117 2.531690737460915 -0.321500252368885 -0.5533487086068922 1.019979764010566
Ni 2.5783937214936308 5.388468725237307 11.310100498216496 -2.2317298852913305 -2.0066593712071055 1.1691430852435154
Ni 1.1772589255019523 3.263169195927988 3.8363734627001884 -0.9766301933803372 0.8269557368389242 0.29437537112763495
Ni 3.74087488366282 2.5485574897647987 2.375080855141387 -0.5055932955994841 -2.2986477301598027 0.18903187529311316
Ni 0.8780961460331055 3.290642072123823 8.308978533886853 0.11425288250900968 0.03850586938468207 -1.1456596574095947
Ni 3.6387254056255043 2.9226015141212787 7.061335983011595 -0.22125139744845118 -1.7051993253185471 -0.1481677900888997
Ni 4.261800096144759 6.682229307013357 6.0969619665206265 0.6354748857846864 0.7150430724273169 0.4667326139785446
Ni 1.0185881247176347 7.244092183727786 11.359136050775268 -0.4099135481069715 0.6199096843565776 -0.06322959738360724
P 0.13930939541782633 5.5001440654229485 7.897568138103302 -0.03168267581526156 0.39312398735345844 0.09642073942359523
P 8.406700115925565 1.5931008392849237 7.852668004977175 -0.46334390001196973 0.7366696495581572 1.4996691952600947
P 1.758309351543662 3.1247634897139664 10.31356130347146 -0.9158007207977905 0.80959976205898 1.4385378751664128
P 4.1481507655139325 6.088855023192304 3.9568819573779317 -0.6986342920519903 -0.16486196291512897 -0.5507287544855418
P 6.816641757326798 4.207940943998144 10.591341601118012 1.6311955201375716 -0.12580279213013817 0.5249683576919861
P 6.377782028352722 7.8323503913950345 10.091309900348092 -0.10328558486422856 0.31863810032974155 0.9777177700175613
P 2.43706324962 8.490486049821433 5.847104578671405 0.7320943714826489 -0.09262579115753725 -0.014808011547109982
P 6.847157114208791 4.120578284295633 1.7466012339031827 -0.08088279168899619 -0.49507105591192163 -1.7968972053451762
Ni 5.532542862729705 2.9816763474441617 0.1653126447822231 -0.09805313282069564 0.35292813186086314 1.3850769271337953
Ni 1.3864838026875053 0.95984832647031 7.09958431163757 -0.5380200486696218 1.7985583950976831 -1.8513469996536247
Ni 6.837993452142151 0.8921721467076031 9.366255965829913 0.4321433060394492 -0.7748551594889429 -1.203002714105438
Ni 2.8917782871698536 1.626124431732587 9.2828684520239 -0.4992105320015919 0.38466865749725365 -0.5519004061961398
Ni 6.381222929128732 1.9395633274210626 2.510167903106966 0.42197819258098945 0.02501040600140854 -0.10319559625358359
Ni 3.9085463564770193 6.959339534508791 10.518981268798909 0.07582337488821779 1.788634965336384 -0.31419343429482666
Ni 8.284892228454776 7.006434600129931 13.586088844009995 -0.4865396214021427 0.05350697077920462 -0.3081562269618112
Ni 7.453842251031782 4.080890210344959 8.273222141822872 0.6639321126841147 -0.5607367735408472 0.5233508766932212
Ni 2.9726122903999856 8.401031684647188 12.59560654013094 0.671380855652676 0.06715515769025854 -0.29660117513436013
Ni 0.2537401727248889 5.044152272585154 10.057143566642713 -0.33828801335018516 -0.830252405312325 1.2255178644888185
Ni 8.449675155617534 2.156512121348556 5.6848760675847325 0.66810578444583 1.2549834780481033 0.7331310402772793
Ni 3.688102331761262 2.522261763834441 11.396602027224802 -0.5159764386060209 0.09552085331714516 0.6990636662799251
Ni 1.1892024731955273 3.3302033760459078 12.751089074696221 -0.4894064014269765 1.1195326213052397 -1.4640100512955883
Ni 2.988811689053364 8.683230823290302 8.038102675297429 1.337425386694103 -1.535582364216936 0.22318615257731886
Ni 5.86740589324987 7.835519642109781 3.6050697740352997 -0.7200394972006439 -0.10856894475035495 0.7911502971045407
Ni 2.993158090033588 8.456031767051112 3.612226847649403 0.8583242238478767 -0.3848429782915888 0.6514308948933104
Ni 3.346312224678864 4.1694390753149895 9.368708060382923 0.21226076391406667 0.9256207922120059 -1.0966384903158857
Ni 7.199541573680485 6.199824073218658 11.51056375542608 0.8003671877171183 -0.11470333978286697 -1.033751620983678
Ni 0.5195352696684711 -0.13313116752447815 0.25121201615472505 0.8098013365468247 0.33847673232222353 -0.04090625129605858
Ni 4.732125957215252 -0.07085448547949594 1.8764400026851407 -0.6291733690466906 2.8706289662662177 -1.2401703242946707
Ni 6.092567574029578 5.6881711828278645 0.29185992032186553 -0.7348503369612311 0.028020653582642066 0.74602897928587
Ni 8.252774136211325 8.735677395118342 11.280519617545254 -1.3433201549119833 0.10502236504967719 -0.08457335316670597
Ni 9.098103851854765 4.749366681103475 5.805079408693656 -0.6120868458780492 -0.4842284567704629 0.4198161519326641
Ni 8.140781870954209 8.679735592502038 2.5721647855888463 -1.265354536869782 1.826428382035074 -0.15781714025320562
P 8.561259945782753 1.6442525458209396 3.5567097246288735 -0.917966875211174 -0.463148496171712 -1.1989712243485418
P 1.7878105481969355 3.183358407928617 1.7036877682251002 -0.22969104357537218 1.1192960798144014 -0.6261551510456571
P 4.792912185924099 1.3084387400863504 8.25961156825334 -0.7857556084515307 -1.2580217506537947 0.02329676574441149
P 8.404554080441578 1.6497127120523465 12.206102910787923 -0.5626866981783664 -0.20109883375997625 1.2383805793840996
P 6.4153240668194105 7.683078682730452 1.3872616273629246 0.4461234223686252 0.06711736247378762 -0.28767044830363364
P 1.5555859658243616 3.022260866597007 6.126780993745578 0.8755174477977115 0.12790055519943136 -0.30393807511540555
P 6.794221572270474 3.8922111327930087 5.820135160589112 0.656652805413882 0.1979014098686011 1.2693927114948977
P 2.3474096744008293 8.659307507894983 10.271880223571312 1.3688789772176941 -0.6441276763636777 -0.021978046932987955
