# total energy = -340859.8596104077 ev
CRYSTAL
PRIMVEC
9.37327739963866 0.00000000000000 0.00000000000000

0.00000000000000 9.37327739963866 0.00000000000000

0.00000000000000 0.00000000000000 13.71873893977304

PRIMCOORD
 96 1
Ni 6.195314472460701 3.88997567651731 6.803849190823427 -1.3883969926459636 1.0996173704385512 -0.35712211533755267
Ni 0.40712548587572356 7.628188620891567 3.7079147629537643 -1.0425314240588368 0.716572878808282 0.6482946632571739
Ni 6.5874267801464725 0.8021397602016949 5.6827817971393175 -2.169155147882903 -0.1661310594355397 0.7652806284266304
Ni 3.212643915037398 7.028120783879272 8.162169229243014 -1.165916350776102 0.9972391278799406 0.7322836046753196
Ni 0.31569760213805764 4.609674651219789 11.199855300225728 -0.4668295445677251 -1.5394405616207616 0.5319676718279548
Ni 1.6327030463715568 5.677562756360041 6.8834320640855715 0.3850268121676208 0.09233525650031195 -0.28136610335216056
Ni 4.166731060944199 2.119232375913727 12.886875551000706 -0.1810840812009462 -1.6426628973472228 0.027627017688649197
Ni 8.866960943788598 0.6716871739129584 13.325930168540445 -0.786822102042832 0.8505615491833223 2.2036184717670952
Ni 4.994550788859582 9.38058841789414 13.204121618542386 -0.9321053714950851 -1.1304284422821371 0.9733584646076011
Ni 2.6657694264848533 9.05799770765788 3.7466695151197005 -0.16884742992543825 1.6266264127096501 -1.1076631235611631
Ni 4.900583684311741 5.432507795631985 5.226043554717785 -1.3822523132008064 0.32195996561412293 1.8560611172998422
Ni 0.28023380761868033 5.228235964269281 9.007600407805272 -1.085656280272769 -1.4864344417373756 -2.1293876381769783
Ni 1.1022411663041263 2.4513557091250653 13.0366980147506 2.6507094002553124 0.14142867159285322 -0.51151557462119
Ni 4.937205078572929 4.220908603516421 8.860823321837682 1.6895485061551678 0.9059184286870722 0.3739957511644397
Ni 3.7002230516328707 2.505795703460613 9.352557632243235 -0.9041492526017912 -1.875495828985686 -1.1681964050595302
Ni 6.149122962115389 6.682134373597982 13.167313696063689 -0.7593766042373696 0.7960135387341131 0.4983651532821611
Ni 4.721610328278176 9.154064426312326 9.004266333083311 -0.7625269769408932 -0.18005358305390282 4.029067263497718
Ni 1.7289947236802825 7.153516487085359 13.214369422572526 -1.1443753913805323 0.09765975403701892 -0.30640170616454976
Ni 5.629684056107635 5.630780729547246 3.1766017893109777 0.10570165050488893 -2.1175381950375596 -2.9847206406070144
Ni 8.592417652795453 7.8648076320841565 0.09063959111996277 -0.5016587364317683 -1.5902692142368546 0.04795364506114322
Ni 2.443304063957325 5.340687171577057 11.551384129351819 1.1881682201957666 -0.057348456012481876 2.1377524652019058
Ni 2.048670344688176 0.266195450263937 12.904023961750859 0.3940655253311213 -0.7320740597676747 1.48225614198997
Ni 5.673363528146831 1.5794534582482362 7.882951484879494 0.9981279582427972 0.7045450011094705 -0.08343229758372729
Ni 6.661138232531931 2.0639862797336797 3.585255119380347 -0.4630829330410992 -2.352804932928496 0.024100749702945592
P 2.98028974499885 1.4135089576083375 0.8959831374896827 -0.2327632547427927 0.5017764929565551 0.3183745622557097
P 6.357125357828222 3.894559209098247 4.325792764090883 2.1934536154189512 2.3016299527165778 1.2483813993505533
P 5.412420862460312 4.068152303983636 13.163664679225738 0.1770129964553661 0.27619175824007275 0.7507628944264295
P 8.619628276685964 5.969755928436836 2.5625368373638904 0.8410356119707579 -0.6675383419781342 0.9132854105751046
P 5.6307619829927225 8.714673308118893 7.156338780868835 1.533346790018198 -0.8596002623468227 -0.5646980721814403
P 7.849135512502711 1.0984918553994742 8.02710873985246 -0.5049901147978465 -0.4014934423640763 -0.23621264674397383
P 2.029820684115038 3.775968505184103 5.103013666692535 0.5382828154127052 -0.02343766219764996 -0.5785077243710229
P 8.186798452575673 4.8886608756349474 7.175709595657721 0.6599741564776311 1.2700599127652514 -0.6749603454738181
Ni 0.7510975788734884 3.456142911740024 6.812053620410532 -0.3937266539344639 -0.6166233002958219 0.3684095153259139
Ni 7.4635282592365115 9.053760986335623 2.8378581103697504 0.10642593026542316 0.09574016841680284 -0.3670766554471033
Ni 1.4205014224455135 6.829904089627581 10.12887401358914 -0.7218598382388343 0.9985203085852093 0.09650507160728541
Ni 9.076247478486273 1.2361946716500816 11.267583789735088 0.44087091572043424 0.17598455519085177 -2.1532130227313497
Ni 6.535601930166919 6.468854822786852 6.599645784384734 -0.6847230812875369 1.2738188655870513 2.049075374279471
Ni 9.47029068128794 0.8493988868271075 6.619456205877189 -0.10088803116632947 -0.8047524612690075 -0.32816172354946066
Ni 7.830885741674317 3.1956876564711094 8.493106842880756 0.5562489129728226 0.10492466312954833 0.5632384569167784
Ni 6.4862609986617 1.9921026164142384 12.444500918654898 0.7212952239846158 0.1550642600984168 0.7344484735371223
Ni 4.385540845339691 5.551464057359333 0.7882185688127219 0.6007315687662299 0.4421950338484965 0.07958232771001779
Ni 1.2560472728902141 9.135749042543102 9.785054705010738 -0.6578619952306347 0.3495008513468691 -1.13029808735186
Ni 3.9900447845624725 2.6442202620603656 6.596079252386684 -0.7454502239642645 0.33652037992680106 0.2972478075794236
Ni 4.3974355341847 3.340720375540311 4.305886735170359 -2.557384783258538 -0.21709520918823258 -0.28175074038508896
Ni 7.011248884808338 8.906628653159816 12.034667492978288 1.1201095768546323 -1.7352791754230632 2.6240352333982355
Ni 0.91923261440943 3.7597714820760064 1.6979682386165609 -1.3320170711943382 -0.5075033681380033 -0.6208453087969695
Ni 7.847251483773124 3.6661699353413684 2.3755915090193094 0.9137217267815747 1.6672866094331737 -0.058181750547054635
Ni 6.911742173398873 4.650748352180252 10.332254446284262 -0.11703841567394682 2.100257553580241 0.10049670926518176
Ni 4.091576123860449 7.556998580089487 6.1685481419123915 3.9717751146444695 -2.4732089226405667 -1.859709512685707
Ni 2.8788990048597976 4.574515488211416 2.4609089533101183 1.132767374827959 1.0286551802973767 0.707899005183368
Ni 2.855878235905234 0.9295113502545335 10.867820075820651 1.1887755147624623 -0.005334267728719845 0.11461617938569939
Ni 6.65428636685368 2.084420024164033 1.2039056061392184 0.08305460252933439 -0.18003301422861254 -0.8711781969924094
Ni 3.549200808393487 9.409739310177809 7.262617685099828 -0.783932953420495 1.464346865809717 -0.8415287495570926
Ni 0.18206185089127164 0.9661318071879961 3.9848407410268156 -0.3486904396304317 -0.22369265990009216 -0.14057043735761598
Ni 7.887387857007424 2.6393086647752715 6.054463172377913 1.0336716596753617 0.05860958211309261 -0.4934908559089953
Ni 4.876981772166956 6.027692155190971 11.25766592506456 -0.20531030073816256 0.5074491178613002 -0.6785987135573539
P 4.4862379629613836 1.2183573250211994 4.423744448802643 -0.4054441994817081 -0.8783153222578228 0.3174659343985113
P 7.926868100833409 8.86398961489666 4.934506512049306 2.5055148338621236 -1.938029171633217 -0.5482964908949655
P 6.7822784678612384 9.407583456407634 0.7243518695351531 0.41918546032720067 -1.8422535219927882 -0.5652259196604524
P 1.9777896220357294 1.2846170219836626 7.804014430420676 -0.9010726705589964 1.667303064493406 1.1555285797838744
P 2.2736289989672978 3.03370805211288 11.170894685470472 -0.4022053808294363 0.341526832002457 0.3766576142673191
P 7.217620330277646 6.7640099504783215 11.254030030814773 -1.2077386861285264 0.6005773025765527 -2.006436713673338
P 8.126134602138404 2.9979583726370227 10.686966440368403 0.9395101485995884 0.4211459264876812 1.0307616851174184
P 3.658858779077297 7.735306433437476 0.06086537589839485 0.7393032305262622 -0.7627727744031122 1.0767260676626746
Ni 5.93625583550377 7.2012264683470555 9.107678889127698 -0.5309433443284985 -1.033728481055226 0.226269676598649
Ni 5.832324937226816 7.50348654020284 4.23393183494373 0.8892497097821396 2.140536712815262 1.244890098367843
Ni 2.479025623601397 2.0277023234539095 3.0161743996672747 -0.36386406204707655 0.22025432364250452 0.2199966991057437
Ni 2.0980768891342283 7.185188790952408 2.0331585081479044 0.7971520232139303 -0.5719768652310407 -0.20193855605245223
Ni 6.12043136041754 2.375853960782635 10.23561970702776 -1.1049894333837422 -0.5465519974000329 -1.3035593300742776
Ni 8.176112916497415 5.59089743479901 12.677472787664986 1.0240734744639652 -0.6008133298467588 1.1464677551331868
Ni 6.967381947223909 6.910167462818919 1.7176680554373285 -0.49354921995075646 0.4998396809451585 0.004424611430256895
Ni 2.283021022783451 1.1094398432410582 5.615930646381646 -0.32391040447227437 1.6171536973325247 -1.3419708399729404
Ni 3.0227694375485576 3.657499653874361 0.2470542807679622 -1.7440777475512994 1.625514410592394 -0.008530920289146596
Ni 8.48119434480895 3.1766411570754767 13.260656540345908 -1.858940495730166 0.907527682155721 0.3409282791865096
Ni 9.326588967589888 3.5460232674017944 4.306860618677843 0.128709681364288 -1.1875012760357289 0.3690684890661515
Ni 1.2384255116383494 2.890081324632922 9.256924896326002 -1.0743202864346595 -1.254115473620853 -0.037958481521644306
Ni 8.200595916704792 6.9470700553979565 8.754914662058523 0.5372672296639973 0.5945578358553502 -0.11541862068233671
Ni 4.679805511691306 0.77338348289074 2.1824045153462093 0.345873796117243 -1.5596026383909334 0.2756579972237898
Ni 2.0692821813865003 8.106956876861108 5.9936896545966825 -3.980617652636764 0.14371566785481701 -0.732298517073655
Ni 7.039021905334549 0.0759807228104995 10.00731198078306 1.3069457300480072 0.576876102304871 -4.032266487161307
Ni 2.5852061084211426 4.799764714085647 9.309358071999835 0.8602723487131829 0.1704559120631387 -0.961969248934053
Ni 4.4727591902591595 2.985988697573921 1.9984089573558632 1.3707036891312587 1.307303627608058 -1.0879612742568616
Ni 0.577237345586143 9.047452770738545 1.7538995213644335 0.3963692337636335 0.9501761129538667 -0.1781921043651318
Ni 7.791471110789162 5.6697079500147955 4.903159460903237 -1.3136352262530409 -3.0046400052387607 -3.7449714199192212
Ni 8.917942198814602 6.924714789128969 6.055314265953268 2.2539809833800475 2.8739901694289665 2.3370461274323433
Ni 4.560924236182052 7.7039340744428 2.2232448217028575 -0.4933818411349568 -0.40388945340007854 -0.48464240437942985
Ni 1.1657263731971468 5.3874317052808065 3.6900661683921685 0.069417471361874 1.0333150476668913 0.6315164153575705
Ni 4.278619871616277 3.724837277721911 11.352874051521841 0.8061855941711085 1.069104289451359 -1.3760562116924238
P 4.12383894419498 5.372350102166844 7.364657993353112 0.4625378591709066 -1.2304515543450099 -1.6074264427424316
P 3.439083547123857 7.460350718244819 10.1345260997779 1.7351249092333858 -0.06692324418511054 2.537313980650591
P 5.217437948863884 0.34182748716030387 11.04912737789236 -0.993099137569638 1.609514949840344 0.6432519586269437
P 0.33503467312880053 8.57555512700178 11.935824409598947 0.7271647953915155 -1.1524599681608798 -0.6320879715903244
P 1.1112770055843377 5.078732191946282 13.541163110332901 -0.5040053822870739 -0.8334480294314873 -0.5654838013075294
P 3.1236915138245287 7.157715715298569 4.212557950804035 0.48459483897094613 -2.4353890235793156 -0.933446973124644
P 1.0649167762483154 7.7765863464976945 7.906657440401883 -1.6447105239048707 -0.6648499965126937 0.33661653918503315
P -0.39674083199756355 1.6968443826728912 1.45789048811443 0.008869791685804079 1.7245869858165397 1.7059963672985456
