# total energy = -340898.0262361919 ev
CRYSTAL
PRIMVEC
9.01240455824018 0.00000000000000 0.00000000000000
0.00000000000000 9.01240455824018 0.00000000000000
0.00000000000000 0.00000000000000 13.19056505880236
PRIMCOORD
 96 1
Ni 6.25544676224319 1.8600791431495984 11.264544696718065 0.9661411209235553 1.2288507855167934 0.9743815065554767
Ni 4.463627569528519 0.31351270712829754 6.02266717314976 0.11667511879725713 -0.39589975032638264 -0.6386350286802226
Ni 2.815493139130199 1.7379250147900789 4.7772664503175095 -0.6106043477952516 -0.7021021959959328 0.30202080348803473
Ni 3.496335224634104 4.169579853283421 4.910887060712725 -0.33314297881413596 1.1806438867942635 -0.22719527373671197
Ni 5.417996126606234 4.4160240498299075 2.727030983137451 -1.242474289837499 -0.15435155030210837 -0.05457834946651246
Ni 7.371209456155957 6.059237707461199 2.648744732879596 -0.2366191381537731 -0.5533587359092211 -0.38857699141272434
Ni 5.071424117895497 4.646038633273294 11.537932377265115 0.18786999377452807 -0.00842704772143065 -0.26769143407854545
Ni 5.581219781521335 7.948931611256318 12.41386507817301 -0.135397892017741 -0.08807468145174509 0.5681037554288797
Ni 1.9071689558011031 6.584165197965865 0.4046209050338647 0.48316530561327115 -0.31826529037135515 -0.47705122229573327
Ni 2.718672879356972 1.5772248330888394 0.32138414107467533 0.3246105158630926 -0.5383491498742664 0.43312392478516376
Ni 0.521951594593177 0.08576564461565107 4.546813864023432 0.6491762945311788 -0.43975017185242976 0.3332481369334325
Ni 8.797440467012585 2.479321445022301 1.3446597392185864 -0.29042744222348044 -0.13347984905942173 0.058541962099950794
Ni 6.918894907380128 0.68466424618247 4.742483075785743 -0.6774198627579042 0.138101149881517 0.02224338477923266
Ni 0.7909231970159691 7.318838374564016 2.4846144300883735 -0.26187919827214257 0.39144325721692586 0.39524360479962256
Ni 7.639941328623432 3.679881851325116 3.9145107857881336 -0.09145516788820378 0.456966021510084 -0.9221240919126571
Ni 7.680776532666298 3.797998422542459 12.448028399286514 0.23114243130991804 -0.1078814317650271 -0.07402026024120802
Ni 7.690104371153246 8.82600978875522 7.000153448587738 0.1592297043300161 -0.01593981115870803 0.005369748952345591
Ni 6.966849910847813 0.6722550666533109 0.4712865611418922 -0.26903175015652375 0.2693652222365425 -0.4043849049792584
Ni 1.7170973483713943 6.516968711242493 9.213793720010035 0.25360641674038903 0.06652600874669189 -0.46437979747565183
Ni 0.2158443801071265 4.973071749385284 1.3878192423395033 -0.5298359701969326 -0.8405021080647911 -0.9134183366085431
Ni 6.260475683862241 1.9475355148185363 6.903255682137227 0.33377778418465737 0.11591072982740684 0.5197757577474532
Ni 3.607368046043967 4.509825154150837 0.5609104160534493 0.10970665789922396 -0.2174536209689158 -0.29146256835621415
Ni 6.073134834946103 5.659285227872976 4.7275909788622315 0.5354494597289682 0.4243628907630821 0.6410400385772895
Ni 5.181663847723861 2.7360487949152685 9.16841896790352 0.421465514610629 1.208787696218331 0.5977573166292544
P 0.2790564828738991 5.607761312288546 12.25755664110432 0.2912841337968209 -0.9263651265771982 0.37836894053147097
P 4.03755714217684 6.360756706900192 12.596342833709866 -0.8014660772082519 -1.085532353100395 -0.009110961162332695
P 2.4284464225500058 8.447380657824118 1.4872494944082089 0.22026537938609808 0.9415932563808622 0.10537254930024433
P 6.257771962561677 7.819846943963017 5.710433326196629 -0.12289333179282705 -0.9745077477206959 0.06789563540070888
P 4.697319213940673 1.0058654354491405 12.59844002019867 0.06064692425809555 0.8499437130936652 0.3068449643495554
P 3.8254772433605333 6.228634859345923 8.171119822775005 -0.20501616653651142 -0.004943717158520518 -0.14741471397295902
P 4.580374255286909 1.0176176107022623 3.7956903457922104 1.1879666457079217 -0.9499706818112801 -0.6335673843493281
P 0.21393465162849418 5.473936120314921 3.578785205694829 0.4957773379503268 0.05897287898978231 0.8668890826987522
Ni 1.6438535383390926 1.426330147304315 2.6153456636537187 -0.5553279438204501 -1.7246317230115458 -0.52648762254999
Ni 1.7646828432613357 6.4805045233022085 4.843944723791607 0.6870951810641394 -0.7403195876059185 -0.4159116746719353
Ni 5.8027536924852825 5.560157792589934 9.177190741042986 -0.35572009278370353 0.9578410856982923 0.3567343929808308
Ni 8.487819316076234 2.3130335726332274 10.13768773306865 0.14972973525938085 0.17077087220039622 0.18700636022265213
Ni 2.2173038137845618 5.083617900961045 7.1054805168129755 -0.3423220742102427 0.6208255113026276 -0.5397737981359348
Ni 0.5528334992882286 8.90187620844907 8.909144712545421 0.17795941952903543 -0.6225810605411536 1.0381775179655153
Ni 1.4012035640177325 1.0389139221463781 11.340205633593074 -0.23664613473696663 0.7378955515454583 -0.023212176450405186
Ni 4.2116858063375515 6.770911228195878 1.6649002061831226 -0.443751579702339 0.7257036374649567 0.1383852567808391
Ni 5.438751693790237 7.761491625892493 7.862183614568129 0.07928048019888283 0.516618185955078 0.7236714375262763
Ni 5.33066592859799 2.811131135431954 4.769919538303442 0.282748585521984 -0.1345018625660329 0.17483990006344727
Ni 0.5112574756090094 7.399373219703508 6.705634383595908 0.6307821082947072 -0.5018729093251034 1.0913381611488946
Ni 5.023847635409891 4.567774914026277 7.083860660053225 -0.0825691782524836 -0.31202907965365617 -0.31757237806938854
Ni 7.85020973416836 7.18456256237363 9.09085821619465 0.8653104253577226 0.09492564293530747 0.4694613257636173
Ni 4.62937469765748 0.4063828300813995 10.431006345803029 -0.6850699231039944 -1.209379821276375 -0.16089500784758096
Ni 8.191933069346753 7.141879815442047 4.732141341811083 -0.5559010427151007 -0.01180419172377967 -0.15582942039921552
Ni 7.148449858202419 6.166160872494204 7.072055311614526 -0.16582766926250797 -0.5426835155835621 -1.2861123382424238
Ni 2.328183424320726 5.291786416295867 2.5882660923476943 0.6613687228323125 -0.11103129024791845 0.5809662132138446
Ni 2.3832852644262377 5.134267613324959 11.429782624002089 0.11320104420572762 1.2163863345011956 0.11910918216004647
Ni 1.099531353705042 3.4247587094038168 3.763254702589767 -0.04533600493263805 0.3444879715133099 0.48067030710555925
Ni 3.719680628869431 2.5518082130904447 2.5247529752761255 0.5817131186821981 1.3504279696013581 -0.2547310172631355
Ni 1.1580759322666063 3.1320448290003315 8.317983260100386 -0.46014699034122686 0.10959070114664997 -0.7718356559363287
Ni 3.677241216854898 2.595464299690232 7.196138995742215 -0.6959577736610917 0.18661966630719473 -0.9304274695720297
Ni 4.155908035906898 6.665186712939458 5.962240804563002 -0.4701547522862161 0.7088402860507147 -0.29039864586807407
Ni 0.7441163738605905 7.531666302940145 11.395949156887252 0.1519624812446415 -0.20053781905018364 -0.3612042558267263
P 0.06105633564978892 5.586528087674776 8.04683786575194 0.5355119375357874 0.10836094250460693 -0.4857991436916924
P 8.598924236720778 1.5094605648923491 8.000301414726616 -1.2680791348897966 1.5523025051850943 -0.24965488829180876
P 1.8626837280024762 3.226657049711431 10.41339700897245 -0.6829847584401916 -0.6460673165885519 -0.8461194542515684
P 4.174680874137154 5.958190630054756 3.7786749264073225 -1.4247181956745012 0.5794209802139118 -0.4508259700506171
P 6.781924386293513 3.9852942094369217 10.238714081945123 0.7272943789908443 -0.8337578473624222 0.8138968467724369
P 6.126019623585151 7.664391981584874 10.274869144416709 -0.0894669338135814 -0.3531484754017854 -0.32031805913532574
P 2.333059135066078 8.368179648526239 5.764012971209923 0.211961487506093 -0.5011514577780466 -0.3114814346803023
P 7.047790314182389 3.8550379295800425 1.5164929439951182 0.6520680142566769 0.6467275758803701 -0.4168884367629079
Ni 5.463220371560349 2.956077634355236 0.3202440719262705 -0.5157555808444666 -0.5443621888375658 -0.1382829268750199
Ni 1.4179666360812346 0.9070444219134952 6.829441386910506 -0.43303393617451874 2.113321585853051 0.007974276454728202
Ni 6.862801702797744 0.5156699487715313 9.274430978858236 -0.3032839864711745 0.553640271705382 -0.963625039369921
Ni 2.8634301177892136 1.5531887507268178 9.256874815213234 -0.960669299175707 -0.11313496685448256 0.2865165372048485
Ni 6.2712635318514955 1.975455943449036 2.594544133207606 0.960124225305514 -0.12267453091380162 -0.2418652170440609
Ni 3.897477341594575 6.9048085194041855 10.41649637482333 0.8331870624606168 -0.036112172341524904 -0.3992822936453704
Ni 8.2877349274301 7.111354801958669 0.26179682733152665 -0.6589506003091231 0.07487875158676136 0.6105033034410131
Ni 7.569148892570309 3.8339849530529775 8.065542209709246 0.3900885429612443 -0.4424351748837606 0.1849067973811461
Ni 2.9764366557484894 8.422362223389559 12.304633836389758 0.890984175974743 -0.3210279407181568 0.41683701469968204
Ni 0.09685630939056808 4.7873711580581535 10.121384293626242 -0.27530369920816455 -0.26440890667253175 0.3982065440826884
Ni 8.52763611842922 2.282742881662566 5.741654998535118 0.7056066096047654 0.21782385982414101 0.7747476873768011
Ni 3.6417774057958225 2.7701607453240618 11.513397908943357 0.5389872976788975 -0.5427719615323103 0.04351746366666054
Ni 1.2457215644265835 3.356129250391146 12.470227753645018 -1.4692191063003535 -0.20575818690885853 0.7282986518856425
Ni 2.979699146117838 8.50519523163453 7.914167162773655 0.5509647817557478 -1.272276717910912 0.4788293972420786
Ni 5.665053166647516 7.894694961966988 3.4945895219143726 -0.7582512323836748 -0.034888327236752815 0.643558177013453
Ni 3.0872441670499717 8.260111908142662 3.6898892250989404 0.39505025784189385 0.14876248625010507 -0.47656168425382445
Ni 3.27228685286063 4.40089222295108 9.220033007531304 0.9470805047476786 -0.49988287547826815 0.07645946581031993
Ni 7.270099291919166 6.052298156123084 11.370820771119803 -0.26418650624908047 -0.012976100544693782 -0.202881893802328
Ni 0.5035455612193649 9.089640640368962 0.5335938185134091 0.6067934586895937 0.26458425590813145 -0.036263096097092384
Ni 4.782982117146904 0.3247737063451501 1.5820365557634113 -0.8850544407538693 -0.5840690205088845 -0.28523715627179264
Ni 6.029668008837356 5.636970514738982 0.4755620457585188 0.38319490116520455 -0.5237596820958657 -0.6270162134943718
Ni 7.7397717314446215 8.754955992976376 11.450795044709643 0.419529988150813 0.16934828082125672 -0.07129386244898044
Ni 0.02047888637091168 4.862029915571085 5.8454643778703055 -0.1116468123447303 -0.5636027822347326 0.09432426190588271
Ni 7.788510814089471 8.740040463801593 2.560869284409071 0.9477466775767678 0.2667792066769212 0.44386342268985496
P 8.5366395103601 1.6315966684431986 3.4815305480326444 -0.08354054102681742 0.6421450987160102 -0.13311860906526105
P 1.927095381786266 3.3908270070817284 1.4080800285255024 -0.1084542735493616 -0.25243733613295233 0.9067812909079996
P 4.7269429869905295 0.922581806987408 8.197078250981727 0.6245957769783372 -0.5028625269318824 -0.5388209473043624
P 8.560792753978479 1.5951955673332603 12.425208991509747 -0.46945206979223664 0.43149050294679886 -0.6035986059013798
P 6.408991094902269 7.555116579020378 1.400151816431813 -0.5488994145862869 1.0206513361562937 -0.5979416647259185
P 1.8436224928334939 3.25290117113558 5.984268923239138 -1.1678557338906597 -0.35849277043283423 0.381490259769272
P 6.795848550991423 4.008816584751836 5.923078302764753 0.750541779554559 -0.467233207764047 1.040204061477241
P 2.343729821798974 8.452986373320623 10.135537373394266 -0.09921938521465493 0.7031818022133567 0.07738249184522157
