# total energy = -340887.06999030925 ev
CRYSTAL
PRIMVEC
9.11553689518100 0.00000000000000 0.00000000000000
0.00000000000000 9.11553689518100 0.00000000000000
0.00000000000000 0.00000000000000 13.34150965869038
PRIMCOORD
 96 1
Ni 6.326720314024022 2.353522199751367 11.226439813593935 0.3004642576341922 0.23041120957084835 1.166874858034629
Ni 4.963892878217447 0.4055793992671136 5.630343442562506 0.021145780839679714 1.0280941655875844 0.6313960877296223
Ni 2.86233322948831 1.914217137654687 4.794978336215989 -0.03176803644021626 -0.6430876651349376 1.1718095763320853
Ni 3.585669300857508 4.8553177201108015 5.313149199077262 -0.8262548541171575 0.3227292396799797 -0.5578561095589425
Ni 3.6813915521611675 3.071361602466522 2.993847635800427 -0.7020132358265523 -0.653295716016191 -1.0650871978721657
Ni 5.144717780523007 4.742704379228466 2.7521528253618026 0.6452201380969083 0.861534246144742 0.40172201343511454
Ni 5.411328999085946 3.0532490309647256 0.27309236518487 -0.22061530652634906 -0.3294668155141293 -0.29258639754801224
Ni 5.728686410678831 8.031289222202197 12.779245062146408 0.026274617425812812 -0.026654369362734742 -0.4434728721196555
Ni 2.706885981466094 5.61406765171376 11.498820255359435 -1.8217523167156433 -0.24295845010823966 -0.22321880558746715
Ni 0.4862364030010595 0.3933791648946903 0.13228466916662215 0.027783340760855375 0.4462846305368378 0.5784028233620425
Ni 8.563627452264322 0.43385397112633556 6.195823941102858 -0.15169765761902906 0.26420758929500304 1.3720152088538307
Ni 8.729457296633065 2.6125857538938284 1.2704040972490154 -0.19325774044900265 1.0829625354906895 -0.2839009539588723
Ni 1.111101888739577 0.10596629149174126 4.409382016589659 -2.135650331257238 0.9311923727625124 2.0335227712568527
Ni 1.7542485834095762 6.991543755061044 0.4042667619765959 0.19533416336205714 -0.7207401228120942 -0.25665008866271927
Ni 7.7895816500121375 4.467825368842615 3.5982450953436076 -0.7277319807488951 -1.4029154979771128 0.334374794338708
Ni 7.810565615586942 4.331365783849207 12.591396638782907 0.5184706657827846 -0.6467941674522475 0.028482680820725137
Ni 8.438279706556617 7.645474129694115 9.731577474327405 -0.3443866700487553 -0.4923549425323391 -0.6864722027681597
Ni 6.866004583081804 0.8787450341371078 0.3516445914856176 0.2440131166249991 0.6772725385467626 -0.2383435770440476
Ni 2.0515791607853258 6.937570662025241 9.474273218775707 -0.22924547139752133 -0.2572445277136086 -0.6669891543428835
Ni -0.21644477366963732 5.547405731536286 1.3669713588084453 0.13939827142638572 -1.0289529140434537 0.314925941585477
Ni 6.6797285898059 2.3176343316071426 7.0929203738043425 -0.7584317238255971 -0.4300609695891238 0.17075955934648657
Ni 3.7139249027851804 4.67238712881837 0.6276110854045172 -0.9086088310350415 -0.4815377973121771 0.0588684922014341
Ni 6.09223224693181 5.958489091886834 5.072121645927984 0.07624837824077836 -0.7374926596800846 -0.12477100843151416
Ni 5.125638962126802 3.303734865035123 9.380241899537264 1.8863209446256481 -0.9805567821282533 0.028578582968641103
P 0.4577211809719094 5.907123042358588 12.143375300455718 -0.4149562527372015 0.7161689585016441 2.1144207324545
P 4.223355789020423 6.317714163725192 12.721022305882554 -0.16106495776654195 1.511068952456604 1.2587028358812193
P 2.3185276542076334 9.013625038956679 1.360153848880819 0.32203195650263894 -1.6344389667755335 -1.1837004142324004
P 6.63311173491904 7.932859656486845 5.846822855271754 -0.13642247662751344 0.7463961328173017 0.3492478547957985
P 4.5502298209695615 1.2395215703285636 12.690030392521226 1.2510949416269743 0.9559433544549472 -0.5469913989302967
P 4.35548549406247 6.5399509494392385 8.312400525056988 -1.0305696237112703 1.02745756044485 -0.3514680023755689
P 4.941769470550179 1.2188931106866077 3.6216993713748726 -1.0517902236529435 -0.05847022832175092 0.27601023835688593
P 0.36166256636255517 5.8884726541891474 3.620525290242798 0.09516372708804256 -0.6067348375375164 -0.7016242279182497
Ni 1.0542574016307666 7.647479547776851 2.599913334718289 -1.240622838451057 -0.016342703024081532 -0.4699207818985391
Ni 1.9377534535166094 7.041041119557651 4.852800920416969 1.641579434475057 -1.2940012540721972 0.25496653031270927
Ni 6.217671148006913 5.920914849445764 9.159039727243174 0.9297065322456053 0.1944468756610974 0.8486409351218418
Ni 8.63858451087493 2.3456828381552195 10.192325925050572 1.025494523181208 1.3112656975795998 0.06956068180795763
Ni 2.428816533221344 5.820297554912883 7.170167255243964 0.683777429544816 -0.6812940010013299 0.02040247491575196
Ni 0.6102077026610693 0.21806825076297906 9.09369317901724 1.1103758945066362 0.45829193941035906 0.4495679292737999
Ni 1.880489651717773 1.2917444803103426 11.709682674329674 -0.7570955215126767 1.4668917437187576 -0.6150055621867409
Ni 4.1504588417129895 7.125460105304073 1.4910338138358523 -0.016606241098113338 -0.37535740739865675 0.17421460777462253
Ni 5.776852906811441 8.553044314109524 8.239476231139335 -1.0275830302791207 -2.4153691288139627 -1.5255553189982372
Ni 7.246660281795212 0.2964764515832393 4.240478413232288 -1.2085239010339832 0.8820002273085776 1.4143340242266997
Ni 1.1691313956245493 7.899870529025847 7.13022297325057 -0.7398827571788161 0.40009321958244 -0.19028451675329164
Ni 5.2479421185634445 4.783396135234517 7.2885470846678375 -0.6368823076551741 -0.3681282366400692 -0.48323318273672905
Ni 1.0157077967585475 7.915348710409869 11.577281326292784 -0.3357958430559507 0.5091185351439232 -0.5507907180717289
Ni 4.697117579993194 0.4452711808928181 10.49860704795104 0.6382591333980426 1.313169599470532 0.05921353424567868
Ni 8.67466380529069 7.476535887297133 4.878669902130582 -1.0166733253451523 0.6857574360893222 0.700872951574522
Ni 7.865368222466057 6.897699304325764 7.428806025374356 -0.8032864182464423 0.38809696645251224 -0.6157686656050104
Ni 2.4968640149832537 5.458638634765023 2.6005003752843256 -1.29066781882359 -0.21058491887354056 0.22216542462228836
Ni 3.5357708527443545 4.756669381513697 9.282742118569363 -1.3625615196400986 0.9225588654572305 0.25283457157137107
Ni 1.0115146498582823 3.563755550535254 3.7590240208048784 0.5164209823426072 0.3991509102738287 0.25370386155020175
Ni 1.3733285341307166 1.3656623677326236 2.5715093222373633 -0.156616177966569 1.9896800630402893 0.006519032065440386
Ni 1.331324140834149 3.7000054781836482 8.397119411962146 0.05676070182981192 -0.11370909419039772 0.237538564644249
Ni 5.194552419878983 3.310416553465328 5.112199926311452 1.0445327707595817 -1.2833905684358866 -0.341990659012753
Ni 4.27688222075598 7.294635351656288 6.149848820002473 -0.252592630763894 -0.429589429269344 0.08155924893073051
Ni 8.27200320088763 7.415243018259346 13.34391063170223 0.24538582860280966 0.717406430453171 0.10848461256666478
P 0.5084828704143135 5.872256114329209 8.05596406860291 0.7141496140787701 1.2655689668734331 0.4499751920145476
P 8.647162230946995 1.8313842553009734 8.109556132202991 0.30591165390200864 -0.06541580640164862 -1.9696439703250208
P 1.7970095662555399 3.7268689649555635 10.637906122638865 1.3738566329379436 -1.3688350113536363 -0.9394160462238854
P 4.02399900052304 6.350001394857233 3.7923376613738102 0.2787631185116748 0.9061194889542846 0.5273301730559435
P 7.352272890461452 4.205562261304515 10.258954117742109 -2.8006779909983766 -0.09752965621705784 0.42948349981909906
P 6.543223427128793 8.291701875782135 10.576441881510371 -0.5748485303518809 -0.016516252487468328 -0.6291067774748134
P 2.687488119283998 8.97691677250588 5.877962440328266 0.21068107813177264 0.2551634768148638 0.5198495484081821
P 6.801001690590956 4.090934386802705 1.5417982379392783 2.154691149938773 0.12041915922072165 0.2020545128050262
Ni 2.723530951552798 1.8853117706530778 0.6871628869250203 0.8824239451095576 1.0035092771593686 -1.4297778695855956
Ni 1.6726280674422431 1.4730069283794083 7.246574595749859 -1.1310480781440069 -0.6154094824933789 -1.224137439201524
Ni 6.895119607428428 1.0078866662358792 9.162922034340616 0.9394625831911046 1.3418348286157085 1.5524565142644553
Ni 2.7202128961795444 1.8216762086731857 9.450805269439334 0.4678824113122716 0.6074897134256699 0.11847540523078952
Ni 6.488521091153815 2.1724785245640548 2.5277492765647276 0.1486269891135053 0.4128806011550954 -0.01093670151716181
Ni 4.322423442307555 7.173216402283396 10.696274727490556 0.7117404904166451 0.23042740752076443 -1.0772194623593252
Ni 7.319520766955687 6.42681802296274 11.382402089441944 -0.08033514671564229 -0.5426585758828977 0.4437628925562487
Ni 8.14803190122762 4.294156162877725 8.093893816976827 -1.4107324229183704 -0.5315804636918652 0.05672650615776682
Ni 3.2207925962405324 8.625403444749315 12.625070343053055 0.6134629002899693 -0.444873352011608 0.3089987774677646
Ni 0.08260317082787326 5.253037703600941 10.160653081094788 0.8312556497658586 -0.13795562544258821 -0.4588532112304678
Ni 8.779775059436245 2.929678814921263 5.880270494230761 0.12285425102477551 -0.584820039742296 -0.1542949860325601
Ni 3.7839048783359077 3.1628451291862176 11.640053646943427 -0.39821142917869484 -0.6205074658415765 0.0962351057753504
Ni 1.4637911207355652 4.0058408513375445 12.867418737475917 -0.7311615752557343 -0.34031584241349133 -0.4243456643719014
Ni 3.3126042822828574 8.789519568210991 8.175970109781145 0.1975162586150405 -0.252692646676868 -0.2547269034980774
Ni 5.436733999979508 7.986933020426785 3.595523196073131 -0.509288227952568 0.4917044534325339 -0.06424955400768935
Ni 3.0267775122726173 8.773002215638645 3.342248007760383 2.632369207185228 0.04433070359657527 0.3946892749580493
Ni 3.3940424875153963 3.0106612433168163 7.24860189112077 1.952803501728914 1.1454218303671755 -0.00391347612179326
Ni 5.38013563236267 5.009598179430337 11.506238479158208 0.12614192063711177 -1.5355155155347424 -1.3567616251288697
Ni 8.326195066805186 0.3513775062591442 2.327079850776826 0.8441013953802753 -1.303218401795091 -1.6658347074779956
Ni 4.6463713869632475 0.37777336599631267 1.4154003823991586 0.3275500581073907 0.3777359349331624 0.5856715891093139
Ni 6.046791296284372 5.632180223215558 0.3653106041657858 0.7122796507495668 1.3128268714191325 0.46496858009958636
Ni 8.03614780328446 0.46413122640727106 11.544755268098164 0.5209939464252705 -0.6903679382781401 -0.00450045897351483
Ni 9.248350110004123 5.394036825890722 5.782984016822567 -0.06320800011705242 -1.2194387481742741 0.7595920626822853
Ni 7.324005611031622 6.72134101502266 3.080128014149098 0.4482093583633765 0.06818437028572129 -1.485541497609461
P 8.431935292985782 2.129963661210063 3.5772191982998 0.43997565759967444 -0.2425491304849629 1.132140025656605
P 1.7034385816224515 3.6171452492197154 1.581048827586781 0.9842293458838338 -0.2957632526140971 1.6250377280662918
P 4.723497943317905 1.5710992192353912 8.202520022089216 0.6744512670478835 -1.5364154016411926 -0.15931815027876434
P 8.975440055554047 2.420494048177992 12.379106726759227 -0.18304429025111058 -1.8148720446560422 0.7350166873357664
P 6.790865213736403 8.068134221704092 1.4448189541192136 -1.2593286423906762 0.0821698859315359 0.4041913009112136
P 1.764813490490896 3.6000445022960252 6.022330664997043 0.10592687914181757 0.2800489272026338 -0.5913814950098976
P 7.024660500036398 4.265050254067841 6.221266315697053 -0.10381163257102768 0.5479697036831659 -1.772167049588348
P 2.672921491573947 8.845543657013229 10.365512007568258 -1.4262659997775953 -0.11468302806789281 -0.15954055070221557
