# total energy = -381167.4959475921 ev
CRYSTAL
PRIMVEC
9.24976997786967 0.00000000000000 0.00000000000000
0.00000000000000 9.24976997786967 0.00000000000000
0.00000000000000 0.00000000000000 13.53797334368539
PRIMCOORD
 96 1
Ni 2.4970586451454952 3.905493365678499 7.929962822278392 0.42783773668555997 -0.8818770714671522 0.7887972234913319
Ni 3.5227656345779055 7.6122831733536875 9.84985062235761 -0.5086945602326272 0.8873995439472782 0.2057702710937166
Ni 4.432841249901788 4.509975081490541 9.103041771392755 -0.19710282522670572 1.5308525628414344 -0.6352931087911833
Ni 0.2694652230755155 0.34019913883787983 12.285413096986897 -0.09158012350184228 -0.6419800338930556 0.7728864657983464
Ni 6.1212110081134155 4.513129253042498 7.390217471395022 0.8440276047195464 -0.5084238230697438 1.2578901101719369
Ni 9.4614971811752 4.5048229596300144 9.814245482900292 -1.7234760121405477 0.14586382454607139 -1.0997754932829704
Ni 5.365467804356668 0.8038632819524741 9.579212528452805 0.31091707753639997 -0.3812452336380015 -0.7474004057120999
Ni 3.342755861637657 4.596728673824265 4.446209017429317 -0.3873477469913135 0.03846216063094021 0.042997586607448526
Ni 9.321918152673666 2.6814343095007684 2.4474761783211334 -0.7859178450610077 0.20700671460397896 -0.17615836176455468
Ni 5.539899966018823 9.20571329282842 0.6540503079814841 0.21712426265395512 -0.07771570681492422 -1.1508455724859081
Ni 8.558599387330256 6.237684111287126 -0.5560684199089926 0.6235506235432745 0.5299814946358614 2.3661060209127767
Ni 0.5487481519728684 7.545620081345037 4.254538059516777 1.5031800366268304 1.094436083347928 -0.11593515530743904
Ni 0.4570931065441841 4.276695883425023 12.414335465532393 0.3316172861982289 -1.0466734712516683 1.0909386117176307
Ni 7.940113519818324 4.736215204626328 1.7066510035350477 0.27717469097863234 -0.1221651953775509 1.527490074127105
Ni 1.2008513833804908 4.733551270881567 1.1958805570109265 -1.396879319085362 -0.1395365967764629 1.4702462620132875
Ni 1.5740426016656384 5.911564972262702 8.19263963918974 -1.7840506883998113 -0.4761780756621606 1.1619000305278568
Ni 8.506717427697048 9.073617328214079 2.9770948810664324 -0.2841912315057815 0.3115086883738119 0.630727858018004
Ni 1.254056060116132 2.9167947058043815 4.61234691037992 -0.3667431833670845 -0.06707905303668447 -1.1803970608907801
Ni 2.8143165045606113 3.341238899366335 2.290760101038633 -0.2581099610376974 0.09649221609147898 -0.13294043161618396
Ni 6.734267260666407 6.431466791678586 6.108265955072468 -0.07574367069021794 0.9005134556214167 1.3936227598212774
Ni 0.004626734927532614 6.836800960529859 2.121345939572772 0.7300457164837363 0.060018803755793416 -2.280028572396718
Ni 4.793637776457841 6.536118688859921 2.9400412276353993 1.0746406458885556 -1.480769015921482 1.0235196588430244
Ni 4.6235067578210804 0.9092856849704019 6.066799236399679 0.09787058449624435 -0.20138319776961447 0.3616092045746288
Ni 8.530887076568785 1.327193991087744 5.06329631972525 1.5032520275153465 1.7220017415878663 -1.217672914523103
P 8.51337726205895 2.4390533378073163 0.06243409718884373 0.6817182330229421 0.11084797059251877 0.3368307120783683
Ni 7.190595411235966 1.1765799870393363 12.471939332854868 -1.691858128124951 -0.25024238536416255 0.003143944945620392
P 1.5862800473056338 7.97800057752159 8.62752034818299 1.0763393737472173 0.23836774541376365 -0.28940928537161126
Ni 1.1687269323542597 2.025810615651285 8.75787735604728 -1.3473177061071506 1.6120850245603657 0.2710554654547719
P 4.806309961285349 3.8969650777872853 0.6385560183431196 1.237457553349198 0.3203309146511322 0.1029495416810485
P 3.5614851715764093 5.750822470122234 10.820564029546613 0.009543934934693242 -0.2920891461966195 0.11783622898489382
P 1.1752202708571144 0.8042563971752253 3.760239603314428 -1.472376935203045 0.22250506734989423 1.277833386063083
Ni 5.856963580265051 6.346951643672058 12.506447449596463 1.7633929029401436 -0.3795125672176109 0.2885032286175741
Ni 7.791145974820498 2.89016461812672 8.506490808333345 -1.5795014341973894 1.1150077368516926 2.224259545056215
Ni 0.8436160182540673 8.98748347046681 6.254300398020073 -0.010754667413342769 0.8231757009712016 0.3647714043526944
Ni 7.77497737695299 4.119671788803284 5.4723331714863415 0.6415187779859209 0.2125520699022404 -0.3608625562165914
Ni 3.620369207059561 2.1431069483502876 4.149334876046596 0.2962957280787994 0.5693317142987098 0.013603192605731411
Ni 2.9057597302575076 4.081479488691764 13.206211970610436 1.23734982412674 -1.2927900073729153 -0.5951324774118976
Ni 9.082478607823386 6.498222381386709 6.01049496175477 0.7669677863210662 -0.8470625348911283 -0.495581934110069
Ni 5.153629573028495 3.7164743168097885 3.0734173604104167 0.2895810350627851 -0.55126482949467 -1.8688014476846462
Ni 2.841631075214358 9.364097103632378 4.8215628319280945 -0.6171845721159306 -1.2483544027673599 0.6356494636893376
Ni 6.011786229639383 1.3177869750515572 3.9022531712660347 0.3932008633379809 -0.2117460290611773 -0.0010639224881401033
Ni 8.225857413023716 5.359547951590533 7.697840770433253 0.431093010398064 -0.6017471545149378 1.7471211623633136
Ni 7.716472582037669 6.497917138978455 3.7829024646617846 -1.657250051132778 0.04825240724848464 0.14047967741602257
Ni 6.756346461530102 8.353356241974355 8.599022731953013 -1.002692694795344 0.12780259616898632 -0.3052717063251646
Ni 2.4812137892261363 2.2452614076459096 6.329963516187239 0.73065712481549 -1.0148678967052973 0.9542554252295632
Ni 1.3450460470856205 6.7531275415885155 11.350168857636993 -0.1337881243284599 0.06059267398139241 -0.689370093141245
Ni 3.8977143091529993 1.8270423092583454 14.233825337628943 0.7146206401779176 0.17368881717813958 -0.5638133555836419
Ni 3.1131303227012372 8.747072699772088 0.5251695634007505 -0.9923018384793233 -0.4455102142646586 -0.09261910628931791
Ni 5.705554096001194 5.034085546232351 4.787352557778795 0.1282319703969211 1.0639952503595675 -0.9973224316223661
Ni 6.540105339707116 5.20447555842763 9.960035731921293 0.4345426595095613 -0.1882803418390693 -0.5680122241563379
Ni 0.1287068489057283 3.237706224348597 6.95862690557195 1.0245409010186872 -0.10472180309012287 -0.6399761160891495
Ni 8.887530456418595 2.1717072370266783 11.118263250408615 1.8791478239159765 2.466172584619075 -0.4547119353685846
Ni 6.838465919120335 2.2841474405034607 1.5444932865926762 -0.23664922006076014 -0.08456666829848662 -0.20157731605829157
Ni 5.66553034144015 8.56026434592073 11.396252136490371 -0.909735488440317 0.7349274700560697 -0.25546969520137286
Ni 3.420028439775617 7.1153485327164185 4.736259603522074 -1.061674829756507 -1.5811813930029737 -0.6583083387394341
Ni 1.492089639934453 2.374656439435701 0.15789449797375943 -1.2567397986175777 0.22449073032135533 -2.154364105616658
P 2.2358173925299343 1.8389190138704046 11.337701092725315 -1.0724796336814948 2.347292230640383 -0.5900933723260934
Ni 8.340878302315735 6.924091039520514 9.975983260287066 0.3845185050726346 -0.8946950491674268 -0.5192862197055443
P 5.8497210103964825 8.368729359626414 6.507474001287785 0.023840554063023458 0.6209592086670145 1.565086801433956
Ni 4.257604358254237 6.358523105875863 0.9350573939969739 0.9252256136561162 -0.614328333614058 -2.2085714448969966
P 1.0130255548349547 7.867105085625972 13.55624916476404 -0.7988448375353209 0.6243404664344215 0.006923723703026785
P 8.00365018958486 4.927111956794296 11.429433836221554 -0.784082848734798 0.2695251448531745 -1.7015470732779407
P 4.886052227999181 1.3522423681044538 11.864314545214805 0.8267320508638922 -0.1419529195274394 0.23125864517280817
Ni 7.740919724007818 0.551946722420571 10.197343204798768 -2.0696321153849 -0.6573297768762487 -0.9188281947702047
Ni 2.9409828542160126 0.7005359518275615 8.859818145657124 -0.3029379159856654 0.1105180980569258 1.4538446807268124
Ni 4.8820100785323035 4.245237415834982 11.657643235379075 -0.6352550564643963 0.9613701818974733 1.206243846750555
Ni 2.414929937785315 -0.13764397662860317 11.671262596649164 1.1503753177177092 -1.4939497762778142 -0.18150522789876483
Ni 7.691784946048895 7.899914019628286 11.817432086237998 0.7880143225787203 1.467442731126221 0.7376641522609425
Ni -0.46691728720498454 7.783829406792353 7.843049208924584 0.6177599850034264 0.6799323447671128 0.20729776348183654
Ni 1.8221491809563368 1.1292674137599892 1.834665969648734 0.6235953607382808 -2.1125908783346135 0.8186400178843771
Ni 6.757891173111265 1.8402047318930495 6.33256270154237 0.4204982656013532 0.10315831525774494 1.3725998777127069
Ni 0.34660552950323187 5.069068176172231 3.943354524025913 0.2216910560890311 -0.310675136728923 -0.8461726760870073
Ni 8.250563548552384 9.306563534561503 0.6986813729531707 -0.16663859519957752 -0.7292797848519892 0.43691167396237013
Ni 1.5704536909261688 4.8122853126711655 5.992177642328554 0.4258847267242472 0.9044295028463715 0.24822535493413378
Ni 6.826404219109334 6.891948088954389 1.345701855774869 0.05971695624465844 -0.476006840191619 -0.5840453663598006
Ni 2.098402810196019 4.1747264195283424 10.861068772144906 2.3668374997621626 -0.9808822837884719 -0.4070665655764796
Ni 2.316179393830221 6.152391982605042 13.401659609592373 -1.7096977274095329 1.6216664976012136 0.14071621890686087
Ni 4.000627249584283 0.25250761983152203 2.7599463568116374 1.1475206218777334 -0.48701039039097416 -0.556583413494106
Ni 6.604391240839367 2.977685941366051 10.953465649123345 0.6030013386370131 -0.8975554014343574 -0.7189436930333039
Ni 4.193077963103362 5.530539198832371 6.651626116051157 -0.8253066312712755 0.12405701308362506 -0.15811410266833417
Ni 2.5507165606085436 7.188763956786443 6.688408751222742 -2.4312294928849867 0.028036851532558162 -0.7127722741152692
Ni 4.963241558207616 3.2934638375896337 5.936875117768914 -1.7230384103824972 -1.4814133343737002 0.17772107826598424
Ni 5.427885251959608 7.909506031063414 4.470509088057309 2.002997863195118 2.3698534037703514 0.5589316020113084
Ni 5.27323834821427 6.592708781396197 8.637484200369991 0.04300735679946141 0.5383758893471439 -1.000357361793948
Ni 4.168973062621254 2.6518905442897744 10.103809531093832 -1.9125865631903964 -2.035816966607668 1.8737289668932506
Ni 7.7525096857515186 8.535558210392063 5.39583017420798 -0.42340258373234185 -0.8634972834083839 0.27745468411289637
Ni 3.910007253412677 8.443929989296226 7.6444335237357715 2.6282042771742606 0.027784112091803762 -0.31369078362679526
Ni 0.601738234045737 9.313685857420758 9.889354539847627 1.0085730648355211 -0.646247550920158 0.4890773002223319
P 6.356340160168351 8.594590242194368 2.48597834572588 -0.24137516478151977 0.7616366039161399 1.355674048491646
Ni 2.364981180071049 7.632928659875585 2.7317734075068016 -0.15235406025610534 0.37815296786592295 -1.0421634991964568
P 2.8390503893991204 5.537143534574591 2.561587815227354 -0.6466015918254671 0.1993134597247793 -0.2766643270011171
Ni 7.016477741752013 4.2266823773211275 13.21242596606089 -0.8927944897106044 -0.9881819027736788 0.32116960850234366
P 4.267159370609577 2.2228677146040132 7.978076425635155 0.022381967239625968 0.42366355070321227 -1.32087956652028
P 8.555306469229093 1.2040888028619712 7.663169857740589 0.9030241378584125 -1.7510456942287005 -1.0033755797949817
P 7.274712819134771 3.1675282197600527 3.6098466687677555 0.44063103179548635 -0.0833011713225017 -0.48386927365883114
Ni 3.9084995409113024 7.3299154461789815 12.291762139078577 -0.6935507068814959 0.5545517277760579 -0.5793186503080926
