# total energy = -340896.1474234718 ev
CRYSTAL
PRIMVEC
9.00742148299264 0.00000000000000 0.00000000000000
0.00000000000000 9.00742148299264 0.00000000000000
0.00000000000000 0.00000000000000 13.18327182448181
PRIMCOORD
 96 1
Ni 6.3427740847617535 1.9551689479084027 11.381883323906296 0.44707344498672036 0.15242348004146006 -0.5614921636496331
Ni 4.480678824273247 0.3264478744643978 5.893344280188113 -0.11647611541257359 -0.41085688585684726 -0.056029222980426084
Ni 2.637183889394156 1.6111034575314358 4.60884542625696 0.4751560621555494 0.4031602885435379 0.682192087335567
Ni 3.4837013716086003 4.229119553755211 4.8163638095911345 -0.4516224978099835 0.5289317132151085 -0.22798254552469766
Ni 4.936409320257923 4.491586811834023 2.702557953901668 0.3618411180797768 0.7885228867840226 0.18666388928156888
Ni 7.123285181472181 5.906166344839445 2.6830334668358238 0.4775993814897194 0.4806772490840947 -0.6369967217458513
Ni 4.801379063013012 4.640866810054282 11.351680538530543 0.11249553349827077 -0.2768869845348844 -0.2829830701302933
Ni 5.705904340348344 7.774927097313892 12.409717500755045 -0.7778070430284152 0.2311275189115826 -0.059498155365633014
Ni 1.7940622051239001 6.562915468729843 0.410346602239863 0.4174021431745328 -0.020006010808281675 -0.6453767182794306
Ni 2.57839244859384 1.7170757726862873 0.34738562597969336 1.1458954275694846 -1.2941190105969842 -0.5983093324779826
Ni 0.6327083156329986 9.068221698440006 4.492200217245162 -0.49161523615283714 -0.3244133122506219 0.6898943410758313
Ni 8.633946880712775 2.4998026951109606 1.41817709719351 -0.9577804076636859 -0.12505074445546205 -0.1563672951805565
Ni 6.778715275485467 0.6114553043616112 4.820516230949943 0.04489557496110978 0.04152460160634784 -0.8449292905982094
Ni 0.9938969144765504 7.487545311082227 2.5045712241073885 -0.18580205550190582 -1.0700831084248603 0.49671296239071877
Ni 7.714388216722668 3.8334775672816295 3.8862700652945987 -0.10117445205849672 -1.0737538724082283 -0.9228779393595461
Ni 7.577979823972556 3.8013931315330884 12.56612327020514 0.6511825263279302 0.012814121045532771 0.011533454560896265
Ni 7.8693879276605925 8.76472563496125 6.95428163216866 0.8491764959103376 -0.22968692981031408 -0.28761311270313694
Ni 6.741325468412982 0.7947410213582506 0.29501827826636784 1.147471770917669 -0.4378249298052589 0.7776422353157769
Ni 1.7682739570755923 6.487388238591854 9.143178758790548 0.5499543382133625 0.019302299873037724 0.26278602635712806
Ni 0.23812560193988483 4.953757614264573 1.361950970065621 -0.6390178659409381 0.052918188155270156 -0.11745750548923643
Ni 6.529551979113729 1.7753537904552537 7.001965120648622 -0.48953238548187944 0.90406697730063 -0.05128322365500845
Ni 3.4079129262441357 4.274967329712559 0.3561318323558396 -0.7292309338919248 0.612690540900319 0.34998627562371987
Ni 6.136026736716764 5.398066699657124 4.876531584412331 -0.5712438437197582 1.32776523789652 -0.33720994979465796
Ni 5.176727328615885 2.737751751587434 9.28292169901795 0.3865941566547407 0.6489022149341857 0.5425122801130204
P 0.1654167940213573 5.710552169895297 12.15943278039378 -0.17687749931876634 -1.7851256666315447 0.7046779271429089
P 3.995602148707228 6.242206222568476 12.596788136309106 -0.8061889366052182 -0.1612703889091287 -0.2870590399718798
P 2.363664525008927 8.687306846286711 1.2423720438378483 1.0263897813019678 -1.3368448316002846 0.4481448236740282
P 6.361851803716108 7.662442416340345 5.724756873762632 -0.6885828213532592 -0.04532572051999291 -0.09749854586880628
P 4.7065579358022065 1.0061560152777194 12.69823332136648 0.0218165816544592 0.37093305307871605 -1.3591550650617108
P 4.051430147800281 6.140908759225384 8.146800299662475 -0.5374299804941066 0.4251419350209517 -0.28293884715591916
P 4.646505455977524 1.0994278659728733 3.6565655018110053 -0.16045740608953013 -0.5498484087631176 1.1058340407722247
P 0.35370433223393294 5.473377751676648 3.5827649943942403 -1.5417740948499448 1.0348949905595015 -0.029786744344129343
Ni 1.365155810671834 1.1254593144044518 2.4692792455261543 -0.19273657783821002 0.9478220108993934 0.2912900473340919
Ni 1.7800016200022069 6.497773795699678 4.866723403029235 0.7999121024575708 0.29167031349164607 -0.01427630741335606
Ni 5.930441346058512 5.597950392440915 9.117854392954776 0.0761740733594172 -0.48855639472185536 0.031157399439410854
Ni 8.619598058099799 2.3276528534416427 10.090528921393386 -0.06587166299214461 -0.0058497739125576665 0.5843996643754258
Ni 2.468105578491332 5.2012275153750185 6.918304188803466 -1.1378653581761564 0.41808914193922836 0.597180618190178
Ni 0.5797482795782205 9.095604260111976 9.248592613806037 -0.32596111635371605 -0.15594614848273786 -1.084222633150036
Ni 1.442781770043233 0.9888347435358766 11.312908092242056 -0.19023258046943367 1.189146782058952 1.041859851913109
Ni 3.9774161644915336 6.824400917853969 1.5912871300056668 0.7025120298398417 0.39418096786306306 0.28646151559719696
Ni 5.728332820138873 7.729556714701483 7.934431419795288 -1.3908932767052562 1.274630048634437 0.11871400360415683
Ni 5.113306073111822 2.7053700709260062 5.132300923787432 -0.12214771187605417 -0.9395921667904333 -0.6538140504135062
Ni 0.8526569407787915 7.430050938992689 7.088711094392676 -0.07768819601109847 0.18156384905084214 -0.3287178531632468
Ni 5.060585634471674 4.572725665630444 6.927743966643015 0.6613898058782351 0.03864033808001732 0.5778852602956758
Ni 8.202986794135311 7.150541639241716 9.193525741838405 -0.06341883057627788 0.09358249864385174 0.5116883527536285
Ni 4.646019055210982 0.3087798169908542 10.557098047792499 -0.189673365531854 -0.13412416751163997 -0.9951328801702152
Ni 8.246240432671105 7.094506469451804 4.797854458939905 0.029064007245491883 -0.26465650390696355 -0.3129755027273255
Ni 7.264404455720465 6.2334690236139325 7.12633599516899 0.6582731146261244 -1.1035971810219058 -1.0844630312956163
Ni 2.3689428740680634 5.222728230740478 2.7057348715009124 0.46471069845250934 -0.12219733416706698 -0.8890591910378882
Ni 2.2727886484600703 5.290653197045853 11.34734346502888 -0.016963881547848204 0.3564906524011409 0.19163383169233447
Ni 1.1917809596645599 3.5138852413989876 3.9705110750909633 -0.24509066595989404 -1.183166396105801 -0.34806360467971026
Ni 3.6298648019543522 2.7006321671630276 2.50443971575199 -0.6648492251817453 -0.6796279261528166 -0.12229709296972485
Ni 1.1620474609543037 3.3130737841901254 8.30534262951671 -0.156412289485879 0.3173780026703954 -0.7067594922622861
Ni 3.6063194018850977 2.9009121864973344 7.423316089860409 -0.33865876642604253 -1.500575509124448 -1.0278928482100556
Ni 4.182731332501707 6.6747516153480015 5.967434826580482 0.3051652626542874 1.6104449178537814 -0.08517139176202106
Ni 0.9290524863592724 7.518972205053776 11.435327959243294 -0.2884430648036 -0.005431969648848709 -0.44918843444719414
P 0.20822816815646086 5.544266159689286 8.004790191417692 0.3218866891740263 -0.33178337946244796 -0.5878904511375037
P 8.665598960224392 1.6437463534193393 7.910134800764375 -0.10250165551035251 -0.23009290699948115 0.7132286449263975
P 1.8930267462719113 3.2680997281282327 10.460241243299501 -0.9115231764683592 -0.5783624570424103 -0.38097732468859546
P 4.043809869124463 6.122830864068922 3.886428595914805 -0.6161892980821968 0.17635530826670917 -1.0732561068362032
P 6.702134177019973 3.9386302070706423 10.428521608125864 0.7988916316128564 -0.4201815056918828 -0.7175894929982545
P 6.328641440267239 7.8798185218764285 10.108458194093405 -0.12366671962374184 -1.1854850169366487 1.1817479184917197
P 2.2722391957423107 8.458752530541773 5.761722431277633 1.5967710199111147 -0.5418957295749443 -0.3946957027159525
P 6.739659095416497 3.89444880410978 1.7325189970239834 1.3589144098058146 0.24005850285262523 -0.8937362847985835
Ni 5.335050778125178 2.97790762635655 0.2864026795034596 0.056242367432496686 -0.6947560400435067 0.37739346399207907
Ni 1.6614819665549025 1.115506113533554 6.8566727079718435 -0.7540608484514111 1.2561582150824946 1.1469590929473086
Ni 6.9733206192101225 0.6633848913850493 9.067058840311105 -0.45234574912925324 0.1359481080942562 1.142763309698406
Ni 2.65334320374926 1.53702642227147 9.238770921290536 0.7454728496720839 -0.21997638739076952 0.14714500525134014
Ni 6.3631578798484885 1.8640048338682624 2.5833150044996733 0.4253252546763514 0.5273358294828983 -0.05781074036088109
Ni 3.9856849775227414 6.813060574056267 10.211011292007901 0.8766669880211225 0.6810109225432723 0.7126594026864888
Ni 7.902418142677408 7.026401354714376 0.14957634239098572 0.7211918656375321 0.16516715286037362 0.37090631360583864
Ni 7.729871974457575 3.976101080937551 8.13352516170453 -1.25281398120061 -1.2647179317270478 -0.5572081915622984
Ni 3.1009129757619602 8.36528251657136 12.32650423776354 0.8908638483467948 -0.27848209693614623 0.5714477322004481
Ni -0.07722422836792207 4.726914708624133 10.087984324790645 0.47763306294113234 0.5958986661539608 1.2855502950913666
Ni 8.528082654617156 2.2369210956384284 5.8207705835936245 1.1553028369263136 0.3720535398364044 -1.1283419920667535
Ni 3.6999515494443562 2.534724468664327 11.39629249624401 0.04438752497643968 -0.17850037963417 0.2768363338026071
Ni 1.171072897400131 3.487853792967409 12.569854144232945 -1.2782581323053277 -0.0007219657676890792 -0.4661284047356424
Ni 3.2816468902185765 8.50532090022733 7.970013437352128 -0.22232740412144933 -1.0593420678582723 0.1551043693077329
Ni 5.4454817669733275 7.794446179926775 3.591268000387116 0.49386469430864627 0.03566068662640309 0.2252144958612573
Ni 3.035438028132498 8.501312597614163 3.4167879387492 0.31941997280108864 -0.48979438089401445 0.46161046226063085
Ni 3.308101687465478 4.379003049222846 9.233761894137318 0.6128610050399123 0.3346090218367011 0.38089196406364084
Ni 6.966646119802579 5.946573638148809 11.237816821309634 0.9581696726823048 0.7985543028780957 0.616651582430596
Ni 0.4884526571826818 -0.028891304790411042 0.30769982714069977 -0.8079100330613828 0.22692093702940272 -0.0712295848699483
Ni 4.659530187614915 0.3344581744956099 1.5434451109054987 -0.6820529906545415 -0.6847490494294659 0.2580953057496781
Ni 5.85750825334208 5.385852635963968 0.29114238475075943 0.13399638368452407 0.9638919198780626 0.8047234078032851
Ni 7.989997302919705 8.80196231586649 11.426232264908965 -0.8184448711544355 0.18301266568222674 -0.741812112991045
Ni -0.05251777165408934 4.792488737891223 5.832187490474948 0.31746619150882743 0.037618838794038434 0.5778574923815338
Ni 7.948995519784568 8.545521022839834 2.4628722665402085 0.10397078385671127 1.2563502764886427 0.7240830711423981
P 8.401744559218775 1.5508888441179058 3.4789202322219284 -0.21066976527786296 0.4165490511456181 0.4965576677597771
P 1.707563935473918 3.2100288810561266 1.5496142939611348 0.2767869686219104 1.2502377358330017 0.8360540995957665
P 4.872528686252125 1.0413029743711515 8.081636108078303 -1.2127492519692404 -0.8844869982861735 0.07689963867153207
P 8.544845466219636 1.698484454498475 12.368215805720965 -0.4722825972624963 0.20059721153320936 0.25664263246355157
P 6.34729581040627 7.705614988081713 1.4811407756801602 -1.568295281068925 -0.5295230669422042 -0.5225579484782806
P 1.9207515899647831 3.3052733570822546 6.086400347397116 -0.659901908478799 -1.334420024208876 -0.7626866424472091
P 6.784480025311146 3.6833238491659155 5.9576527667200345 1.8391563711247039 0.5208936734019803 0.524430225800329
P 2.430418526505961 8.36875037388837 10.146465910287832 0.6981259849570042 1.1073710462420412 -0.5115037475466482
