# total energy = -340869.3539953057 ev
CRYSTAL
PRIMVEC
9.28967741780473 0.00000000000000 0.00000000000000

0.00000000000000 9.28967741780473 0.00000000000000

0.00000000000000 0.00000000000000 13.59638191594207

PRIMCOORD
 96 1
Ni 8.863513370156252 7.387467251568544 6.7409233606868755 1.0122250597658116 1.0922961541867897 0.2806839896834714
Ni 7.236008352590918 4.911127258832601 11.91750036195176 -0.6366398526270649 -0.59860038135584 -2.1024321926340566
Ni 3.0902947666215734 2.725860725472636 9.06831080938534 0.1977666840629497 -0.7667901230926214 -0.06026537254896072
Ni 1.343129415534968 9.148409194116375 7.243975179858044 0.308945555632326 0.9462577517360671 1.2838801064777954
Ni 4.976675221981897 2.9502157223573664 2.6454613551965283 0.5427814746140072 -0.031999178614415855 -0.2782663813809143
Ni 2.663982184863585 6.60844420143577 2.3957780531067865 1.6171387849341894 0.05206509612635549 -1.6585926812036016
Ni 7.269423321900445 9.082833361935126 1.018548090076292 0.8098946675915795 0.7244090870232491 0.18660115436443347
Ni -0.10353066679562992 3.7500383600030767 9.667734670011598 0.3255507682891748 -0.44365747732663596 0.7208450238210746
Ni 0.5644092088827306 4.1993614724754655 3.6272158203230727 0.040462478890420636 0.7165281416132756 1.228339907318646
Ni 6.349252914612 8.170819291331076 5.241718076547694 0.3779344240972137 -1.1929844106374874 -1.1447122058946608
Ni 4.280655438677208 7.7914195800243276 4.349060906569237 -0.5157252418271634 -0.14561905552511695 -0.44599923808593506
Ni 7.803486870859211 4.589834479144169 2.1254131424060363 0.04564350887072784 2.205696951562679 0.3245210414730798
Ni 7.963882439415865 4.9892069966826345 5.949532034174145 -0.5553148311943275 0.0427895843617005 -0.4454518502228974
Ni 6.684656714145071 6.090619008427255 3.9907831345783267 0.8873499216562654 -0.7545835537241005 1.838329504348034
Ni 8.562611432178807 6.11110274691141 13.53139135740892 -1.1347265554368589 1.03811478304838 0.13558095456282457
Ni 7.842745047201179 2.4087018521903047 2.4970030219923185 -0.4950682276984441 -2.012464665034973 0.31035606282660744
Ni 5.822091595899822 2.237827527619987 10.517548777171427 0.6564010944143922 1.3509781856778733 -1.7789712169943752
Ni 2.646387536025041 5.892395873835462 4.504998358981426 -1.4060247330300557 -0.15373731375687716 0.8449503736441318
Ni 7.012108549894725 4.67228036533323 8.767109743798283 -0.33796405435186316 0.8602034431484605 -0.0814800589533629
Ni 6.014610868618929 6.985047719870078 9.68761272153468 0.029680814893884366 -0.21966451257730557 0.8245116461738057
Ni 4.563433216209036 5.186129576450036 12.838424162070622 0.8696224224695153 -0.9836207657655576 0.2409488758773786
Ni 0.1798648742777847 1.2728437169539621 0.7891367218278761 0.4446625215523826 -0.9233571929888098 -0.4597407560417437
Ni 5.365959149954016 6.7120891312624 0.8854604569609176 -1.3860392910470647 -0.99139552461497 0.8798335586745621
Ni 7.951740831162445 3.232306063767732 0.0892877335330872 -1.0415965709493933 -1.30023720767958 -0.2970845425286819
P 6.983403446984956 3.89359174358387 4.091164600763467 -0.14200537003192965 -0.9265024234860108 0.4475079614209777
P 2.025929988017457 2.5022117440640033 13.207838399229244 1.5583427978419033 2.10951352496087 2.3070773489843948
P 6.051407280471872 1.7584987574134394 0.8897197740107974 0.7093691619709912 0.9468192806664921 -0.6789486406976049
P 8.259006198102089 7.840747766578008 9.155355085846354 -0.8897199645503386 0.7291288610964218 -1.998737288146551
P 7.795516327721159 0.36243768949349736 5.465405145633327 0.9404282895384836 0.7999573538732094 0.24601369199479567
P 9.222364315237627 8.834204438220874 12.95845329578138 -1.737709125020794 1.2496700362549895 1.72782323336565
P 0.6216865723166334 5.8991401795676595 1.9277631809047073 -0.5483188594924686 -1.1384135173701426 0.1678159033371303
P 5.773357948694435 6.1444248194477655 6.505759824243726 1.1937606266818797 -0.7496951152835476 -2.28365922717077
Ni 8.64227970485006 2.401650987106643 5.732683096561613 -1.4094486711099403 0.6440651985568585 -0.3083223202260303
Ni 2.898332874541491 3.7305950653784343 11.403407761289248 -0.4961933424418228 0.002129387638176978 0.43001751794569815
Ni 3.292233772140197 3.763424785016985 1.0148424377945098 -0.1675117418331502 0.8497449668192978 -0.390439755653076
Ni 0.9204546714143471 0.7299781987372652 4.978750535894532 0.3011638548043781 1.9289601194524135 1.5538567370460918
Ni 4.570344736132942 7.893020780841201 7.179283724957381 -0.9598630012243275 -0.41238489246559945 -0.3466345855426675
Ni 4.250686939652317 4.543488279009272 5.451877517524199 0.061605174406306806 0.2914443135237691 -0.08892597370844685
Ni 2.839965831958295 6.184593384166807 6.928253419656664 -1.8970190477694424 0.7852992376404023 -0.40506033377972817
Ni 4.155941520695446 2.4041034619183512 6.525570061122393 -1.215079956984946 -0.4658543251386493 2.0369906752007947
Ni 1.9009280900388665 8.05927813578493 5.347456899641593 1.5978657956371902 -1.764237510328626 1.8028583080246177
Ni 5.001469370741177 0.16639019732936428 13.358132372671308 0.05696433320018576 -0.051690486395756144 0.04392215530424694
Ni 4.849239428546232 5.404743552752813 2.834873230853073 -0.25431321299942655 0.3527769509949795 -0.251377013189238
Ni 0.6497070260081332 3.5446064358132325 1.45338487974043 1.22886826901829 -0.05268293221601249 -1.2865491686695263
Ni 4.740020692329356 2.643972219922601 12.369281523042249 -0.23944683741055534 -0.06507616367404276 2.5568055137162995
Ni 8.168366816519368 7.149437849673077 2.2566456269611903 -0.9017822950315114 0.21734229220203216 -0.8130733224298772
Ni 7.059588090662306 1.1551342156692774 12.22480567450387 -0.9957399176265948 -1.896594044416882 1.672114112728804
Ni 5.39207243289232 0.5016955262828744 2.476717153635017 -1.3537225811922298 -1.1311858892734519 0.6147322539206961
Ni 0.8248471704024525 2.3022885985231856 7.62690403957755 1.0442988003719047 -0.25854653435448377 1.2607003259272223
Ni 2.4340255125566572 8.539117838243918 10.489608214704855 2.1700655755123144 1.25705244476199 1.1244295443862247
Ni 1.4059740825849951 7.896968893700958 0.8772734643413774 -2.3159671952748564 0.401050955510019 -0.3692821477388543
Ni 3.934066867654375 0.7883786841588026 10.944733659629488 1.0918750074889711 0.9072248062033215 0.653387761509365
Ni 5.985747841194771 0.7381354643893908 6.629038487079998 -0.9186317624886824 0.5406613429472108 0.6949943813065579
Ni 2.3117919384185557 9.029324820588762 3.319923513319209 0.7794317231160318 0.23056598998115774 -1.02477050053099
Ni 1.4330070435776898 5.5579303317114155 13.59896539918107 3.235566206772815 0.1350453937743287 0.15716176605739385
Ni 2.6926779980960363 1.7307226222353786 2.147779898482363 -0.3873084091129459 0.2389580706995949 -0.6224622755751021
P 3.4789748655680826 0.16866895517524327 6.2142804059689905 -0.6666829359563744 0.7460266652930249 -0.9042135301808234
P 0.5128979481595377 6.071714515087002 5.411550099323036 1.2637789648525461 -0.686840898961488 -0.5604868623135701
P 3.3506937114965636 8.647240392537379 1.4345816438829342 1.0686247787117789 0.13407634499284007 0.15719416195722608
P 8.252503423980135 2.5849456102498927 11.506671814345877 0.47950585448381283 3.2260441262149926 -0.4074103220691435
P 5.4367743601420955 2.071310061711379 8.385133076003777 -1.011674329468664 0.20037661088197103 -0.40415684812885233
P 6.008516840298927 7.586173449380825 2.6946121089134523 -0.06583721020978339 1.8569635745094535 0.6168798963913182
P 3.2225797716167524 4.170284782473013 3.360169182359982 -0.996110413592136 -1.7079056685061165 -0.27475605423481064
P 2.6861287755874974 4.0327046614071005 7.278360920447205 -0.239626043300897 -0.6304020992474691 -0.27886519130717785
Ni 3.752685918038444 6.00647311128917 10.787301498136983 -0.21592330036731847 1.1949492476733419 0.029621165300542537
Ni 6.133314365376541 1.8048263781937035 4.403215080489138 0.8350508551422329 0.34169678192141795 0.8852467592703335
Ni 3.385046938215115 7.330029176717056 13.102942149868003 0.12402204608063158 0.006661728290891753 -0.27763131890007664
Ni 0.9095718144373913 1.577377918762386 11.808403320507738 -0.9034154597595602 -1.6141938433732521 -1.5038557225376166
Ni 4.620620469772963 5.480649506110651 8.115082156396346 0.20531132917942707 -0.8989111441313035 1.4461694235697415
Ni 0.7167283319799181 7.31927173038388 3.618459370483996 -0.7864474923122328 -1.1892406273243388 -0.18770441473094127
Ni 6.230512259145119 0.18006181543690675 9.097501762418792 -0.6589886526359103 -0.2742009530622891 1.008620887354321
Ni 6.482671260239862 7.66774610590208 12.946447316816789 0.8595537253796035 -0.7996969011229712 -1.5887131826036447
Ni 3.581913779918614 1.708854721830979 4.48151684162705 -0.24435095958039207 -0.9239182076986023 -1.038932650963985
Ni 7.881195021616561 8.267348328332826 11.1987961156065 0.6050669629167902 0.34846906764824503 -0.201332289927021
Ni 8.15294595217302 1.471094720577706 9.73367651547914 0.9232589768480487 0.13067528973109108 1.089323444711711
Ni 0.4979740815496533 5.201058087898579 7.47175528076958 0.20399029637515836 -0.8614249742603874 0.4329588599622092
Ni 3.6473038185535205 0.33656315126224234 8.529581055510207 -0.3453492910723407 0.7176249742218802 -0.3105275554074652
Ni 6.781696683399259 7.816213728783606 7.487404671177928 1.0832060189600636 -0.5258677295778039 1.0053440163752623
Ni 6.1268115912545875 3.549966579625186 6.407716569839294 1.836485766271076 -0.23474763216267314 0.6663332659264395
Ni 8.7122031060157 9.291721046086925 3.500238936946872 -2.939453284128783 -1.4213978730520165 -1.3538241397671007
Ni 1.000739778659455 7.602318908557905 11.745220509203369 -0.5948622544696466 -1.964254166768017 1.0395054927483194
Ni 2.114488481881154 4.939823072065051 9.2190265341776 0.05883995295634383 0.7878214898416238 0.21328920517858105
Ni 0.434437333539504 4.070680862279312 12.23692034269307 -0.6503800850312929 -1.4052737137966445 -0.3745799058026839
Ni 8.712379609884724 6.018401056964296 10.063103336626403 0.7317670700502171 -0.1016742745130507 1.0671883033755685
Ni 1.1131727432280398 7.613568707788885 9.100003472520282 -1.2024157312537163 -1.6842615467246156 -1.9608813936410423
Ni 2.7360886601987384 0.41052570412534733 13.23870149417977 -1.5582396966051357 0.8002437747653767 -0.6315087020480865
Ni 1.6955147452036563 3.099250015555236 5.499083941778659 1.0165121171769398 0.5938597813470611 0.0527441244712511
Ni 8.260678340019163 0.5119448272668056 7.770073759485148 0.8258383354050294 -0.8890463355220819 -2.2194451543867064
P 3.4263302642122055 7.3185842942624175 9.048391883282063 0.26335321171450776 -0.18699659003063923 -1.2755998687468741
P 5.364547119001821 4.834989063541836 10.100711666276856 0.39425655829600487 -1.342701547491378 1.6052111802586677
P 1.5395596424045648 5.5785069669687415 11.266940543565921 -0.015595797555727979 -0.04721471001258965 -0.8245995779019218
P 1.258602641626883 0.9068174251128779 9.700556028940564 0.7945585514551413 0.6049525488261129 -1.9267692824486815
P 0.5724921571163195 1.6150661396377681 3.029763229223499 1.8196746082510082 2.084617790160455 -1.076455073389475
P 6.658608458947987 4.931583128284805 0.33103950912950825 -1.7482869005366406 1.4851419481781971 0.17713460963489494
P 8.212817922481582 3.2931813192265387 7.7760702461933215 0.4622316407843975 -0.5824052596532163 -1.3317057106015064
P 5.705506145570503 8.722588965256191 11.167428591177657 -0.8080321604615439 0.4972004435500985 0.4448378707879823
