# total energy = -340860.8613715178 ev
CRYSTAL
PRIMVEC
9.33315631550170 0.00000000000000 0.00000000000000
0.00000000000000 9.33315631550170 0.00000000000000
0.00000000000000 0.00000000000000 13.66001767763101
PRIMCOORD
 96 1
Ni 0.13609421567799426 0.9155592809167622 10.604038904316669 -1.5366424300503343 -0.8278296548034453 -0.6367031017648326
Ni 1.544040013229139 4.780069230248771 5.3636192157606555 -1.1447158054390865 -2.480883922687321 -2.9821893895447285
Ni 4.6651220796713275 5.414695845855665 4.502450768671449 0.7782071066803113 -0.8378885817013442 1.2154923619320162
Ni 6.778204620564219 6.918360625778695 8.390269342057707 0.9360589568261943 -0.9864325241827397 -0.9653253098904793
Ni 4.535876533942483 1.9053918181095313 1.485923383484848 -0.7740012961290799 1.2883756803553037 -0.13715087015310573
Ni 8.785281174427345 1.792077969850295 0.36279751076090916 1.1814802666526298 -0.35759314143670023 -0.7905432596481611
Ni 6.713031191489659 3.3509670344409734 0.06733498802825834 -0.9106217477000123 -1.3265771311256893 -1.1024895497800238
Ni 8.185159236937116 6.510632368217293 4.729015933044024 -0.7985100799037216 0.23306278826108248 1.334487644222018
Ni 9.14292771633443 4.146282598691244 0.2877944016775657 0.5388602851827301 0.4358135558021849 0.21039054347454733
Ni 3.153421452342712 2.2283656850900817 8.119623681405717 1.1159389904167103 1.530317516273571 0.03319499869472993
Ni 7.574173505741774 0.37454982092712535 11.968702190435296 -1.128926918035946 0.9835678010404352 1.3780891829620525
Ni 6.647223107800022 8.489914783202565 4.791934471603848 -0.42430709782448217 0.0043873304344182506 1.1199617384228582
Ni 7.115150222232529 7.3138157830632755 13.098016878971828 2.482345851944828 1.0261470691635424 1.7537962603906443
Ni 3.5366875077554067 3.6995884143954454 3.2397596795144206 -3.5563411509399017 0.08541307545918193 1.7897924759795951
Ni 8.458303383478157 1.188866757689626 7.245300150787855 0.2872636997835182 -0.37892584147620545 0.07152988971918649
Ni 4.783410500134021 5.3660981020218905 7.260190268036252 -0.20011950056584246 2.700823286192568 0.8191053875565699
Ni 4.877946038311914 7.980445790950945 8.423613908870635 -3.211027598201502 0.44560663063320677 1.2940966419994808
Ni 1.3680260222629146 7.394062259245874 10.596498647500209 -0.24164641616503546 -0.9674765519055273 -0.9642102224494297
Ni 0.2922425838767546 7.355282995633558 3.249936552930274 0.03795333931532174 1.0967418486629692 0.23498905874951784
Ni 0.7846347004047995 0.5601256303219462 2.396773153831508 -1.6312880798513778 0.03345365167275529 -0.4297879184333953
Ni 2.338487593961734 0.14944622880044406 10.366614612817036 1.4615317649584247 0.17339853963123042 -0.6098538427824722
Ni 3.5893825071188568 2.716639079829411 11.55485884899452 0.6147391958992316 0.24077404086241114 -0.496689308241635
Ni 4.928158418151688 6.072786015908131 10.02437617832212 -0.6350069450093322 -1.321895152268988 -0.40251545587068743
Ni 7.9912629188755355 2.509051021763195 9.406465245297577 -0.3953263943214159 -0.5810400038745736 0.7561848367729492
P 3.941503820612347 0.1660713797685832 3.756941591970425 0.21908832835886138 -0.4255846789853251 -0.06433928550801822
P 4.375775574133659 4.344565500121726 13.160661956057801 -0.17549116049420097 -0.8239655438623487 -0.7894618536585242
P 8.287067968437205 2.401449065039636 11.99083110355799 -0.4343104888940972 1.2977627779971586 -0.003283298736962087
P 4.086755729059632 7.800175880801275 0.5291040860633144 0.3173420072261373 2.8880715872226967 -1.6334971716875546
P 0.9011320882111262 2.95647319223511 2.200628478464464 -0.270059934310722 0.2002539692611777 0.23554595969425243
P 4.249255309987197 3.807731694173039 8.971312441840043 2.8322796770640575 0.5501309730005428 0.4470441344106817
P 6.818169195001749 4.98136674110086 3.4304677914508575 -0.6839201257702674 0.4344367300593163 -0.1066717277276421
P 6.956402570058791 5.266989317353015 10.19128847545568 -2.305481208141868 -1.618672447969896 1.3893218184530782
Ni 4.888772499392609 1.0443801680428726 10.444476467615049 0.7460037824748894 -1.0052272882917397 -0.10023368541178221
Ni 2.0639341408489797 1.895806666790675 3.9119419819683876 0.4181153671914735 0.30147367273531306 0.2629382356642762
Ni 1.4938369665454696 1.8450622970529709 12.168821856987051 0.06114597538170115 0.5550029563808635 1.5643077571760866
Ni 5.558902440819296 8.6767925678739 12.517684965684618 -1.7981845566980321 0.7431172049557137 1.5047736063661956
Ni 8.827644369983615 6.552603571217192 7.19891156500391 0.6731379475530987 -0.999131459806647 0.25802897128811686
Ni 6.678638511246246 1.5534758340503307 3.254143939701978 -1.5518006258480113 0.19657189242390016 -0.14822075481402214
Ni 8.969265680706425 6.471694440951209 1.300217843220181 -0.604692610296507 -0.7021399912124037 -1.2252561261869994
Ni 3.531059614624666 6.673290612798626 12.301569202886135 1.1761452275929614 -1.7899336295431496 0.41614435950803164
Ni 9.196668029181534 6.1797906506410305 12.481499386153617 0.7050090852300825 -1.5038456952352874 -0.03480502349432715
Ni 2.9804780697347186 0.4345582814137066 1.8853693983195192 -0.0039011348266190884 -1.1539902887624771 -0.917688938959439
Ni 6.11867714447173 5.50900738828706 12.454630163045676 -2.3428521925911583 -1.6378618764141535 -2.8925085399481283
Ni 5.992698203379302 3.2800817138307354 11.054027692717195 0.4563132184174335 0.43547982661185003 -0.5000314852409905
Ni 0.25926107683627286 3.888892819653833 11.232017512830648 -0.2857089537018886 -0.09905612016391327 -1.350523614638958
Ni 4.04920844205305 7.827503361873925 6.017209871255361 0.36756182261363796 -0.18396860183759284 -0.030915201521617718
Ni 8.150729224069284 9.024872624774337 1.063118345552968 -0.30071982528842406 -0.6555747418583548 0.184238824779844
Ni 9.152074209316396 2.936472238704137 4.847284753878898 0.15374528417667715 -2.135690183356238 1.747672149770777
Ni 2.1203997352784647 7.945353123999728 8.039876529074686 -0.5458634559734405 0.8055890982376901 -0.17855694390371832
Ni 4.665364741730033 1.0423548731682943 5.567740939649828 -1.1207639226091795 -1.0728066780036103 0.32861372348521467
Ni 2.744685213922072 4.820593794052545 9.982481507202273 -1.1837618635979548 -0.1909188079031809 0.4114814068147236
Ni 7.034035762532255 7.384663771049097 2.6861737916745803 1.0801608043758364 -1.7498187638001348 -0.9945091305432873
Ni 6.894505078776751 1.4184063989125608 5.392196406435638 1.9640078550851663 1.385226565337782 1.9579284816603053
Ni 6.299105718275169 9.221046232925303 7.192450221033078 0.6334267450064058 -0.07394364136700168 -0.4705553301587444
Ni 5.0242152607745405 6.282240705195155 1.4128279715091718 1.5682870535388087 -1.9836713949523646 0.4917484192965918
Ni 2.1838931962542976 4.401003095082898 12.328288162180803 0.26519283602640775 1.135867096799205 1.271540868186152
P 8.044396576575876 9.29356485585375 3.3310360795807807 1.2391760787022015 -0.9513433937890906 -1.0273380041478501
P 1.6211785484290884 5.67899216041007 0.40957062257634136 -1.1076512964866214 0.42439734354544323 0.0019154718551579913
P 7.118538157898298 0.27711167120087343 9.82302733511146 -0.20229593939187093 2.1098572814535337 -2.3934386472894587
P 7.075736304005138 5.353601005998572 0.5760507945822818 2.0676659927974645 1.254133471342982 2.021030809437429
P 2.861788323559552 6.442612326530998 4.033447541340146 -1.050379716458662 0.46905149191970835 0.2976694684978744
P 3.840136412166291 0.3642646829004654 7.430038776080144 0.21459506847419818 -2.0648614334691344 0.5646337946024083
P 8.221707876240563 3.2959667455198236 6.777909692831332 -0.7577269844490886 -1.1034539705758222 -1.321823161380472
P 4.054043016914947 7.916868331570176 10.742196680809268 -0.20521954079656912 2.1458774083018852 -1.2930430039239862
Ni 0.11877934447376605 0.5798577889571226 4.951223446831619 -1.4051369311084638 -0.6158123743587524 -0.2039445307388875
Ni 7.8364165259532905 2.916620615670828 2.1470813619487146 1.368767391340494 1.7705549679062216 0.021492108435504923
Ni 1.9371058825510836 8.518548906129782 4.455924985492774 1.450033277400522 -0.22695693247366075 0.27081146776476583
Ni 7.807997065616466 4.623020212485971 8.316164082591571 -0.4100410748237712 0.48661726871761357 -0.08227915781589056
Ni 1.3020966075439255 1.091615271085455 8.381131248916233 -2.3695811239455704 -2.8970493652412754 1.7478248732985577
Ni 5.756588020259119 9.274142558001229 2.0015065263002296 -1.0356696639419969 -1.7137940089660937 -0.1663462607701393
Ni 8.587502263426481 6.331193108960884 9.882695135400244 3.1231285230956725 1.4107241953882543 0.2648102558760085
Ni 3.591006476280961 0.29769781361957015 12.305940853205271 -2.1318299290698834 0.49227832365813284 1.3152442226113736
Ni 2.8871091760698313 3.935614599110693 1.0442672368540136 -0.1475530393230362 -0.4948897931390509 -0.16062787022912337
Ni 2.444932239328391 5.955729572051171 6.728583029505832 1.2879902719914271 1.8201512907771105 2.8330654061901464
Ni 8.90678020058983 4.567777261506117 3.611586085490385 -0.8933297933887839 1.4844204966311403 -1.1919708817713084
Ni 5.776168981765409 1.9054571502022597 8.423982568536745 0.5329354350578628 -1.0310524768849598 1.6631358204895939
Ni 1.4799398971065434 5.27103990710217 2.797462345059238 1.5072084410599331 -0.034099255676554176 -1.203866347657314
Ni 5.176485702612069 3.2899468598327135 6.899155790463397 -0.8205755443441933 -0.841843452584034 -1.4858621141736734
Ni 5.223160816288409 2.9623624137367637 4.632139639315236 0.08949341617614265 1.2538521926571373 -1.0579207620307136
Ni 8.909598813733252 8.623117587119527 8.829015410615298 -0.30134280358440363 -0.26620173690689636 -0.5786745889661905
Ni 1.6726509043429083 7.787053463318984 12.854759364907165 -0.5895477842352685 -1.2972305596427722 0.47302744584832074
Ni 6.50444448572031 7.790142737989425 10.643776683060869 0.3330383349154716 -1.137090684793661 -0.41638192944013447
Ni 6.8082013842826274 4.650749019271095 5.606248608419516 0.5030214211072498 -0.5085444078080079 0.519767273107021
Ni 2.4862034556204877 7.317091720855797 1.7746277678825582 -1.0393512265586422 -0.5231271907181894 0.7248101791164098
Ni 0.570475167125724 3.2475369984959235 8.06499765204434 1.1463538552631418 1.5110820650827266 0.13956745001439835
Ni 5.365090121162654 3.765275167055729 2.2953469465019967 3.5291165108959928 1.6622523894433763 -1.0217263143880275
Ni 1.9328032975871177 1.138738376254789 6.357221414703849 1.1659150652245212 -0.0017802318288743532 -2.415911117360362
Ni 4.929623723660023 7.447363913756085 3.584511532948155 -1.8305382904383891 1.2327863731257735 -0.3688221773833003
P 1.2586507658795862 5.83013329035901 8.723560079795671 -0.2685771791176084 0.6841584670333185 -0.3552074148133431
P 0.28675282145635406 8.244546109227166 6.386494858824193 1.2008229328452997 1.7367369909155121 -0.18180578985831916
P 8.694357567661719 8.022967650160984 11.645492194605312 1.5440590342293794 -1.2834808141568477 -0.875442628695718
P 1.3507503503143232 0.2028365482936456 0.10330683828447675 -0.6568173560162043 2.717604362305649 2.1253342940432107
P 6.004560644787546 1.173625713771717 0.2774448648737879 1.3951620792839392 -0.9503154667452083 -1.660387054099863
P 3.0828254595717 3.1498095209304457 5.7228645273083645 -0.00736955299119376 -0.008798057907604203 -0.46497937873286377
P 1.6704482795023532 2.4116688709735676 9.95491509733336 0.5425701299341493 1.157827146010064 1.281865647150928
P 6.245962727418725 6.732350824625036 6.211619512902662 0.11413229777074538 0.7928389976608733 0.1378700077073174
