# total energy = -340870.7494986096 ev
CRYSTAL
PRIMVEC
9.26641242072055 0.00000000000000 0.00000000000000
0.00000000000000 9.26641242072055 0.00000000000000
0.00000000000000 0.00000000000000 13.56233124104475
PRIMCOORD
 96 1
Ni 0.4793116766870035 8.430267098421643 5.6076168256145635 -0.7896701130145884 -0.7291864538072345 -1.4346439394286452
Ni 3.6802484164160236 8.272274764098213 1.495612888463518 0.5349272686769109 -0.09360332457945815 1.3196132982133466
Ni 0.28828180162672234 7.332484467632063 13.24495978032034 -1.117365695560908 -0.33736241621212226 -0.8352547436229227
Ni 2.018308055522101 2.9662249958123956 12.525491415690409 -0.44806640502760897 1.3936461568600451 0.2966981057235406
Ni 2.219657934261913 4.689555339984484 4.652340500460946 0.42273024025566547 -1.1108523199224223 -0.38180444857558116
Ni 2.9742404426856957 9.08176076700096 9.752373824636553 2.5550954730037287 -0.16150693039996702 0.8632188329360165
Ni 4.552236372105369 8.909479624494145 7.778051576303101 -0.7935797324816397 -1.9719721042375649 -0.6833516548613069
Ni 9.311632663632121 1.6205380295298706 6.832485524881888 -0.7728288730875336 -1.4745415469545315 -0.7590073938234089
Ni 4.916461984593154 4.338358303570526 4.361320473919703 -0.270829722597211 -3.0420333582855545 -0.43812934841955514
Ni 7.052092089667684 4.311522772766969 5.6474225540927545 -0.009008117035881261 0.35927567134544575 0.6609848571303326
Ni 2.4047174597031566 2.0195404883939494 10.050365899995683 -0.9325625136371618 1.0406115813283046 2.822430809294436
Ni 7.576580307558618 7.314183302805741 4.825938400193999 1.6620078775327376 0.377817181793059 -0.45421879778224994
Ni 2.139781457906021 1.738406797423948 7.9650894808281025 1.378395658458878 -0.009768906461305755 -3.233265069443464
Ni -0.02774178595293154 6.014281681033014 10.61280934377452 0.7789452703979166 2.0559607885453945 2.5389301760977756
Ni 8.173568937399494 8.09552721073252 1.4183486138111903 -0.19600753527999792 1.6753462465128566 0.7853473172695185
Ni 3.249313899834728 2.7677291721442328 3.5433760896227966 0.25720647538682156 -0.3260498194127804 1.1118198260420145
Ni 5.48144442541625 6.340755928709441 4.711377741587515 -0.3791006764911729 2.520397664511227 0.8224077124569256
Ni 2.5071947163179837 8.172864690044152 13.17836855966647 -0.0011647097320625103 0.7104150867370024 -1.798702376874715
Ni 0.9891432098155112 0.8818668781305312 0.22202787839041224 0.19243113078264923 0.17386673751690057 0.03265969501655021
Ni 2.1248995993181365 4.581073448024108 9.945664704363987 -4.027653156759012 1.0398711036178543 0.23382871989282955
Ni 0.966060576102921 9.230885144494623 8.867146945308036 -2.381332350944228 0.4122805056772513 -0.4655113399769337
Ni 7.297503760179222 2.482092004665071 3.547987056517773 1.014495343857227 0.21092790403525613 0.11437758101233204
Ni 8.640244007264394 4.663257261110003 12.69034182195711 1.9196568397736165 1.803976737899777 1.02505075077557
Ni 9.213325292673925 5.258059017584292 4.239435642817662 -1.5406875466539853 0.976285408446409 0.4531042245618325
P 7.402779473390276 0.8741275703518256 1.2161110127471446 0.2994923806392261 1.023858787349998 0.7217760202757763
P 2.2688069865347265 1.4280005091444035 2.1371924222338823 -0.8416981852554213 -0.18918896969626772 -1.443391089493656
P 2.2438710703080784 0.9928034427807754 11.856082065047698 0.5058663467552127 -2.341046506840988 1.456495230975782
P 0.1571963494836415 1.8655141786506038 9.080374511680445 -0.7032756474787437 1.3984178672170755 0.7003435614336132
P 1.7908824918094952 7.30099719771822 9.335983869225585 -1.5681620979251703 -1.8275007891636463 1.3191821242131991
P 3.9185249492484377 5.045496779634429 10.717252933136763 2.05611582606602 -0.35183438457605215 1.1451639487200989
P 6.819847991418529 2.717894405341218 9.761976607983144 -0.43960207631033965 0.1500809479512125 0.17249505398035453
P 4.394392300383064 7.844703955279934 3.4666001549129235 1.3783558063598778 0.36576770682769266 0.558368787529303
Ni 3.726877004469718 1.2491772793629643 0.39658670510700444 -1.017696624403344 -0.26464261994989263 -0.8647427257797107
Ni 1.5727326070797492 6.146216863208791 6.249197286026185 -0.6828222647203982 -0.37917806669632764 0.3600441740803541
Ni 4.101536597511648 1.502697060873504 5.933411845249588 -0.5068914455856174 0.001698470748345462 0.5081980802121828
Ni 6.97728434098774 6.931341467464247 9.353139705458219 0.6558459932418704 0.8708100150197132 0.40083138330004514
Ni 6.736357614160223 1.8169489103697185 6.006797199599992 -0.12557396394878373 0.04612096272777864 -0.794997952985405
Ni 9.199370075343069 1.4216808157714662 11.469948799961236 0.9609798884375902 1.1532863207169168 -0.8750487356914091
Ni 3.6880322029750663 3.4753495016617904 8.899086416155308 3.266852418480606 0.2974964332551199 -1.6289843714188657
Ni 3.653477750500458 6.350578326033947 8.76621625295119 0.7067386663266796 -0.2681534613166285 -0.18016285493825746
Ni 5.427106182104074 2.2776564105393526 1.674364766868166 1.0065624621633953 -0.16125624784174164 0.44776789995058375
Ni 3.1788520986502498 8.051437619723083 5.354028472651004 1.4445961655453508 -1.857921824657665 1.3710168494963033
Ni 3.7846438204329007 4.669669618608643 6.639127000342694 0.8084306814515431 0.8166258156678259 -0.5840062855917489
Ni 5.34747063247501 4.916730710557691 1.5767977822743349 -1.4454132621300075 -0.5187925678985775 -0.04333517245252536
Ni 2.125196124520386 7.1347762890323745 3.5200349229994954 1.3732925329043575 -1.851684328388385 0.9223292659449277
Ni 8.113911773271973 8.894783094157667 10.010736233356326 -0.5418625623441635 0.7373867302298397 0.2861822937938813
Ni 0.229968267321893 0.6528196922181249 3.1699915549505393 -0.14368147218277189 0.4181400497818218 0.08899153683905965
Ni 1.0032930218103426 3.937307967528413 2.5569470120491236 0.03565477308913214 -0.9719361303387776 0.21614981455582774
Ni 2.204155226031819 8.031060778481018 7.338129566169883 0.42894639636870646 0.460978999324219 1.3061797984162602
Ni 1.35352635131699 8.246365874551685 1.7139935068662644 -0.8450807285744091 1.278470762536766 -0.6288856626029428
Ni 6.547832450417692 1.3907587970244115 11.332521415055048 1.4108378381479834 0.33166716559955783 -0.030286566798683322
Ni 8.781528999723593 7.799567259650055 7.70042035171299 -0.24934249925771254 -0.5443056245680175 0.5013543178174721
Ni 6.3689350893356895 0.09052080447538324 3.0697252643749833 -0.412364066529993 0.29606715700776104 0.6739437312838458
Ni 7.9680491730030525 0.06873546852263354 12.762954357499153 -0.6018083467701764 -0.38083925644883443 1.0106212056138013
Ni 8.745853311327979 5.230954760816195 8.738834003805986 -0.6163181103505773 -0.4721969795272255 -2.988831320341278
Ni 7.438297632772194 4.0427226769280225 1.665521829352339 1.0732725618964354 0.8700507682561855 0.022838338050754216
P 8.583969083725028 5.962565832478232 6.487852815132724 -0.07052510260375595 -0.2822240804770817 0.11381322386842979
P 5.314871393052734 3.1218265956926907 7.04111509733692 0.028601980007408805 0.4141211584304158 0.7298801374401495
P 9.360466657877547 7.5012443733621685 3.3841680019701452 -1.9497678002263836 0.8114447856875187 0.10562400318941809
P 3.5109603251694113 5.2203076527729335 2.994603384308906 -0.6655863604580861 -0.8586299280137535 -0.025509200014698006
P 1.916516513437475 0.6146142731908228 5.891666656620435 1.6568975528893657 1.232937039771025 0.40198657995041087
P 1.0794258674878379 4.5004556586625935 0.47632140535057116 -0.25374088543572426 -1.1763378032197418 -0.39663302894798147
P 7.035690539418273 4.9460681727552265 3.600392326167786 -0.37014115330503994 0.5732768149893869 -0.8531203110494339
P 7.747045233201656 7.522510790210981 11.678129878047864 0.5774278610432829 -1.6615893019380803 0.029390023126342934
Ni 6.489917371853385 6.828854944436849 2.3980780750965445 -0.5750189944914743 -0.02222333017457463 1.1382512807606655
Ni 5.613629800731425 6.415155955236292 11.109895853053853 0.5210065448307607 -0.36339946370583226 1.6053284225628224
Ni 4.751649570617991 1.3195464164217396 9.146775770876623 0.7582885133795134 1.6267531680955014 1.3304929212403278
Ni 6.8828688633090644 6.348076394639969 13.62336207739941 1.8888552810117276 -0.18814767291594695 -1.3548168426976732
Ni 8.914483487282101 3.6134005161339577 10.614965637979626 0.5048882991126595 -0.65889635003242 -1.3568953224932567
Ni 0.8622665622618556 8.48911808465555 11.156834865928651 1.0792133528609027 -0.8596663396980678 0.7262885634341492
Ni 4.8514766332377155 0.16359851392845426 11.986890451454926 -1.7105413063567507 -1.2410951501017853 -0.3652192905233904
Ni 8.274924958093317 2.6025646344913995 13.687511598341006 -0.0228247112039994 -1.5444292730846048 -0.5511565860515798
Ni 3.0309323547907248 0.3320924736177922 3.835210633828968 -0.2513906400359928 1.2449826580816494 -1.1996024301746373
Ni 3.4168691719306956 7.247511464362511 11.149904515967334 -0.6226324826043793 -0.6053716386414026 0.10482387588562592
Ni 3.1352350946818985 3.5110900549453956 1.385867057828556 -0.5015692620417556 0.20608831655476764 -0.6996650473093499
Ni 6.846099738230158 4.05418522927747 11.618143756274097 -1.8720582640590469 -0.3305785605210694 0.07917583630021849
Ni 6.785386203069623 0.3380405838466608 8.068407201063055 0.6762620950043772 0.04247770954823652 0.5488155966232291
Ni 0.183109872236455 3.925307963249889 6.432383142845716 0.5080075614679316 0.7397930256784871 -0.2761004840778471
Ni 1.8907002880166497 5.767442982985654 12.492250013877012 -0.1862535412170276 -0.2748128756146751 -1.4499327472669157
Ni 5.7413302323625794 8.829399287061706 0.7049228768183465 0.5964943907564307 -0.014913426776722702 -1.017584781415828
Ni 7.589905408834695 3.1572428245363353 7.824814527339065 -0.24818473150418546 -0.1576651880563736 0.5789077880229191
Ni 6.1522122321417685 4.7392511105989445 9.393908214202462 -0.8438409426300371 -0.3722255466378945 -0.7270969182680576
Ni 3.916745798034942 4.63305802254343 13.031976847239786 1.1824673131562475 1.028291112089739 -0.9373943878081662
Ni 9.120670433383603 6.014921063500364 1.7039709550302395 -0.20528304704465292 -1.0858501414511301 0.30983027223012444
Ni 4.545444091691348 2.7822681734670165 11.403411324500274 -0.6436322247844979 0.3913805222997905 -0.19000658050155664
Ni 2.3295853865832528 6.053256212303651 1.3309783896097054 1.10791637722255 0.1508093414768048 -0.43875721181154115
Ni 6.561129752456056 6.879412491420347 7.13447791054761 0.3934931977674191 -0.21182059105285453 -0.8043626820297566
Ni 5.619541771951269 8.81895604009499 5.621844475474986 -0.163466368119183 -0.3686193173438748 -1.0835520894455728
P 2.0384069043870583 3.945962796869064 7.582238379074037 -0.9861682147777596 0.4772008604997201 0.521958624331385
P 4.911263527141221 6.740156843314042 0.40306207421112245 -1.7972229641157111 0.17633628210331567 -0.004729287154869274
P 5.270383346302776 2.059599189935309 4.176913303923407 -0.06025225992283817 -0.8613807512860133 -0.7701757517354026
P 7.658523193917685 9.135737620222894 6.174834325149615 1.0226408557824969 -0.521866835948527 -0.15355579387369037
P 5.333283754829898 8.397102607832577 9.972002628812518 -0.33878655025315846 0.8190930462613959 -0.22327151320227354
P 4.494358359191343 6.85001016433482 6.738797460589981 -1.0523026445129877 0.2341781328124483 -0.24189915560578984
P 5.71892404676762 3.2308922716449935 13.286975548196544 -0.31472590975952897 -0.016649692741539067 0.558972996772205
P 0.3596656108619445 2.8906018028262666 4.476193410629805 -0.5228276571998995 -0.12101976891919802 -0.486686174282336
