# total energy = -340861.5947349119 ev
CRYSTAL
PRIMVEC
9.31896869066353 0.00000000000000 0.00000000000000

0.00000000000000 9.31896869066353 0.00000000000000

0.00000000000000 0.00000000000000 13.63925265457302

PRIMCOORD
 96 1
Ni 5.677991814468266 4.466917258958665 6.615269473398931 -1.2686846296842798 1.105053710962774 0.6128934009397444
Ni 8.046547535555831 7.7148854337184165 7.300655403960241 -1.648913763352941 -0.38085211196464086 0.4909768312378899
Ni 2.8606252339653677 0.09321205415618303 2.46039881871776 0.2542422505521751 -0.6330243673616647 1.8605605478320923
Ni 2.0625487405302403 4.709368871869708 7.107673537258918 0.2507149541252069 1.2304811220313647 -0.25562576116326297
Ni 2.44071249699448 7.07571599733672 5.915685161877815 -0.2435875990518063 0.11376051625362343 -0.09486933577607533
Ni 7.873177438826883 1.4383548871115315 9.40554674331371 -0.29368554414946196 -1.9169425261662472 0.5452139953148998
Ni 0.7951997277470908 2.973310205457866 1.9880985663861188 -0.09457623001568873 1.2987907050410405 2.470660959407732
Ni 8.828455618013495 6.500381497667198 1.0424785665292147 1.7051882695749536 -1.125253840059733 0.43382917838230445
Ni 6.012440287995744 7.575100900772049 10.439920602622696 -0.975581697511165 -0.4896437142487632 3.4469219423741086
Ni 5.216106441738015 1.0637323388152669 2.226949329728463 0.6653346494585961 -0.15783719485786366 -0.4416723285758071
Ni 3.7677057061920722 6.73526610786141 13.264692035784204 -0.35930549614211665 -1.0525957502733743 -0.3979782301219662
Ni 0.9909605109633879 1.4179090694259096 3.9077138943911534 0.5942824707067765 -0.4108496867679956 0.36363343409350923
Ni 8.983336880518069 6.670415403543159 3.994705536831223 1.0165332002228622 -0.9930567143674769 0.2873436610918342
Ni 5.917461357343119 6.3724413741458195 3.6673227054957405 -1.730602595883 -1.5980365168870994 0.16065486681231686
Ni 2.604362909199224 0.19786221069492416 5.607655965077199 -1.5588876146017796 0.4716578191943039 -0.2226999569695197
Ni 6.267053155273121 6.218026060084398 8.59969916174365 0.2321729294569614 -1.6269560281349271 -1.8199052362045753
Ni 2.642430897004951 2.8550897664606913 10.126177014115232 -0.33949668894630564 1.3965049664650788 -0.3947219279681976
Ni 7.374370311461065 7.5289999618063375 2.4760835752112285 2.0357575741246423 0.7284421194420422 -0.05225252954681323
Ni 4.4192507332239535 1.1272131547106436 4.459558069247482 0.8167060340864579 0.23049039954821593 0.32829670646542813
Ni 0.9049408369757386 1.5279940486056054 8.782205575545973 0.48213943545191806 -0.0525633759190127 0.6583209371449243
Ni 3.1805081591598348 5.0912415779414575 9.290813462465104 0.5757862116748019 1.3932928872856842 -1.050054214798443
Ni 6.57816693076742 2.921179893637734 2.771454816605107 -0.7278124562778433 -0.7915747862364689 0.3974028172344704
Ni 5.2696718747630635 4.624100306772424 10.351742655446351 0.9470756196516721 0.41306237814859836 -0.8227614962519185
Ni 0.23894488492786153 7.35825781429678 12.157443839965847 -1.6772180096142726 -0.2680994681502415 -1.2846282974977294
P -0.0362796776809002 1.2390314620988745 6.755644828971218 -0.3108828818643549 0.6068559364964129 -0.23228194423099996
P 1.8170498248009668 8.240354131001538 3.9666899207381126 -0.40296437048264794 -0.26456111597967985 0.37144598815939256
P 7.659008896415322 6.407061343472202 11.319365672685901 0.4884687201040555 -0.5008087297266473 0.6732276790534275
P 5.068950604420943 5.980392354075574 1.2454587549237486 0.17712303967066917 -0.16347151032550555 -0.03076273510415347
P 2.383484709206237 4.04125471819925 12.671521029710727 -0.40432808359939404 -0.43269866432228704 -1.3610160295298497
P 4.951811165811887 9.339843353344486 12.37927257478287 -0.42846739984975885 -1.2815067211496123 -1.6308877590891655
P 3.4423525462749702 2.0769651853614426 2.6110716348837633 -2.306904570851956 -0.3354258613110417 2.707348231795279
P 6.701447569857252 2.792950882081599 10.794977975790898 -0.23610183219772243 0.06275291485750484 -0.6063244894729751
Ni 5.8060437656160016 5.442147350481155 12.403523327455291 0.38105522911438244 1.6928932542576844 0.2008736051230476
Ni 2.7138235174650926 2.55934297062163 7.331643771120678 -1.7304478154726908 -1.0234106440689859 0.7996922731372809
Ni 5.690954500156826 3.8959533556859327 0.4253289216741163 0.9285125119375042 0.29339063861686243 1.2112909222561592
Ni 8.847988176750533 8.784647145388103 0.3963003336655873 0.1488956693938597 0.0922565807435766 -0.9963760085486968
Ni 7.0474236078683745 3.299772322669676 8.562886439043782 -2.5961680746743223 1.237420015243043 0.5435965143161348
Ni 5.440218323926495 8.1315924454004 1.93577814760118 -2.9865273547984503 -0.9728738116616987 -1.3313426708351328
Ni 0.5601026450627996 9.143846800215952 10.580350008214387 -0.36402527021528924 -0.2959152048109291 -1.385148660911995
Ni 0.1805736596601174 2.0138944040960416 11.055255844240147 -0.1303605867041497 1.5216112467488245 0.7619093979615523
Ni 3.0897320834644635 2.450944724806154 0.6129971123297051 0.18258611966776944 -0.3179662710736975 -0.014537274384226577
Ni 2.7396277422469923 3.051664095658736 4.892754996332706 0.6698927011429237 -0.08567481376100083 -0.8441322486182109
Ni 4.4283087709588775 3.3721434348604413 12.094552914799504 0.3256199309642134 -0.04945028421132774 -0.2491424674317645
Ni 8.6029086146201 4.320376473586556 10.580281979741686 -0.1704152886331904 0.5020788546883225 -0.6025840485939363
Ni 6.5395863996742225 0.19662558352679196 6.743423933204161 0.2189662009587003 0.3719854056026303 -0.3929085289085427
Ni 9.207532633426316 8.76118198179084 5.592434361336226 -0.12178570055094509 -0.023047882958399015 -2.7685386872616706
Ni 4.149056550007488 7.895496369253986 4.021165817021084 -0.3134889520286343 1.4164518419006509 0.972808505641402
Ni 2.542345171415352 4.733104285564001 1.0060255560274611 -0.5685053617426725 0.9700209155939359 0.13967800745033362
Ni 3.1296918219493985 0.8010082410394556 9.327967259425362 -0.6010712114938358 -1.0354099825227072 -1.0767579493418746
Ni 7.243289695432826 9.039269331634344 11.825436936280498 0.3288024424572531 1.7971622860811047 -1.1780583854552744
Ni 7.113029148664537 7.529931858692646 13.348109853665278 -1.733281428266744 -2.4943475043913947 0.9018478581621242
Ni 2.720039269696774 1.8009652845432718 12.100745369609028 -0.4007079703483034 -1.5270848682688862 -0.060042972125509485
Ni 0.9858257591198247 0.7613336630017312 1.3401366828820958 1.5391155741811753 1.9859537632286377 -1.6097669179501501
Ni 8.14455513108896 4.089331278563937 4.543057894054551 0.1359707338020755 -1.3602025324896188 -0.8912793386176586
Ni 7.198176567166601 0.5733663334456373 4.249882201724817 -0.9914670012828537 0.32038285093499014 -0.2572998064315762
Ni 1.7005440760746013 5.647211260313475 11.19114318440797 0.5557560324968042 -0.5615037336138587 -0.21246670927728567
P 1.3623027822198446 5.19040472561361 5.0079654083871015 0.4828104933770137 -0.8002684573557249 -0.7169256341620105
P 6.446406030012174 8.439258202415354 8.618916739333118 -1.2240567065622596 1.758556400783449 -1.0927874920009115
P 7.1349287254928 7.845798308307121 4.741577092054323 0.9804925045492211 -0.026042703920664826 0.36549516989259634
P 1.114278425928673 5.150920254540693 2.6579087723896593 -0.6091473036337509 0.45854956394712 0.14763865705830703
P 7.899168042986044 4.928355321183487 7.513386961373114 -0.7712990667065684 1.9141618780973164 -0.5324273850731928
P 1.2124258059947493 4.251751586878753 9.195229730733264 -0.9242629926325308 -0.46930191736761756 0.6185146037812639
P 8.387062657813182 1.9484752426771415 3.1618376050426313 1.9334762621552124 1.0119047003119155 0.1793796969153298
P 1.466293155763079 7.303257260066816 0.1650538489155254 1.7179162586645835 -0.18586170509524766 1.2010273355466219
Ni 4.538943569301496 3.328800910678204 8.621631354962936 0.7329605761376861 -1.5675211219070617 -0.7813993883653639
Ni 5.497408835839285 7.219647471427163 6.02715866741811 -1.0597084500587557 0.5121120705546084 0.6163533344638868
Ni 7.512952697424095 1.432474617758921 13.483479059164313 2.4643938954520976 2.667954817599321 -1.9092636694647507
Ni 4.18620195989577 7.576284409817662 9.125165063336112 -1.6056022450494993 0.5244999026959999 -1.4914156970020507
Ni 4.190945315047084 9.00401567242527 7.168204899509128 0.2680673293607254 0.10408956882276268 0.3262922744408897
Ni 0.8491248729702541 8.81339616433074 7.6166774803547295 0.5836918396751237 -1.5215037746366828 0.43725131668997597
Ni 3.7288176491263925 5.573097500945312 4.338210184299854 -0.13619853354216543 -1.4020089270024434 1.3731953452048609
Ni 9.141395911404958 3.232247074287717 7.733402224849379 0.521890747207927 0.6055665282610281 1.970719719887703
Ni 5.342807142400603 1.659633802765631 -0.13515673300895634 -1.4386286351080062 0.18935866250491257 0.6199783328109839
Ni 3.462360372424027 8.88831135502113 0.42323401747369344 0.2562839635725522 0.726843921716987 -1.5760862378682534
Ni 5.164591181862847 0.8330981103195099 10.177378224739712 1.7870799621444382 -0.052130659256968276 1.0197828175084114
Ni 8.19242667413866 7.958613745363703 9.699622648035618 0.7984041504534767 -0.6511115638806786 0.3468207334115447
Ni 7.385748772442899 4.973543001200616 2.436543190325133 0.7720943089143542 0.902903038899516 -1.591584847724485
Ni 2.604195167759688 8.393762996425744 11.708044021718367 0.633025395802929 -0.2283039334198584 -0.4013502319179927
Ni 7.286967702494134 5.814039440900534 5.597385529493186 0.36663828235810403 0.32335813151323023 0.427575998383741
Ni 6.534200035671356 2.4723690342224005 5.9393767764184515 -0.19394551054464662 -0.4063250594247647 -0.7690076995692304
Ni 0.16748703168567852 6.2488438901146415 6.535957593198934 0.8476747145538305 -0.9151849415906625 -0.5645090960990858
Ni 0.5578493183917042 6.360121697308813 8.939015864605208 0.5593648328939851 0.46110909714418 0.08915197367632387
Ni 4.2878159963789155 3.861165644920013 2.4002765592006408 0.8807241888096317 2.376408431280049 0.42164189228749316
Ni 0.6418784606301972 2.731902317059489 13.475364101078334 -0.27293391342440737 -0.9289128326997165 -1.8829617983454283
Ni 0.1335594617458225 4.956442693336843 12.889189776827264 -0.22538521711116669 0.2872066212933376 -0.2171474025824067
Ni 2.9562285355318196 6.616374703106094 2.434251655881699 -0.33797896675019856 0.6480174983363871 -1.248493242338069
Ni 9.317543060855108 8.737511800878588 2.7720959616628877 -0.05376768063975901 -0.0637975540719353 1.3443946189230846
Ni 0.5346096738409274 3.1193943613556825 5.734228063969476 1.0818564469107044 -0.31874968620694133 -1.8773796762719603
P 4.423751795184827 1.810722244942928 6.574460776850568 1.82040634421071 -0.43609252049518443 -0.6244949897344149
P 1.976637166581403 8.263921803256295 9.271977962599024 1.1845853879405148 -1.039358425647494 0.6262883341894117
P 5.452929397455751 4.103132671450175 4.294073683970481 0.9580848262779823 0.6814927472756973 0.9011685727069124
P 7.025952703607813 9.569928694574205 1.351357653290144 -0.4708949728863503 -1.871870573528273 1.4526010381276984
P 7.894704256900623 3.7984862603468623 0.237900228518309 0.09852647291268839 0.15198922071751889 0.6920214147211631
P 3.9973623748540907 6.10485650221102 7.141280534669884 -0.11676253630474083 -0.5699017278695668 1.2921066081526458
P 3.9460614512627736 6.427535118064414 10.897899463605537 0.26016684356672615 -0.5140290850716631 1.5732500539710388
P 1.0028887911081446 0.5246029650757401 12.463358562731425 -0.49048857874756174 0.6320869431490598 2.4629803029340227
