# total energy = -340869.8922673635 ev
CRYSTAL
PRIMVEC
9.21398524151459 0.00000000000000 0.00000000000000

0.00000000000000 9.21398524151459 0.00000000000000

0.00000000000000 0.00000000000000 13.48559876486043

PRIMCOORD
 96 1
Ni 0.8116074538808233 8.505807693118944 6.866138450235826 1.5111933938496103 0.6201819641813576 -0.23421515669797083
Ni 6.702317475476198 8.992131056343535 10.731893665388368 0.2891912558235342 0.81602649152093 0.5463239405496269
Ni 0.8941739770208841 2.4617557623556396 3.3706582950331896 1.2198470393562864 0.8367102451225268 2.6508911772488153
Ni 3.498918814552694 3.149229640776152 8.539552993235915 -0.6859600390184316 0.9832613255436098 2.5144599588705536
Ni 5.286975606655925 8.91301056374185 1.6348190009702832 0.23375441501146837 0.5184488114059136 2.190677338225395
Ni 3.7137889540043414 8.578865383329584 10.841949192561021 -0.2568935721320931 1.7573667513507218 0.2318019192707879
Ni 1.3885752412427834 2.758068318728948 5.872574134138999 0.5962524499489538 -0.5309819108759177 0.282762469479055
Ni 3.6484617975415548 5.8060086180388915 12.555092597794712 0.8704410617160687 -0.3422323427099138 -0.22393562914883372
Ni 5.581712571526393 5.513418511765861 8.017917030978372 -4.284475766443854 0.11144858029099515 -2.7314397255268443
Ni 2.8872576079764416 1.21953546515445 7.368894956415477 -1.1223292102137703 -2.2564674972473266 0.0678814943333218
Ni 5.204012882143806 4.928837208270586 3.248020149402768 0.3545402135429894 0.27180879868102864 -1.2264290634491781
Ni 4.0521725676991 6.839393936223289 1.2727416238278437 -0.6932074646094643 -0.08139804076251787 -1.050795720950158
Ni 8.460161609463565 8.7136199197567 8.671199652388715 -1.1075998744233957 -0.30244297862711783 -0.7639873635365035
Ni 8.312166576021353 6.769220223441824 7.012093507311202 -0.41460838247947945 -0.7851994788377445 0.6018839372031183
Ni 6.506207010292283 0.9174061198001887 4.270835183540041 -0.9624924684273747 -0.9926332536768132 -1.9921732617757886
Ni 2.393249780930982 0.6926162036704256 4.937562852441286 0.6572212763228423 -0.7093658195368815 -0.4213246181573905
Ni 0.27879124174289427 2.5199973640483435 12.604840747748714 -0.3718612213199402 -0.6593298380254128 -0.8831970758301563
Ni 3.3583041834132596 3.377248137388928 12.119386263347035 -0.12011962570243183 0.9956267890874982 0.3862781680762186
Ni 2.0071100809249933 6.982708265083963 11.394373687021721 -0.947723280538 -0.08226861629292928 -2.1117879228173435
Ni 4.701565044474946 5.160301735421737 5.391097327233087 0.6812112114795364 0.8962986462091208 1.4517453749956224
Ni 2.6427645054743194 7.451654051850329 5.367255218620519 0.4270322100651291 0.7937710225568394 1.7701685311010804
Ni 6.9924658756190965 6.5639879127151515 9.064291304376534 1.8930492644884171 1.5978172017874417 2.4637590900815765
Ni 2.8682215141468057 6.728291700309568 3.239133260487626 -1.635741744747357 -1.9446600466861736 -0.0026662339782534726
Ni 5.674967317726656 3.0257714504454216 4.8339267088945315 -0.0785384598265357 0.11962777366767784 -0.3222034490834967
P 0.31796726485269344 0.9006762865153536 5.080213774353396 -1.1767630636826185 -0.24944174383973816 0.35463662991153766
P 8.75842753074098 5.238611397308511 9.424465072136009 0.085615164167659 1.240705113752218 0.004704861674837058
P 6.014917308938859 8.526013963093964 8.72336186651666 0.31702833264046043 0.9734296841651687 -0.0042320358034765825
P 6.579688543831173 7.237032690004392 5.405796398136483 -0.4002685688180397 0.06301311049742696 0.06689264805749125
P 5.850889940906344 6.8137606288495975 2.2633961633363846 3.138772400280517 -0.9068357982950188 -0.680384601813183
P 7.273354220438286 7.902807632815615 12.556927102287199 -0.32353065253535246 0.1745930741599638 0.37393944400520757
P 3.138053076489924 1.4929696957876881 11.199655455031253 -0.3506563051075509 -1.8418501159067826 -0.28278689495908715
P 2.6686834463953097 4.509223099318292 2.7483245291719096 1.6610203168084876 -1.0262028621021424 -0.4341474809536716
Ni 7.601971009612514 5.625469788175445 11.613420526053705 1.6013234151684874 -0.09130732945642984 0.5518309864107851
Ni 5.657193539896372 2.057003811848264 2.059345085537572 0.4578833911180308 0.6394043027460795 0.7255434577380085
Ni 5.673557577960958 4.598156486367491 11.645771750180149 -1.4714629080292077 -1.0412474151400906 1.2202339903820598
Ni 0.4225146715551836 0.2309697361353472 2.7061419826271593 -0.7831485098459867 0.40692515490260883 0.8271740234973173
Ni 1.2970342963263117 0.04444273716256771 11.881486688794812 2.3542321522933265 -0.3246832780825569 2.5997133688234197
Ni 1.655264834565618 2.671189650423219 10.2902535243452 -0.4946195701967998 0.5830482925538539 -0.7620184127355909
Ni 3.349320547651452 5.123869637163083 7.432938604712499 -1.0035254751092846 0.8477474767732949 -0.8264001214457702
Ni 4.930071882313747 7.574577831028048 7.117078578320036 1.3737710152026728 -0.33879323512137777 -2.368993369762901
Ni 7.640135337125753 8.220819124798213 3.342850487105871 -0.9642757855800425 -0.7313914318783533 0.29104193587902777
Ni 0.7093008884268169 4.964145200310839 3.1344844999457715 -1.8171904083765735 0.6741615037216068 0.22404875768793028
Ni 8.651462374270388 2.5091893591779844 7.103592989293388 -0.13039195416271737 -1.324368810620461 1.7661025885618227
Ni 5.229231560174645 1.9279527323817212 11.401264826699933 0.8764780119387678 -0.043656046127053844 -0.001993890501577211
Ni 1.871240652264873 6.0063390885345065 0.7153378916587517 -1.2949633608751503 -0.25893657070405085 1.2343951123737902
Ni 6.914423419308827 4.049850643379125 8.5045849972568 4.312254222108702 -3.052307743628369 0.35798369200689956
Ni 6.7053949465987035 0.9632945312715028 0.005391102855624324 -0.2450284452633909 -0.8522283953627838 -1.3267625076636183
Ni 8.012822618452523 2.482653081235414 4.811877641840167 0.7954730928496107 0.40351278678695024 -0.29330296399906264
Ni 3.1279176925535257 2.185852183636079 2.468080241931952 -0.21988691300075675 -0.251274940393735 -0.8291622575719396
Ni -0.019177989204745293 7.1260963058278115 12.951663450668335 0.8085841763102719 -0.6601867867090695 0.6961526632807172
Ni 4.8351494047566765 0.28857925842983617 5.775881649987218 -0.7887810255414158 0.47615467862339284 0.3139738620848528
Ni 1.7912264030797054 3.6365481144235883 0.6207379035905669 0.3583768136802602 -0.5361326018389219 0.8907314365339885
Ni 2.6249630856878454 8.837142607985209 2.2515552707030517 1.418463215903725 0.013460496380280044 -0.2879789806829879
Ni 6.279119126204577 1.9696736582580958 6.984839459906226 -0.879661294762756 -0.29659731847961823 -0.1809969208037786
Ni 4.766717135215194 8.51066346342302 13.028747652497342 -1.0082735313172313 0.2968798827170436 -0.6432092783144664
Ni -0.09878037324267937 0.8914834932850402 10.57516377379006 -0.9026775531522712 0.9069836367267929 -1.7831297192474387
P 3.048456282492161 8.076518899500089 7.863237251130836 -2.587465918914634 1.5154164307920224 -1.1956822691846247
P 2.4028599676997677 7.811662889271203 -0.28421827914156583 1.3821998626963161 0.660003981274302 1.3420248331393274
P 7.5082739921132085 1.8692688593899738 11.552910441156326 -0.3600295187923348 -0.8649047052788718 0.16976428531275278
P 3.944120160951696 2.8948499319433436 6.562348744713074 1.1579359036737864 0.7439060194055962 -1.243482162276723
P 5.227001775708636 3.9651556896124207 9.71944897181511 -0.9092084122922535 -0.43887702521885713 -0.434962006435167
P 8.828979016923709 4.4994654887831596 -0.11560511057710085 -0.9034403994602247 0.5327845113022954 1.281973890594018
P 0.6835892621772534 7.328094507680234 2.842979801152475 0.41906770380241376 -0.8261003308171645 -0.7980634792846062
P 5.631541804551888 2.8070037951709588 13.369407120585093 -1.425867478787596 1.5988638978844012 0.4617986670120369
Ni 9.035077442277673 4.498580946185074 5.670546447533307 2.050139039657295 0.2613166409004532 0.9820899309433279
Ni 8.760463821513657 7.445729459240233 10.677047417314357 0.5963804908863858 0.27210961775089915 -0.8421188177326077
Ni 1.5284803955066697 8.574958653521373 9.58023670925306 1.0173821784867187 -0.22262308098499725 -1.0191138164658449
Ni 4.3348115697436675 4.134333675481705 1.2197980637382566 -1.193799450339615 0.14042388447742268 -1.3894179777113103
Ni 8.172537841319368 6.4029274479803835 1.7447667245137943 0.3778966288807427 -0.5800419016273622 0.11392789506942315
Ni 8.97655020703767 0.22840548399943836 0.3544205552777601 -0.9134592171488075 -0.6136518763723239 -0.9688212388588797
Ni 4.132067035074111 6.986725562716936 9.192418221107785 0.16702271801187363 -1.3733056455304802 2.116189137208833
Ni 1.6315756781106359 6.150160186592001 9.022243282018575 -0.5926091967694116 1.200831931706364 -0.7575997148426049
Ni 8.391756981878272 3.458064003303611 10.478674918715546 0.35826677046495714 -0.02351428107185628 0.13377089793727928
Ni 4.7184082097801605 1.2515724923788663 8.964322327017676 0.9551799939263613 -1.1415492347856468 0.6269881884699138
Ni 6.205766588461242 6.238531520532 13.688691985349518 -0.42341003993150955 1.096041737272151 -1.4451677217781047
Ni 4.923456240798898 7.71843578502713 3.8361672652465755 0.06552199296220974 0.9229244763267653 2.2273795787424353
Ni 7.416382915751662 5.378977250842233 4.595919330713166 -2.4133970926892565 0.7539173808950113 -1.7952529848735341
Ni 7.247352353648725 1.4924721405762649 9.132730945106333 -0.4431802805799013 1.0163455096920881 -0.10955470570239197
Ni 3.773587719229093 1.506652464101826 0.35954629535395877 -0.059637509156974716 -0.028862946978279323 -1.0143840150903434
Ni 8.976458067183705 2.446912031881514 1.550075213080976 -1.8185538643830033 0.18628953666128562 -1.5899192870966037
Ni 0.9074227666228363 4.187673436943351 7.898595920090773 0.05461665890361561 -0.06307404564234943 0.3702483683068656
Ni 7.623273743849745 -0.21178806133644318 6.006917726817421 0.7801151223363016 0.6858528240166059 0.5070012316906042
Ni -0.005327526356386916 7.039807332587474 4.858146590908365 0.864049556367428 -0.022789229980373655 -0.11010055090353296
Ni 3.317596795930525 2.9822537974166856 4.557619557614595 0.15202058817608657 0.5556256775665269 -0.36473720868064924
Ni 1.1040105162503007 4.874281200736572 11.8904141192457 -1.6171984345275312 -0.6051438389013127 1.2728827269260272
Ni 5.475392394033573 7.1462104359488645 11.395694972527613 0.45808059473050133 -2.3867301249210313 -1.0379859707799994
Ni 2.3892969811957867 5.093970254550708 5.153171032123211 -0.5433165211818707 -0.7365344095318734 -0.6915398470990541
Ni 6.807310839071889 4.270037252404684 1.141759293022147 0.7575410936905276 -0.9739775862488386 -0.5166837490856908
P 6.958023998206135 3.977861775474506 6.290613572986992 -0.1946836742622518 0.31549312694285664 0.6553225166382327
P 7.630497508400778 3.712609563873561 3.007248575602384 0.31822312427951 0.11710603568708865 0.8080732981121245
P 0.8596445667466538 1.1019742254776244 8.443792043007742 -0.9827751299358107 1.4200596138565673 -0.13606535039841083
P 7.515276621014721 0.7567556774155744 2.0192393713012433 -0.3866792601693792 -0.14709229763653375 0.6851000050109813
P 1.5951712218081717 1.0202922449356493 0.9069887879106504 1.1540591943271994 1.9804955683275443 -0.3384335377891139
P 2.5619302115888436 5.012371199877304 10.517041032508974 2.849119374329216 -1.1395368323413084 -0.8071834393080035
P 4.236203498027907 0.6976940310225613 3.6949463538680374 0.5543637801349678 0.2935873280087008 -0.8000537702417577
P 1.2054841374244432 6.066828902664013 6.606055284442443 -0.07682353401795801 0.4149233426167371 0.6637097122606633
