# total energy = -340863.15268881695 ev
CRYSTAL
PRIMVEC
9.33481968023461 0.00000000000000 0.00000000000000
0.00000000000000 9.33481968023461 0.00000000000000
0.00000000000000 0.00000000000000 13.66245218005873
PRIMCOORD
 96 1
Ni 3.1812692612350655 1.1208971615902856 3.4623798927761786 -0.29278822914617314 2.6339465789746765 -1.391680805603558
Ni 4.647834801396503 3.9800777991629412 0.21528614945916602 -1.812706918683923 0.5274687555163367 0.8982897084972208
Ni 1.6987318443321953 1.171566563666554 7.3964286288039185 0.80744466338919 -1.049022431099819 1.773504794563165
Ni 3.6979422044037054 4.289172353611982 11.350259715030631 -0.24273424991257556 0.4366823315603835 0.22719578795734421
Ni 7.464243294475154 7.953509206601803 6.50428402776993 -0.23329598731781112 -0.48109068247242953 -0.009286310397932394
Ni 0.2954983893561739 6.929348782984319 0.17423907967107338 1.3974876420933222 0.03392133533779319 0.42333676349141286
Ni 4.48104024054559 6.416848504282903 13.136817278319047 -0.009887948537673292 -1.2460380959293573 -0.7357782480921392
Ni 9.018434788448298 9.212795072278434 11.051639761920901 -0.07068142567596214 -0.8793828442903887 0.24685367139758777
Ni 7.460416018341906 1.7162346315269266 1.8407424585153696 0.283186444390351 0.40343256836831815 -1.4990601009211861
Ni 0.4798750833704358 1.865853123877411 1.5620140729967078 0.30145207546875824 0.03786026538088319 -0.04934718297456018
Ni 4.457665851673266 5.962597501365555 5.257420940332632 -0.560200441421403 -0.45641143455819455 1.4688324123848961
Ni 3.3530019417798536 8.69938931605281 7.153947348713066 0.6741738450167808 0.012058988047063103 0.09181589366173219
Ni 7.772740420454615 2.431151143577974 9.303433372451599 0.6407836995921093 -1.46972407096123 0.8619286533696834
Ni 9.021879336968219 2.0557326941856964 7.007076093840667 -0.6419363251393138 1.4109008301754344 -0.6982283148628233
Ni 8.354626415005866 3.746203222961978 2.904022311624566 -1.5907191572900796 -0.7932218349215888 1.9838742549917896
Ni 0.9150811868559491 3.1310105912316337 4.077504380321712 -1.229545497590973 -0.18855185033290106 -1.0570080204084569
Ni 3.2134837244932095 1.3079016073887166 9.76107104800588 -0.5583037386193224 -0.7962086854640545 -0.7456613115338061
Ni 0.2775027236740386 9.37925357961521 5.665559800218229 -0.379896690029907 -0.6219717090919289 -0.9979824338038683
Ni 8.690661259505038 9.398109915686334 8.270497284705172 -0.4948278295528639 -0.82560385079672 0.2809223309465227
Ni 5.303596560139277 1.0226295131641845 1.8509752880208974 -1.0996801053556868 1.0736908803807765 -0.9108264075116508
Ni 0.06517477862127814 6.004884235228027 2.91056695381242 0.33988158308955013 0.8322069579355345 -0.7541557221580625
Ni 5.1368019992883625 2.226373200809533 11.007988277398233 -0.10072836566001361 1.5190949080848741 0.2494684833126155
Ni 0.13075002101357175 2.8758152865225286 11.6341250519057 0.182475305121518 -0.957100350877526 0.5648402541862595
Ni 4.942628411854971 6.545519660918734 8.214030026028025 -1.091532793658204 2.448752332260099 -0.11599789022457443
P 5.761674839189873 4.2763369763358465 11.982367040305965 0.8265659575996732 0.898054709668279 -1.234960755069273
P 2.3531773934779245 2.5375960941814535 11.130635674793124 -0.7359682526157584 1.1455971796027755 0.04850977467492936
P 1.9363963573870573 5.576089286006695 13.028897426181292 1.2240286815378016 0.31667454884546753 -0.42260682730392374
P 4.696814601082241 8.108149832024695 5.5528717221076365 0.7226764206028585 -0.2837225193994791 -0.6619027409589117
P 4.386730555730457 4.733789822457351 2.486320862297752 0.7286534641218999 -0.7130101011576883 0.6789743517292178
P 6.157452530647063 2.2446507780507514 3.7706184442461494 -0.46198095822617213 -0.05563481575548483 -1.8854776227887464
P 5.998275182783296 8.005625505752835 1.7534936314250877 -0.9442710603233415 0.29262162166132183 -0.14139061926606616
P 6.731917343427747 0.3054502407846023 9.808752374252263 0.3356001821053769 0.28581848269655935 -0.9561932656822243
Ni 3.7358882470418835 8.445519555760587 2.0038581668684468 -0.3258402745051356 1.9525417634270954 -0.9133484026025561
Ni 7.503486877070702 6.264588257918495 13.547578289096911 -2.6848929881155565 -0.12777302848263156 0.7648826216572633
Ni 1.788504806706453 6.829372862528012 5.8111195129035025 -0.5317295876752198 0.5933669008710426 0.3827192470803667
Ni 5.751779930162453 9.159642608125473 7.888781565850726 0.5954235262897553 -0.6783171777611932 -1.5605202651091963
Ni 6.541533692848254 4.697458703651007 4.721538804903022 -0.1430988602064245 -0.319392719107579 -0.8675300587168607
Ni 2.646468097942603 6.316405842834738 7.970360423371899 -1.3449463776614965 -0.34383773952382074 0.18723081752863238
Ni 0.23491074120289096 0.040085583344862084 13.566064032820499 -1.5296138053383268 -2.06185787075612 -0.3194875928142304
Ni 2.059868019373572 3.3767963975448514 13.22935241388313 0.8978695902406666 0.23783732683159042 -0.040790808764116844
Ni 9.216370308276078 5.461784417100302 7.107070683936648 -0.052060982361297435 0.41274330424628275 1.5309790611169698
Ni 6.022368352783085 2.6559989489963742 5.887997355154666 -0.8692190163835095 -1.6596836002749353 0.49714747882497606
Ni 3.0234641318873656 3.0959490079231475 2.1595284229193816 -0.7420872210293026 1.0837166400478948 -0.10954802083417263
Ni 6.827449889641552 7.371492524572832 9.284374470790008 0.7739976965846541 0.5388870246556074 0.3288227541722273
Ni 6.98748604093034 9.3143672469269 13.395378719061442 -0.14859742142715052 -0.6897087074275863 0.9000511712730177
Ni 1.8625392628352087 1.0538918247989346 12.589854711742694 1.7570535909856773 -0.3222589849117805 -0.3776688291406528
Ni 4.013757829135524 6.764981275291075 3.2869263530442865 1.6526963703238249 -1.676814603528267 0.6621223131688855
Ni 1.7580359547578643 5.185072352666474 10.115256516196485 -0.7820043689392145 -1.2042432713807583 -0.8288714658043983
Ni 9.313200394447252 4.994436661951375 12.551653828522959 -0.2124037172498342 -0.4108481441060988 0.2573509713844858
Ni 2.7708732419128363 8.620248713473112 4.329535181106009 -0.6153107521319855 -2.3961773863768605 1.9438804882076717
Ni 9.201322578698527 6.8387636912842265 9.281737384186002 0.5292502728967917 -0.17089377093150568 -0.23784066926570008
Ni 1.9593880186460568 5.041138765596838 4.341435209434459 0.6860520845116056 0.8513948437178951 -1.5523228169000685
Ni 5.298733119004101 4.631162813167282 6.9423568544274445 -1.8361152703055343 -1.790856398467735 -0.08559793777647838
Ni 8.667268200993039 6.2297880495654505 5.202744100100258 -0.639277290249912 0.5009791938662405 -2.270038293953226
Ni 6.017504911647908 3.949720965052399 9.373740435019364 -1.6486831353993736 1.898511316044253 0.8390962288562002
Ni 2.3762343984757845 2.4543761753329036 5.6228782034766445 0.18636718397675647 0.6684384851949005 -0.17544590907856236
P 2.898032157735041 4.692259209001692 6.1680643538379805 0.4079176007228652 -0.17295296745337954 1.325634307596446
P 3.952922808256555 5.177436470039652 9.34028070679494 -1.1570491301934591 -1.6824183228682899 0.5166019880051619
P 8.122637472412015 4.760207362596599 1.165616549502329 1.4211824146071008 0.4977820270851813 -0.37047951048106514
P 8.248872241070337 7.52080296786869 12.00075663538523 0.9793460496496036 -0.254078214170485 0.11008975227025555
P 3.061615540561962 1.4836015863643102 0.8612164759494104 -1.5428328751317624 -1.2581988996616074 0.46284227778520287
P 0.7497269887059133 1.0951797329388266 3.658695821362206 0.9026240742065165 -1.0773050800945962 0.1964471939205778
P 8.55766808128459 7.9773970105651735 3.7470638933509677 -0.7600260648959104 -0.36648941548506564 0.9345818580600356
P 3.9470045324797765 1.5811224492034361 6.728334639574234 0.927646564392783 -0.29982662405019334 1.1909079877244328
Ni 7.829020049253035 1.0018221997470877 3.9869491600450973 0.8131077752122383 -1.6636533835559606 1.6718806565617594
Ni 1.317936538713696 7.172100772850451 11.269651678772528 -0.46456903066832245 -0.5521816848819845 1.5328163714360246
Ni 7.399926385796913 3.6887380720442353 7.462499550129567 0.855707869270952 1.5375490010250037 -0.6943258944846236
Ni 1.5178137010676123 8.684686974809235 9.63661922993646 1.3910303165037525 0.03387659814278682 -1.7956378790167786
Ni 8.084999478828465 4.449413870937189 10.637721715074102 -0.7488589925354974 0.7677879682295164 -0.5708129268299267
Ni 2.347408474818541 7.883526062282388 13.374761835969025 0.6575375220116805 0.13721771883529918 0.07503533176928369
Ni 8.136098282617242 8.049051087635446 1.5106987013877058 -0.2168797507433168 0.5154498766785897 1.5410228185062171
Ni 6.296065270409501 5.676363920697793 2.141261113979984 0.32271586994354096 0.4386615667739413 -0.09072343192850182
Ni 5.416258500754325 0.018394262489183258 11.529894320567603 0.2348029108806408 -0.9358090455989174 0.05275929397990268
Ni 4.627820947665568 1.5428590226907937 13.261254160676728 1.269681189269594 1.1249825886762173 -1.1969374817479643
Ni 7.345084319253421 1.4447874054812735 11.580335953039842 -0.18029938051612174 1.4994730200888886 -0.4212274304578939
Ni 1.4235413555318286 9.106611496630395 1.8145237500386535 0.6386465986444486 -0.28264342740268744 0.9425329945863123
Ni 4.273060454572993 3.1501469718978736 4.168318175107816 0.21556026060094485 1.2154957043661259 0.394636567343243
Ni 5.409145368038386 9.207212850015795 3.7048471706372745 0.2625332869163737 -0.5207481489630514 1.438036252939646
Ni 0.8807066462874799 4.062476253865819 1.4932379208822417 0.09276077407350476 2.3133071319441907 -0.23940030044333607
Ni 6.820971524674541 3.5087627455832093 -0.013212503997558986 1.8497570294586851 -1.3498191323727657 -0.16696743929390598
Ni 6.382561711020905 7.040125089992256 4.307388321042276 0.7995215518873714 0.8663846322585078 0.0162902525195913
Ni 5.2207967081834 1.883579946748235 8.717628620532697 0.21399034501066372 0.3987500752909843 -1.1691477132292056
Ni 4.55040728675575 8.639674473554305 -0.021326329400044693 1.5015484145606786 0.2236990876579954 -0.9858853934300182
Ni 6.343523494461775 6.6395959752379365 11.585623194995627 -1.0867055474728897 -0.35311736505353375 -1.3557930905680136
Ni 4.333820796893264 8.43737025804272 9.617683547896721 -0.5118341343028733 -0.42344372138292236 -0.5727479390691104
Ni 3.063025098357378 3.1847418142145005 8.073320685730156 -0.27037823688208923 1.4379532063075366 -0.2740711123526441
Ni 0.6259724816783319 1.4598071305993123 9.824874541593076 1.1572414487099232 1.8484768771946811 -1.1130974072028572
Ni 3.0052518983850076 5.847639195070558 1.3328190419801282 -1.6626339411525106 -0.1437138680826041 -1.0133085226379774
P 1.1905629220352358 8.320787693096051 7.40019896253616 -0.40734655871074366 -0.7079555694529163 0.6708200980531995
P 6.765942761734305 5.900950351160752 7.584683006978549 3.9299872320744056 0.607761736140134 -0.5832249273410343
P 7.171680705957776 0.8635735179583011 6.369339872203509 1.5329217866656375 -0.738247021347606 0.4447566239280856
P 3.7914210902533276 7.875404769024033 11.549513311419425 -0.7273409159580635 -0.31893069186949585 1.4491423901551364
P 0.4433124610321293 3.9165730198105364 8.356543787000424 0.1652723109796702 -1.4292798469032546 1.5924253413479093
P 2.0340479077039038 7.243913541857954 2.7672345291402998 -2.0211313395710353 -1.0039278527540256 0.29838269251481514
P 8.437426266961742 3.8705896972925378 5.3219488159391934 1.0321495666038807 0.3517071149695685 0.4591925968477576
P 8.468175163505446 1.7579986154785157 13.37261669437044 -0.7028588716562992 1.3405816729348976 0.8108786287714036
