# total energy = -340863.2689085014 ev
CRYSTAL
PRIMVEC
9.38020958457618 0.00000000000000 0.00000000000000
0.00000000000000 9.38020958457618 0.00000000000000
0.00000000000000 0.00000000000000 13.72888489314298
PRIMCOORD
 96 1
Ni 6.9232230725332755 4.520623116589831 4.6903364327039805 1.4163826792256122 0.26091272059381515 0.8753827219920601
Ni 9.252920040374383 5.048381842735207 9.084224476989142 -0.033687622060432305 -0.6718418544494945 1.2896005539013402
Ni 0.27902464930403614 3.3093097649949423 7.254164367263201 -1.133349472583674 1.1120843925573105 1.0075865325525357
Ni 2.946098673601395 2.194359305419524 13.786271163211774 0.10743303137369885 -0.5019276738224387 -0.5186434439152229
Ni 0.3316776411743458 6.044644511721473 12.139121386321701 -0.1783186026406671 0.0018653353435129165 -0.27683042026533616
Ni 6.819712460887714 8.274958160089565 1.1572561423649648 -1.5101202153900897 -1.220554606946272 -1.5598587202657974
Ni 1.8633879940192524 5.857696936724097 10.379380016985515 0.8925106399215985 0.8053877808601613 0.8259810316304808
Ni 2.62416050393331 3.2256476766155346 3.364208379015496 -0.15317938437087814 1.1101624929442493 1.4174666563184104
Ni 5.002137409983724 1.8394496994184846 4.267582585574818 0.3160448856812686 -0.7049373514518827 0.8458548877362723
Ni 4.614106284298002 1.0609485935814447 12.149047523996673 -1.5162371269211048 -0.7456551408862191 -0.251318906257793
Ni 2.0624829402971905 5.16587834672001 8.193480722498762 0.40351664344169214 0.07621521100999777 -1.393890154550051
Ni 3.7810311196885213 5.453569371565445 3.1514520956464303 0.1085226648934518 1.07928791485258 1.6934655818213868
Ni 1.9074280775422168 4.209134500285874 12.702266014720971 0.35071852580405405 0.8237398010047877 0.7375469099567878
Ni 8.81688100255436 5.737686536597835 4.014256896191519 -0.3225965707568574 0.04171177791648945 1.8588178541093727
Ni 3.235412474687399 4.060739586263872 1.45612650087231 0.5195109341218407 0.7860939656275558 -1.98846933056164
Ni 6.014430856976539 7.226307021140411 2.875871859264574 -0.5994796986369999 -1.2015616107835372 2.0229827909574776
Ni 2.168676291854907 6.414956421693696 4.880989190447165 0.1138582181737523 0.7657781368883392 0.4044530392130325
Ni -0.013765457416389815 9.19932152338818 11.803436519656191 2.244860509136018 1.2428134183444726 -0.06730119634981957
Ni 8.586850125401293 2.353597741603942 9.149642995944948 -0.4477838407901837 -0.23622087427408994 0.5975783678492289
Ni 8.311878664614886 0.2190757304978029 0.356159987925131 2.1078610769591113 2.0702080424930283 -1.5596838852508301
Ni 5.804220362461176 4.501825176785779 2.3713769906581326 1.0352058369317012 1.3134426506262606 0.9374589224975144
Ni 7.683235785479205 2.440167694923098 3.140647032342894 -0.23869453262556314 1.081577482217705 0.17828749229241553
Ni 8.291767495483207 1.029928240820967 4.919924563969449 -0.6347284945369649 0.4854533303164994 3.4714160708607307
Ni 8.067317842972558 5.013374900944429 13.420094987600633 -0.2698622164776191 -1.1629523830517714 -2.1037709660501385
P 0.02068242388919789 7.304068957754974 10.24817339882027 2.1833671777172268 -0.30365911042240606 -2.5618644162964457
P 4.649994965780187 3.102654369873658 8.633615159779087 -0.21023781994676696 0.5899393632467324 0.7789622396787811
P 2.6016949022213827 1.3482831704665232 4.429157631941465 0.6410315539368573 -0.9640089050719012 0.3403256126055042
P 4.560657850663529 3.148523594245819 12.421825891805941 -0.44284372317608894 1.031599093417049 0.866386946251353
P 9.56800127691035 0.046220982227775674 6.915925269555455 -0.8259362944354743 -0.11076055308503505 0.047320639462834636
P 0.8954376113157047 5.738568276289242 0.521956128559156 0.3687386165305585 -0.7407993554558144 0.48425776734650156
P 2.0089031837299545 9.590607581764523 13.242346584043295 -0.01501421402064511 -0.6509169313713693 -1.4858135203239249
P 0.7085904045597976 4.4236223703255115 5.526398256012868 0.8531735328848725 0.7882179539490942 -1.9299633639059475
Ni 4.32881659308023 4.39641976282464 10.674935409461545 0.4068274529824801 -0.2893316380561404 -1.6960464551746854
Ni 4.209547229503128 5.412005663346009 12.73122084535328 -0.03208736745284796 0.07278793049600368 0.7802200233452822
Ni 2.777264283115807 8.895055668386178 11.180515568305177 -0.029614994652955445 -0.21671648569257515 0.33749122848050267
Ni 2.949681913623924 4.091168985826918 5.738014843929742 -0.029086890063627326 -0.06866182414277207 0.20104509770390538
Ni 1.6054885144920146 1.8372922512373808 6.346259519523562 -0.2549544461278513 -1.3790728870315603 -0.24280778346298826
Ni 1.2948910180889486 5.258010764262621 2.9892588934748483 1.794467255747445 -0.5414604418097384 -1.6608999891805394
Ni 5.846149898850451 7.208963013806234 12.015259472181693 -2.101121958463065 0.3095039992389573 0.7863191942644846
Ni 7.932346008720816 7.604066817442183 11.525412738703999 -1.5104045793997278 -1.8410857269369325 1.473391235400172
Ni 8.112699296451602 9.41810552937106 2.963022447550731 -0.3318671974255059 -0.30979916188187295 -1.8213329697900373
Ni 2.665649170476882 2.559296355357954 11.01736089466158 -0.46906126211172117 0.21562865194503508 1.2838898766698081
Ni 3.954555614915639 1.255728643497175 9.773304983845126 0.3525470943723606 -1.2621447716832328 -2.041709163722387
Ni 4.752445613754163 5.811630727952792 8.697714821281572 -0.3129986426557771 -1.1634509199547447 -1.5167438913541942
Ni 0.2794223701861179 7.814830744317047 0.2628878749303289 0.5843006769037163 -0.35767567384817756 -0.8577940623760194
Ni 6.70745949400394 2.305233381509287 12.769606538599854 0.5231295047110345 0.8502913262410711 0.19353336270789248
Ni 6.07351679651033 1.2910545124103772 6.524995659139467 0.803219826674565 -0.38845383557129876 0.08962505665800048
Ni 6.7131626613696405 4.044502443648696 9.349315763127043 -0.5701413546841987 1.399792636077415 -0.516436408961575
Ni 0.4009167194526011 7.688451181951786 2.6133207338546867 0.5178944815643404 -0.5675393982849775 0.46642690981266766
Ni 6.940332574630375 9.4166984979486 10.532759574326812 0.2675939892687327 -1.5651233110988465 1.7746090833709374
Ni 0.8248196422434395 8.955239092429489 4.7589254624650605 -1.3538377666138555 0.12775785897397998 -1.9912507499615189
Ni 2.3035824646402685 8.849177063804534 6.350666341938703 1.1863964730073244 -1.6128730676792997 -0.30613533987704056
Ni 0.6435470939833147 2.3977879084786355 4.271976275696683 -0.6386769376617517 0.9853763150040835 -0.6811911568748784
Ni 2.794739613382747 7.520967541631759 8.930571017530937 1.2674733829849978 1.37905231820627 1.3492069527100636
Ni 5.618567256372462 3.73574346830431 6.752703058403582 -0.07168621279139267 -0.3588187863136853 -0.0703384405142466
Ni 8.682875329879373 5.507899544891326 6.868300069968065 -0.8205531757466901 0.24670429030391705 -0.6449126341588183
P 8.280745749340612 2.56707254901941 1.069055908637653 0.34132731439714126 0.01990290957151411 -0.5864431771680159
P 2.802618989348517 6.8200782890575535 7.001374287841385 1.1616488337489994 -1.738849666383141 -2.1709788313552028
P 6.436709127484911 5.795787554135905 7.056399534689961 1.1875706958210839 0.7063653421476609 0.721079508429384
P 8.239425926567735 1.6563667707281293 11.463453641005545 0.8579879235543804 -0.06673735342654957 -1.7722593521918384
P 6.832966696887277 5.384137060971838 11.373241352344117 -0.3939230862159861 0.7280891069779977 -0.5058434639370772
P 3.8854422314444563 6.83411108244421 10.840244717223399 -0.6364801871207489 -0.9133756562960657 1.2110214706448563
P 6.843022281453116 5.960766678523955 1.0071868609502375 -2.104782695144104 1.7088070972744636 1.5335954156938942
P 8.20994392816248 7.714800190389701 4.30941456778547 -0.6025560235694785 0.7327309766253832 0.5075303647211968
Ni 8.539883416519613 4.849859089235736 1.8834653943967932 -1.6883089773211117 0.6582787710530792 1.6959988897662017
Ni 3.947398515080064 8.73011406483606 4.255103154878555 -1.3304155310351733 -0.04706610024986733 0.22544306693229557
Ni 2.2367015710260545 2.8647253563358537 8.487512768954744 1.0760498675312564 -0.73215273552441 1.0302448933819999
Ni 4.1429852630113375 6.683099089976435 1.1005199453066794 0.26839205968999585 0.0547783812924605 0.40627235180995835
Ni 5.470791436176343 3.0275939335902162 0.8764586334686304 -3.3563170383013428 1.8009901444676273 -1.7284876064225263
Ni 8.33543237062685 3.9083674634210537 11.236763056449394 0.22622313963142973 -1.376579174075429 -0.08369197900301716
Ni 2.4618359788289657 7.1336399316572665 12.967673413918448 0.17712303967066917 0.06775011096178009 -0.01864692567722595
Ni 3.931189513093338 9.136136432310291 0.7628455362098137 0.13109823620112263 -0.4723368475391994 -0.4740741419452803
Ni 3.814471566495628 1.3591173124194569 6.607780697932209 0.7580900242154621 0.5757697566145697 -0.08584759189343924
Ni 0.49773736569484467 2.1305738809347194 12.912015940950717 -0.28641395018871324 -0.5494236625208732 0.15882424136148132
Ni 0.7978262134140391 3.5238351558725127 1.2722434403130496 1.9866227642712042 -1.2239739170404664 -0.3619743012235314
Ni 8.481294628088424 8.982826288519167 8.92086437675787 0.8400796758153919 0.3342871197209082 -0.8887825403377337
Ni 1.2802672715048586 0.4855468454506605 1.4411209797622597 -0.2958028476027809 -0.058703170268163414 0.9398194523098912
Ni 6.544384552140951 1.3259957927347736 1.23723180841753 -0.4080379283508134 -2.5196011367518607 2.096454377784067
Ni 1.185555296354407 0.9294136680842945 9.803906041241708 0.5348861310263304 -0.22318589546700274 -0.645181828659805
Ni 5.261659665751531 7.823995208981995 9.54279665402937 0.5746834655289265 1.6262975686153216 0.2963301808611606
Ni 3.642719930860809 1.489539745071916 2.3813162606263827 0.2605800198447448 -0.6823622943648442 -0.7163337662142824
Ni 5.369860382138621 8.48812342059209 6.986725214691691 -0.9328921290624386 -1.4862845464230725 -0.12203972554328014
Ni 6.330900364516 8.929040167343304 4.85623575564232 0.2499971021225759 -0.39223798520407926 -0.9669695303621217
Ni 6.068329540666198 1.9846272015877964 10.402911210494716 -0.46802742153056814 2.6571597838663465 -0.7700855060144415
Ni 7.904740052212172 7.851310378996665 6.592926198194835 0.013886271063788988 0.27053404573366313 -0.31892066456716683
Ni 4.731039975713822 6.074651801857781 5.844852615878944 -0.9607184072460875 0.2332736187203079 -0.38538625238956853
Ni 0.7607959604377652 7.416275023591332 7.858344598088012 -1.2917808493821108 -0.26125262043173714 -0.0008988576651855487
Ni 7.496335111529245 6.700011607674392 8.972224775761411 -0.636548321354523 -0.31802206401229743 -0.03843747804059186
P 5.4067621262449785 9.426641520000643 2.779962031363135 0.7408566910563111 -0.16526588322176697 -0.5148132715358553
P 2.5717532735514568 7.8388159399652295 2.556249663317856 0.6194746537016881 -0.38675947858801135 -0.043364740138880156
P 1.0185312862990497 3.8920834197584626 10.738775239161352 0.20262838303062522 -0.225845701687353 -0.7106955940918985
P 2.7394432784801115 0.2676136244678943 8.165652455025368 0.05634546866926425 1.7387275389829797 3.0540005579497596
P 7.750885856271029 2.47619707954753 6.796223478321184 0.13439824710863305 0.9835680581507512 0.1161002201303936
P 6.100147211232737 0.28024689059967883 8.605114331285758 0.14109879905726022 0.5556966400137784 -0.22953986270948856
P 5.010945426688316 3.9565629797450135 4.437807123105794 -2.4815678361282227 0.8976255925506605 -0.044143784396749784
P 6.229716044822237 9.5332006997282 13.03484884611043 1.0250996017356346 -2.425997812172403 0.5192425109518025
