# total energy = -381175.4745171817 ev
CRYSTAL
PRIMVEC
9.20532218512138 0.00000000000000 0.00000000000000

0.00000000000000 9.20532218512138 0.00000000000000

0.00000000000000 0.00000000000000 13.47291950614829

PRIMCOORD
 96 1
Ni 6.170502396347613 0.4727457671886208 5.578637918352321 1.1078796104473436 -0.35266099424240555 -0.713645677859158
Ni 6.964673161669942 5.148904939846661 12.891845752142897 0.4997044409188749 -1.5197145439467439 -0.4114896343448397
Ni 6.679087244600176 4.623529583834453 5.837748408137264 -0.5191604927609574 0.02797231684320989 -0.015281608749418845
Ni 4.194469514384292 8.420623747907127 0.32818170465540686 0.042089472970882356 -0.07341502255704131 0.8714103676078734
Ni 4.7111366355606314 8.45200469141186 7.311996413384235 0.6485340329614896 -1.4701346761360874 0.04096075868307784
Ni 1.8552590542185001 8.469752552684117 6.657683949867746 -0.21522653141061 1.2853986000048507 0.5749778568408936
Ni 1.5951810850664856 2.5842653434275973 6.154254082067706 -0.24403188567807646 -0.7068970462814148 0.08443579914757715
Ni 0.8148026540513272 5.669300216528843 3.170662780546545 -1.0923591462142412 0.6800812116401513 -0.2567645027533965
Ni 6.245967628043654 7.008702217927829 11.353480836453228 0.5439960637473986 -0.5102791311109276 -0.18359090678319995
Ni 6.545527224268651 7.337534738865367 9.001661846419898 0.024088408407771416 -0.1462615742051223 -1.4934090732829959
Ni 4.160962141442894 5.801626723680657 11.515802886113159 -0.5850349839665795 0.4969955266281441 -0.8366835056496493
Ni 7.494273760588771 0.7153198161076492 7.54619546013236 -0.7277666906415724 -0.27284855279945264 1.7308687050601934
Ni 4.722532824489601 2.7835237485620787 9.454930992820218 -0.8881716462266123 0.7133690271590036 -1.054264139114733
Ni 1.3016785908732027 5.044258836660448 10.878291056210777 -0.4115071178463365 0.010205222667775973 -0.5003222770085318
Ni 5.334014764703415 0.5811393570573741 8.952094868304444 -0.11947710702242649 -0.04356760017830561 0.41956238405064517
Ni 6.163773305792623 1.0516252176368979 1.239674301883813 0.21565487719728021 0.8314893630432195 -0.3133886790053441
Ni 3.8784784179668783 2.37664850570224 1.748218646718534 -0.9162244385987705 0.0016730168270487316 -1.5181880799998888
Ni 2.777052407029715 4.594891826356242 2.523181586661873 1.6607632064923592 -2.0121998414093607 0.31619220989241026
Ni 0.1475760439690452 2.562126543448459 10.468768362675677 -0.7022348649190552 -0.32122745832347255 0.2134514417880582
Ni 8.421074808696723 5.824262611060575 1.2571091822000242 0.35362258682472647 -0.15038845188930228 -0.3426331776927583
Ni 1.894924787736216 7.8457145529395165 10.792280207360433 0.3944380781791917 -1.0685476456169405 1.414780624845815
Ni 7.369652108149031 4.847743617552487 8.321292797780353 -1.5750791367599777 0.008078663243076408 -0.1137998541319911
Ni 8.734856627777342 6.206716134026586 6.806599368222223 -1.032064463089242 -0.08984077221323238 1.34217010046794
Ni 1.505456809225878 4.823588852003523 7.089194476097302 0.8853483178452042 -0.9534031045315967 0.3241459175218482
P 1.557310389384916 0.553007892302178 4.944669216978824 0.3278254232559645 -0.24556452027251902 0.0803271762958423
Ni 3.1675789975972677 6.79688775326256 6.409351051357471 2.4448766513547766 -2.0977450715710324 0.5836527589070722
P 5.758518199646435 5.21528451849513 9.879597361966828 -0.5375040282651518 0.5155789460572863 -0.011535254333109165
Ni 0.7596968335460816 0.9951781816817726 7.796361138299953 -0.1925396313360555 0.28341115880664736 0.4688897695308634
P 4.051004567326134 5.185118677525635 4.889012918203827 0.8503463478487227 0.2812280351123995 0.2797085131440796
P 6.209008259263513 2.740010190349444 7.4328484863680675 -0.506210874578825 0.39277174622036226 -0.36557873074533814
P 2.4782936738393064 7.387722155699571 12.944027041773559 1.0739958132157053 -0.5720331723902728 -0.39066344162810784
Ni 5.2484973211249555 1.2155259800604146 3.2622649421234287 0.02401333219546187 0.3092317194141771 2.587845156630924
Ni 2.148117175855218 0.22770193031349992 0.0700856413809428 -0.8340162432301313 0.19317135138278343 0.5151835103910805
Ni 3.3119000396234344 1.314897433605029 7.513187015656188 0.39260102497045285 0.6829562191951012 -0.35209355177470975
Ni 8.736798950769275 7.184312150236362 10.387405281022618 -0.04296621914888084 -0.6802727588256671 0.7528249191617808
Ni 3.8638143396438984 6.397312330936382 2.3602934096843873 2.5180972985128243 1.1759675643645167 0.11074101270100928
Ni 8.06517864038344 6.895541191672716 4.715292838550478 -0.6167863082362475 -1.110577726104797 -0.5175998331420569
Ni 4.975274151819008 5.552668783790514 7.5646668597324185 0.6233133107214878 0.22561918749884372 0.34651194392187423
Ni 1.9442008776689925 4.436873264841942 4.625886146327035 2.915594218122998 -1.832797518786211 0.38916680247792335
Ni 7.757177763667436 0.3415404682852303 3.0785349950699485 -0.1405930630654353 -0.28793552903956215 -0.25465439838892917
Ni 7.168985288712343 2.4825741486793476 9.357467802575263 -0.3467387152206996 -0.30227380003910526 0.5399614886667088
Ni 7.102127033307569 -0.0016891766304248977 10.440730792207296 1.8672155912547648 -0.7974325305688267 -0.6272992919524293
Ni 0.6257888520340114 8.174611511132712 3.592433155317504 -1.0449932553357681 0.5143278472590045 -0.09635363363108566
Ni 3.188116071507229 4.795632288370823 9.212378116142334 0.11463854798320258 -0.25062985061056836 -0.21603540046515052
Ni 2.0426702096344154 2.3786184446608822 9.313586952005384 1.6189897220999987 0.8208853622751282 -0.8204418469798063
Ni 5.825422481662391 4.8185075141288936 1.6044223080598565 0.8319932992628317 -1.807853447246364 -0.9114061912745207
Ni 2.9199742400759114 2.037717746271099 3.9704966601088585 -0.6117664864241529 0.1913576952128124 -0.09151713147439076
Ni 4.967679760973773 7.403012195934643 5.0540560611169125 0.8854994987110878 -0.5339291664296998 -0.22770769459675624
Ni 3.6710548920084904 3.5928740902526393 6.9551520968805765 -0.19853287280501292 1.1441439920960166 0.6474533983028011
Ni 0.9089961138378272 3.2165605172184715 2.524272417346915 0.3023005395119826 1.3280316041840288 -0.07721691280163476
Ni 7.902621855006474 4.43663392646379 10.745206030506663 -0.0857077238814653 0.8404792252466557 -0.20952742414330366
Ni 9.044882675385407 8.449988725842035 0.9942963118115018 -1.1917947612047606 -0.6895873513583736 0.41662567001982437
Ni 9.031452110242139 -0.015730975170207672 12.142778304183473 0.18718350923046473 -0.021653830824349806 -0.31672314269521584
Ni 5.388933717167257 6.543548079987771 0.29718830521683687 -0.010762894943458882 1.0453182427753545 -0.49225981171537164
Ni 7.898359790810907 2.403150628421549 5.984401158285973 -0.6407173651305482 0.350024585060823 1.2898458371429269
Ni 1.3146857111935861 6.454044731880844 5.342349263456477 -1.407590534855279 1.5116073414585773 -0.9462351260282477
P 7.678674775633303 7.211688778568152 13.025780429089455 -0.47097184887087273 0.8862649161222028 -0.1853503126764679
Ni 5.656854620864895 8.257072787728603 2.3895976324925323 0.11807688424079019 -1.4306073074654264 0.385591169311523
P 6.976023323987729 7.792029113655385 6.557714150377749 -1.0084905324240439 -0.4162605733709218 0.853522174473543
Ni 1.8970604224951182 1.3498040155263982 11.487954024750627 0.866904766428036 -0.530492372834009 -0.685812971917606
P 3.6646756036984933 0.13893500798550376 2.243079280048478 -0.9465809394034406 0.20205682679787138 -0.6457467000243395
P 7.635796384654997 7.219761846169693 2.6726769403172588 0.06629795189628583 0.9032383107517478 -0.22473292823914845
P 5.655473822529397 1.3492424908699625 11.015486258293555 -1.6845585091397441 0.34404291355609135 -0.14402008646911327
Ni 3.256032938969218 3.4879610327215627 11.278746507342778 -0.9594287419003864 -0.4728649521285276 0.1399454021791074
Ni 9.01241550385675 3.182307513175904 7.984214149183226 0.8787788921578026 -0.07144427198391566 0.11355971309672701
Ni 0.0616084601332137 1.9657229210582754 4.2983331651803915 0.8669363909969198 -0.4401610341376032 -1.3607756313842694
Ni 4.06441672182493 4.48227391411309 13.407885990874922 -0.24748282034115443 -0.9737215043739746 1.1219103775087969
Ni -0.10088849064921415 4.300708138317447 5.343144603297722 -1.2002621752458231 0.16409654550401415 0.4035708937183953
Ni 2.896546694983642 8.170763686437791 3.898241324276738 0.36800353813674685 -0.5730981233196775 -0.22806636348775564
Ni 7.491567395851197 1.900963479123457 11.975363870262228 0.7826160343812845 1.1268486953506787 1.1687841592422
Ni 1.0237146806153814 1.011775377674449 2.050605197402406 0.7328011677416864 -0.4700711914334743 1.499177600335657
Ni 4.871925999068162 3.6656973944667612 3.3835892481380005 0.2951086497492337 1.0042471837666576 0.814622669194868
Ni 0.006206228251948044 3.8035378896383274 12.777609544250545 -0.6048538184647195 -0.27927605359235125 -0.3225240656477091
Ni 4.98296059588661 2.6430781471975413 5.412233308280436 0.9005970164741587 -0.9376288724164755 0.7036255746189947
Ni 1.7484957269178572 6.692886022632911 8.475409223198538 -0.05843269021559614 0.6680499915072301 0.5501780241883943
Ni 8.027096222290426 2.6236180959892677 1.549736250248602 -0.7473332999195903 0.11273978829859292 -0.2285013941426452
Ni 3.9725107846142373 7.074805636909198 9.183708140036295 0.792304722423958 -0.21874148654240394 0.867856588818344
Ni 1.8225157230227433 7.080577373951575 1.772443372716497 -0.18567478589542216 1.30191279560979 -1.9685615358941195
Ni 2.902125120259051 9.118829028912401 9.200387263396877 -0.55930672596254 0.5411017729187391 -0.1377134275247951
Ni 3.8946429638144324 0.33814186331546 5.529636147022196 -1.11663370249089 0.7615715550061594 -1.1496137569613363
Ni 2.156889847946743 2.719049671616596 13.368720106354656 0.12442313817379216 0.1733005806007854 0.721907403647318
Ni 8.089600360277267 4.484750145794749 3.2401160162898295 -1.4344387653963748 -1.1880772031438571 0.30103375698441703
Ni 1.487285503130735 4.7854327913326165 0.8103905431033018 -0.3283447860945442 1.2344560475187125 -1.1233252555784523
Ni 6.383596400803777 9.077184151113805 12.887440084920438 1.102448155019127 -1.6015776972711386 -0.777982392264015
Ni 4.378852118784351 1.4463034085331785 12.974260081595382 -0.1316376536443604 1.1157320166122269 -0.8606050494622534
Ni 4.523927997233923 8.695651160371458 11.442321401359116 -1.2982433171780028 -0.25575251654911435 -1.270924574758392
Ni 8.98149482646385 8.055605105257326 8.25687855542941 -0.4590447584159836 0.7129620215285721 0.3478859414512654
Ni 5.629864616067043 3.477899615516906 11.549148245383192 0.336238329910008 0.9455249873351006 0.35407355831921605
P 0.2180455472872562 5.189132198020813 8.838908987679291 0.2033439210404111 0.22587784047686904 1.3431466054485965
Ni 8.800591833869245 8.728606213978658 5.94415825106402 0.8988664069362972 1.2795606531668349 -0.9226383125449142
P 0.21719865764148458 1.643647106642437 0.20394115255626422 0.024169655267668053 -0.15524449443002294 -1.3651002269015522
Ni 0.5347031090346035 6.663272500997615 12.70542140727075 -0.33374076029913485 -1.060617077915954 -0.2673397071660815
P 0.6735626333777668 0.25173610614116404 9.939256134850318 -0.47075716175690535 0.08683360995579238 -0.1527016734035112
P 6.011885488887933 2.9624015702646216 0.23381702587530515 -0.08500966937317618 0.9546860850090784 0.42350002854215457
P 7.0258333226102305 2.1894674833422405 4.069225582161355 -0.3224908984169284 0.610747044020703 -0.8006752058758404
Ni 6.1331287880668235 5.821114390855641 3.560097619896831 -0.6212389446909623 0.7800822122158371 1.0454357421898253
