# total energy = -340864.87361278845 ev
CRYSTAL
PRIMVEC
9.32333807969994 0.00000000000000 0.00000000000000

0.00000000000000 9.32333807969994 0.00000000000000

0.00000000000000 0.00000000000000 13.64564769709516

PRIMCOORD
 96 1
Ni 8.755397804678665 4.735155691967714 11.007261834610468 0.149348183550246 0.961729365009105 -0.2902099268960357
Ni 8.799674338167064 9.111278950137846 0.6679407363379932 -0.4722836257037608 0.006565826142975789 0.16413434072048508
Ni 1.9061844812178326 4.69775978212944 1.4904596243453054 -2.2955806611987044 0.637108050512735 0.6118289642309721
Ni 5.442918270764256 8.742484981161834 10.549095277222909 0.924109497773802 0.7364518771203962 -0.5558326513710105
Ni 9.023471750223392 3.5286318085817117 2.1905901184264116 -0.13396475911564024 0.9679126110016814 0.7543331282761911
Ni 5.628834959391789 5.920319807355841 2.8925358664704977 0.5100590446803216 0.1597945756945506 0.7398771007518612
Ni 0.7894984208235135 3.8609249081942623 8.88757383913048 0.36271812136809145 0.46158783655281144 1.5636156162050685
Ni 8.663236605787779 8.220182247417137 2.896916903127941 -0.32921947539001367 0.0367829731563044 1.3071154228566522
Ni 6.217771591818646 5.016459454530771 5.137518340418349 0.5741982983623918 0.22219010721263668 0.29070537847521544
Ni 3.1816171578261456 5.2590993332495675 8.769594451876555 -1.3156244887689277 0.7769374959392684 -0.457256041946677
Ni 8.154247599105926 4.783003064017085 13.387936173875259 0.6826008927382116 -0.1333191551118414 0.6120536786472685
Ni 4.47649831808508 4.338867198406046 1.8035587674422597 0.06529187922927465 -0.4317345006368048 -0.34190606971874665
Ni 5.560858499997408 1.5078448532347173 8.768611772021917 0.1863576708950597 0.5157982611569439 0.3058671738173184
Ni 3.685030808216978 5.6673496698235795 4.6086948638811105 0.5507585792822127 -1.1375822797180988 0.02158698214215637
Ni 3.1046343536539616 2.6582702101941686 10.262864130379242 1.6366961382408265 -0.8940090788439957 -1.5666813996145856
Ni 7.867536300340874 7.584013583267345 10.543337183501611 -0.3486174203006512 0.0517413942383496 -0.5292623570816498
Ni 7.073159908929631 3.000259581617192 3.593103625116903 0.4110612885581695 2.5665276261000702 0.03675057725647218
Ni 3.4464465816496777 7.573599414409367 9.8140181142695 0.10771945226586609 0.19976623099148177 0.5818177625808625
Ni 2.26410743776018 1.9641849686533612 4.331742303293004 0.20394658762141651 -0.04846683725213589 -0.9478724045213547
Ni 1.25774630389248 6.976346364237375 3.4014642714535364 2.144761806640203 0.06971777621111218 0.49300080364645416
Ni 7.7545747337488695 2.5848862145977947 8.548480296577008 -0.24251802013671137 -0.1703813500714614 1.434251589086233
Ni 4.968957045997734 8.969871878455695 7.412616129342169 0.1376884878241306 -0.8998984477452373 -0.07221148916724339
Ni 2.476763460572746 6.4411494536524065 12.724048292687277 0.1580343984703343 0.06853069788154649 -0.6667628972646904
Ni 1.0166074826366511 8.395255893625844 10.559861868267845 1.1259187273372415 -1.6035276219086578 -1.2726135324250405
P 6.314100322920377 9.128760209411533 1.0694792016847365 1.6122608880165976 1.1301967858873052 0.15662209150383993
P 0.3252353325351199 1.0108176895652055 6.806162808956162 0.7685798680031924 -2.1752628034425374 2.1165436923347745
P 3.335675999553308 6.170772643552691 1.0842986478796848 2.0506746004457908 1.185683248990384 0.3169941369684154
P 4.497578385934578 6.693383047460603 6.977674939942174 -0.45007057994183136 -0.4633066190161311 0.30997682511031777
P 1.519788049570501 6.218815805705927 10.23390863868522 0.028122983488461244 2.1066367176337075 -1.0599581041757165
P 2.960943064093381 3.6515413771177307 5.476366679175075 1.5253645431436698 0.5423269035750918 -0.13170887320192803
P 2.4406168780638975 8.984695986319782 4.607876274780188 0.4846902268982297 -1.158740916073585 -2.0510494672867066
P 6.637293844372331 4.605691816621348 10.733816713883034 -0.014803897782051923 1.1710703841732153 -0.04508018016809011
Ni 7.930077253518423 2.190891262252833 0.549392625449031 -0.4167393127795533 0.1315903453461927 0.8410137575938871
Ni 4.838588806838275 6.74340275732905 11.607533781717297 -0.32470950333480203 -0.5523038122821455 -1.6187608939186444
Ni 9.11227654733373 8.278061531455036 8.396754154087327 0.23378372558750707 0.010279527549137135 -0.40179657542679187
Ni 4.438263307801669 7.989504211710685 5.136685766310007 -0.45337084795965793 0.14182307881779446 0.962635164652826
Ni 2.026996298641009 6.855264170004099 5.741556916190016 -0.041627702843115406 0.7286984584272225 0.041656242088205675
Ni 4.7333096709884135 3.4430622098542916 3.9970148800557284 -0.7793875001416577 -0.276738117661846 -0.002058682301241616
Ni 1.5155179606385814 4.65937559843356 3.752798424833902 -0.5618328348185033 -1.4978082307919558 1.8296630869222874
Ni 4.950729919661702 4.176212238785369 9.514400518324415 0.9884914635942976 -0.9627971441519869 0.5237218868793948
Ni 9.14000415537637 7.052620594700332 12.602738608999987 -0.542703055967588 0.17049113617644832 0.1276807258791414
Ni 5.852818838213705 3.7860585018114787 13.162318846186809 -0.0015215788508489924 -0.5795855308162341 0.30655545813359464
Ni 7.433740016881579 6.9455327312242865 1.3861389276705558 -0.2643207178340996 -0.1867965582046912 -1.3205445517783645
Ni 2.231149436942853 0.19304065140674553 2.366714504859194 -2.141618633025531 0.15274949592231113 0.8565833298973698
Ni 6.095206986798959 2.646429570579457 11.229249586706786 -0.27248679858465974 -1.634441537878695 -1.2598893999901528
Ni 7.96224277058201 5.875726280365947 3.5711341107955588 0.09204369340182211 -0.010980667381219798 0.7916709454947011
Ni 7.467770201601026 1.3259651700821224 6.428136870415987 -0.5630404819733593 -1.4205023578209408 -0.4743163398630735
Ni 0.062292952379318596 3.019372425089758 6.954218353165283 -2.1082624261625886 -1.1314391429348385 -1.4169691478567017
Ni 5.419498045006653 1.8248476780692144 1.1700854803890128 0.7290738394887701 0.8037345615274545 -0.4698827295717521
Ni 4.490846935696924 1.953202076160345 5.893855511650046 0.6106277448340193 0.009630581111228576 0.7103546658127121
Ni 1.5075092130566623 4.527012164882331 6.716115210853193 1.890333922439783 3.111290392810164 0.39655923828725254
Ni 5.45926208276787 6.079366635062429 0.07156128296277127 0.3136339622469308 -1.508969389615098 1.5586374462641865
Ni 1.4366704888105368 7.458307013247537 1.1175093111643812 0.08663023569573468 -0.7248945113000999 1.2149580866951013
Ni 2.534279134417751 0.4612628380301147 6.478939740699896 0.41211389819239996 -0.15063579201341798 0.31276827181252587
Ni 8.782668569145619 2.5035494114491765 12.01291905643808 -0.7606904379527867 1.6466843598017897 0.4030281338410478
Ni 1.8270200158882917 2.023406813403478 12.026659792394113 -0.4753584079743427 0.08673822202850869 0.1634565979271701
P 6.608559315795526 3.211498457011304 6.706985798010103 0.3919572207388669 -0.12280874249882077 -0.6510326310136271
P 6.761163716751118 4.202121795863545 1.3973418509469633 -0.05239573999289686 -0.1787873147469695 1.359050935383679
P 3.5968413514330746 0.5481675387991308 9.099354400478619 2.64598628374803 -0.8273899961628655 0.8225619786466027
P 9.330703716541183 7.3791052545648785 5.003435683288416 -2.4797829763136585 -0.24430416550285666 1.2411596847911335
P 0.058532850051276696 5.998067125266927 1.9725871611106667 -0.8215728752604561 -1.2446435295746758 -1.0426242408829591
P 9.229610759578728 5.876005980514325 7.833952703525006 1.9102453166517297 1.2860930549687142 -0.32597705719331604
P 0.24808004660476832 1.581984039231715 10.26708107628297 2.142648874062258 0.5159957218797306 -1.1896563747055189
P 4.278451966356178 1.9218383661887781 12.42499009703895 0.34601237857763634 0.5452548758551642 -0.5726481802664525
Ni 3.0234746939326502 2.9925678275367686 7.668922157310763 0.0342424661226378 -0.773205539700662 0.5303697312132156
Ni 4.024624081702221 4.629429035880447 11.938877765493014 0.9526695687996818 -0.4311847987809219 -1.0420634832834827
Ni 9.331449583603527 0.7700592605111719 4.761840018456901 0.0922252132850089 -1.1120339989353496 -1.285155116535477
Ni 2.0455590651550963 7.473960898218482 8.05064573181251 -0.7733582632284424 -0.3754952185281017 -0.3334445692149548
Ni 1.7176479345338171 0.9358953431527464 8.568307307761769 -3.1770970068923288 0.727649705447734 1.2190556538032424
Ni 7.1446605901935865 0.8808093312633272 3.189329423250783 -0.011441923288354488 -1.0600655762878584 -0.5520490159588621
Ni 1.9196380583548631 4.4403517355762325 11.068776288243464 -0.641044923673296 -0.806090720464457 0.6265554718078693
Ni 1.2138613506118128 2.2458523414093094 0.7247105431206542 -1.2631217908845214 -1.4029000713581452 1.6338501841515993
Ni 7.256801703017014 7.44838698131836 7.012757729553354 0.25108082210505794 -0.7606544425085288 1.2939752859302682
Ni 3.2886863746256334 0.9917141694309187 0.44536841093156315 -0.14096510169287335 -0.8354090098125999 -0.7879199630927011
Ni 3.130814287542237 0.12397429376751509 11.443212741546109 0.8305313700053246 -0.30576535813213146 0.5833136304000986
Ni 3.577495424503526 7.621101822942403 2.975610539874377 -0.2335584969505784 -0.7812926875841706 -1.1528674880119436
Ni 4.96634651127953 4.318700817707919 7.14626700137911 -1.4254473605310418 1.3946383455699853 0.09157292441299068
Ni 4.436771573676981 0.7367945218644555 3.0343960523930225 -0.47784517895193834 1.3916481525934097 1.295148737413079
Ni 7.710027823450372 0.8008449235094223 10.553639472300238 -2.1356613870008316 -0.6583085958497501 -2.1613500500161873
Ni 6.752493012151369 0.7905500933814186 12.622319484054172 -0.6993092066318278 -1.1363316951404496 1.2924102554359935
Ni 5.739419074722572 6.512538254857011 8.88616881205179 -0.6515913317305746 0.39198370310142816 0.051365498956169604
Ni 5.822294228687275 8.308753961070494 2.9408149090822 0.2549094518225287 -1.8042186787072543 -0.8430277027001224
Ni 3.1096876030013423 3.5371346930924337 0.11968555815903684 2.006968160696776 -1.8605471780956535 -1.9386156402643062
Ni 8.79692395337467 4.9698427631342685 5.724704049916352 -0.6137040697664979 0.9321205410037366 -0.9092737183125502
Ni 4.86771491562281 8.214765387876865 13.526958335625565 -1.1697822614894113 1.536260107010251 -0.4990004728733148
Ni 6.831405747347368 7.797107802979038 4.884814850360875 1.2628726509881927 -0.23777356347319048 -0.56656495018685
Ni 7.443557492089682 4.903889468146496 7.787148613029089 -1.5109838489419656 0.1944229644016974 0.687130662287765
Ni 9.30317189860241 0.24632539434060396 12.098054187601685 -0.4723625585708123 0.15404276081243792 1.2745068927930114
P 3.169552758092731 2.5381669664802193 2.2534284860950695 0.22825148291536818 -0.4493576130352067 -0.3725628753726552
P 5.739857271621699 0.4567419512984819 4.933816451689223 0.5166806637618973 -0.18777074919250242 -0.061576378050900396
P 9.267277046227102 0.9059525099349448 2.5129687801127534 0.6924050233128268 1.5019934725178972 -1.5087012235553758
P 1.0960889414676882 3.9172658414160755 13.023188533712462 -1.794987389916973 0.8101345515165274 -0.31044990809199435
P 1.5637009728660067 8.514538683571216 13.07179389316394 0.9966454601599997 1.6699230186147562 -2.3001091451966778
P 7.096850511497333 9.020264521855314 8.587083578722453 -1.3402715978936464 0.3397311735546149 0.712083989798993
P 6.7044405266598535 7.513687642626581 12.343921806032775 0.43719295264821484 0.26976091501306443 0.16409243173895613
P 0.051865730847748884 2.892369911049126 4.445751813107603 -0.5545815525727288 2.120040906854755 -0.37692860854051863
