# total energy = -340884.49918502243 ev
CRYSTAL
PRIMVEC
9.14410479777582 0.00000000000000 0.00000000000000
0.00000000000000 9.14410479777582 0.00000000000000
0.00000000000000 0.00000000000000 13.38332167182776
PRIMCOORD
 96 1
Ni 6.754411958100875 2.163687245655715 11.058036465754299 0.15907389547844217 0.9713036389611013 0.5458876243431566
Ni 4.6159807301802775 0.7143612494979868 6.183603097024983 1.8045914886656407 -0.1465395104568573 -0.8355367936397159
Ni 3.1535183129225244 1.4957835355150904 4.6176477005036345 0.02971372501434883 0.5649482405190336 0.26785598468086774
Ni 3.214262601776392 4.152173441418294 4.1158402550067406 1.4519798596039317 0.5656064429283226 1.3552089359297692
Ni 3.929907683602406 2.7143726750771275 2.4231576230801735 -0.4545844086517849 0.10670643762031945 0.19137826403810265
Ni 5.447472476990432 4.558427733936677 2.795294345804387 -0.17449717201204784 -0.4569994458511807 0.6203537138725317
Ni 5.325060344687749 3.0095901017890205 0.553411287092245 0.2256652102454307 0.5399069812796895 -0.6602497787365209
Ni 6.005116570241107 7.822498275105966 12.41155876045924 -1.5169256683476973 0.4658162728118623 0.8376931778610862
Ni 2.231563936331954 6.91961850133779 0.3037360748371768 0.32486685484827277 -0.21287628601087855 -0.38333682605970754
Ni 0.7504265136359574 0.003676844580481711 12.9272981641825 0.16074099876821993 1.3236897822755656 0.7538330487113211
Ni 8.686524747152017 9.023896497455107 6.857989063129557 -3.146901714255871 -0.018884752719644897 -0.15151922305963583
Ni 9.514806913142102 2.33755325623338 0.8079621360802473 -1.837049866304662 -1.3145011737977619 0.7154140826134905
Ni 7.349546881443506 1.0237374082377777 4.861023538892764 -0.9672886042644374 -0.4659638541333201 -0.001067779142882032
Ni 0.8239871799183328 8.107968085993951 2.9353774608272407 1.1171623213008504 -1.615457026356392 0.39261156649341417
Ni 7.645349530869029 4.022628907293241 3.832020040642802 0.5822736191713584 0.14417101022468073 0.41560159963068427
Ni 7.716271208477128 3.8889238054384685 12.612483091847906 0.5403134726894888 0.0733826266572091 -0.11160464625288521
Ni 8.474427233985457 7.586662665617769 8.939122415333276 0.166843512121532 -1.2556121127710376 0.026516044012657555
Ni 6.513153894406696 0.7446373808234654 13.829922817423952 0.26659254458741183 0.41540825267295556 -0.915519956332578
Ni 2.1988006084735456 6.9010193919702205 9.196831638153904 0.18804560012044388 0.34313120037509937 -0.9153710894595396
Ni 9.421171278961221 4.748853718489106 1.0304528388766878 -1.955016193109517 1.2011677177792282 0.34622603725033924
Ni 6.556295781327146 2.2448137443327445 7.056811164801603 0.8048229094956267 -0.586075766526268 0.9090744578175505
Ni 3.97275695916604 5.041236472681851 1.039659123690488 -1.246475440577092 -1.0807711842663257 -0.33134937724882285
Ni 6.074319156127915 6.228726511477366 4.644481076334083 0.43685048170713153 -0.1683848884667229 0.9797101178572417
Ni 5.602812531039731 3.3903780621595745 9.23740951806026 0.8670225229528229 -0.46730879819698873 -0.5057473046788452
P 0.5257046492438003 5.933152464674356 12.53680007881813 0.9636054989858951 -0.5094394088184517 -0.06297145862621412
P 4.15881206157604 6.333261918699617 12.732370536787567 0.5858068291355976 0.19286436166532592 -0.5114153015978999
P 2.171478023030921 8.9815592917659 1.314116689046828 -0.3214809690951754 -1.1268175850024271 -1.510281423558302
P 6.624721118297414 8.230032742310414 5.937577297035696 -0.21412789902979254 0.3030903824031296 -1.7399894364145387
P 4.717900923400992 1.4761968628182691 12.55405134712337 0.2984947926126472 -0.43964655639503 0.7076673487885361
P 4.395699243127792 6.496264732655516 8.052972695891013 -0.9648568548944931 1.1664560253296556 0.862599711294779
P 4.984543022298895 0.9440648222399236 3.4075680649619806 0.09064809860587614 -0.10378515020846643 0.8921920802399151
P 0.23752086802135436 5.968018936659873 3.699766108235736 -0.21188872528662867 -1.133539734217609 -0.34723879478556974
Ni 0.6964360606615823 0.6971493008438194 4.516429774539277 -0.9534393570861709 -0.3419320378606756 1.1085213577964006
Ni 2.304725919640669 6.409048260114768 4.886987310347178 -0.5172247091908253 0.0500776333826815 -1.14415504783961
Ni 6.315970416332815 6.078699182375244 9.031413866093787 -0.07958284193065004 0.12395339762622523 1.008180714493109
Ni 9.047433423468934 2.212635639187967 10.111072962260922 0.08914400325652388 1.7981786431607611 0.620872305380163
Ni 2.7534088588972634 5.434460415717053 7.203867574221561 -1.2303697932644808 0.020956804757325198 -1.6788457750256827
Ni 0.9086625057072377 0.2790826536150014 9.127425138727816 1.4360719301244236 -0.8249564470207083 -0.6617525885342925
Ni 1.8925371030418772 1.4075794996450912 11.2818996986963 0.5463812761501236 0.010097236335001964 -0.1369564947541125
Ni 4.400673636193652 7.280984382899731 1.638988447950967 1.2387778148225181 0.10913613010773461 -1.2843133373604718
Ni 5.800370917414532 8.261991388937581 7.91999546478632 -0.6583049963053244 -0.28856904885850304 0.4862506294068142
Ni 5.5534800851016595 3.12734788469736 5.023817867256932 -0.42058594021915313 -0.17365976371241704 -1.1014361688148449
Ni 1.2022760564195867 7.5281221060449175 6.819685322111949 0.27612310978566634 -0.6020744559473695 0.1260017955148217
Ni 5.180492046211212 5.117059390516604 6.676538017536946 0.44930104876565846 -0.047718132011569436 -0.49957382887828156
Ni 0.8943355221491708 7.657392317022957 11.135593105878181 2.6422219316095914 -2.467261189697564 0.3693132580871059
Ni 5.121887477904056 0.6904960501182326 10.559668118110473 -1.383748695240675 -1.5452088315631067 -1.114940888169499
Ni 8.497753845586574 7.576549285597841 4.810207004729344 0.2853392290672957 0.10713941139268 0.5045229453534408
Ni 7.408462349317277 6.485081492362233 6.948982050994201 0.7821717477550142 -0.6993428880832406 -0.7021045099887779
Ni 2.0299821438009436 5.58763331690494 2.4122770526590966 0.4210921904316103 0.9720937389625645 0.7157843214687156
Ni 2.753975793401093 5.457640721639763 11.077335099146753 -1.5084402565845052 -0.5961550051391411 2.757326106375303
Ni 1.0529528233948011 3.6714312703806287 3.642338386229272 -1.316410475005333 -0.28322269694492513 0.06873227236939129
Ni 1.8121421327568852 1.3909738051458256 2.6965919630981503 -0.237004803627966 1.0528734294147932 -1.790778236931632
Ni 1.4764528977554823 3.517673146479112 8.066850703898465 -0.7158180029201284 -0.0838812121956878 -0.05783182340680363
Ni 4.075262375100384 3.195096557904993 7.05829708184793 -0.8286053566272051 -1.305374014685513 0.009709256867963924
Ni 4.299155783588558 7.301896950807122 5.875732972362301 0.35557971055109727 0.6776636033375941 0.3930085448215167
Ni 9.112804629402444 7.369051257196223 0.8061113692483907 -1.0635391366587554 -1.076565116604778 0.1412597501151567
P 0.5705555693701488 5.837889179821188 8.046922956088856 0.6233169102659136 0.1382800986615425 -0.10467423768163908
P 8.811213761574917 1.7948597744949841 8.03490485901816 -0.02941059195163322 0.7931511295846534 -1.581260325870025
P 2.1257209221089353 3.4092606387790587 10.274764327315827 -0.7482694385806145 -0.043809798096098744 0.33929819978225434
P 4.216639380966656 6.312550521100037 3.5255553649033224 -0.7987880161554566 -0.8035602407331194 0.7109619603794078
P 7.435455746983486 4.5486801181127685 10.432419668725927 -1.1018357182461087 -1.3327675762071176 -0.6749328346699924
P 6.497243151879867 8.039396443345275 10.358383508988728 0.866518843843527 -0.6007215414639009 -1.1643554340468851
P 2.512736017916714 8.584430815938193 5.386211546209688 -0.10304595804959674 0.616691434529596 0.5489845181009254
P 7.090878442018819 4.1453519391625395 1.318982267264372 1.3135434378701831 -1.8339961670800027 2.284088601398705
Ni 2.6898939062585514 1.9678388068973034 0.2020536283438751 0.5198030114409629 -0.439002752163444 -0.656920714363288
Ni 1.3277240315492276 1.1729783443184592 6.6904160255443985 2.349700840081876 0.8427639075157745 0.9067093000194836
Ni 7.306880487977882 0.6204924406421426 8.993337813288203 -1.54462416270423 1.072519485780495 -0.11436858215126755
Ni 3.067966067473664 1.7835302285232935 8.842802071953615 -0.45772938203866975 0.10457036511392315 1.4846364692966882
Ni 6.590430724920625 2.0524492095414146 2.550834016574061 -0.19923915484341814 0.6688064100572804 -0.40008910581738194
Ni 4.2515149970570745 7.084495856798287 10.594987223288562 1.376798232064771 1.35531049450464 -0.6469551185101439
Ni 7.726759496797974 6.357502940790781 11.753086280112967 0.15502080845499108 0.4524773896111111 -0.61639961432079
Ni 8.204301231120473 4.396311898156124 8.326941966045668 -1.1251687365450944 -1.1170754180139988 -0.4418430498257164
Ni 3.5153322556245894 8.762768293812192 12.550544582894037 -0.2542653904806266 -0.22157638488803774 -0.5420515384265181
Ni 0.3248461554104175 5.19851507697005 10.379729507468399 1.0254392444632403 -0.37705304993352484 -0.4219645657342346
Ni 8.75643142911616 2.6776682380066137 5.852138438487601 0.3486994384914962 0.028294218959002887 0.3114984039611668
Ni 4.075308095624887 3.0177557874651457 11.195630555423241 -0.1392450336779731 0.13671018307126132 0.07182968034779241
Ni 1.2193572443736773 3.6516342832710964 12.460568419494326 0.3504220776095578 0.7049782319921472 -1.5786719963175586
Ni 3.138357386997534 8.878925858362948 7.66856275556938 -0.24874574621397805 -1.3571629743323466 0.6373505055408443
Ni 6.6399551970616075 8.353789058033467 3.4430471919758308 -1.1021967011299534 0.5645805727669696 -0.853002297414331
Ni 3.30339933634624 8.582931182734514 3.236810135639988 -0.1630753033283514 -0.6409760181085735 1.6243653845896155
Ni 3.632212204462484 4.651066660683407 9.195024763025568 0.9067018438203159 -0.30026062626381833 -0.43809335297529717
Ni 5.527638844652912 5.0316991712706525 11.235177894707313 -0.6234830035301326 0.08973278588045837 0.8307535133184596
Ni 8.465804343064308 0.30892626877868745 1.961125205079373 -0.871207250458132 0.5924983822231602 -0.6538418183276481
Ni 4.247720193523377 0.5707293073632579 1.3327834647906616 1.01760457891017 -0.008309291196643755 -0.05550523215615603
Ni 6.325260826911699 5.712176025649433 0.35702791819715546 -1.683720843729797 1.9595161378623998 -1.522113383196224
Ni 8.480151443653156 8.985363239404498 10.833664820579827 -2.4859600516586475 2.3941505857548186 1.9055376267634152
Ni 0.1207552204947162 4.985430000474241 5.8127511210392875 0.4247896938878555 1.1061158336787014 0.287873308343059
Ni 7.183407639506743 6.125498711255884 2.6189557692616323 2.2382869696835583 0.7475189335678352 -1.3096039936064607
P 8.631303497658037 2.085395419497833 3.184896308888511 1.0194287766031025 0.13904962983771538 1.0149689410595357
P 2.038989087127913 3.6171427195864982 1.3848390251680955 1.5423333097875245 0.3444208657208004 0.9523276120792309
P 5.007951930844115 1.1756301347395974 8.235333579921221 0.7495863576198252 1.1377632853806534 0.5858271408505717
P 8.371720647743302 1.7525591452253786 12.376160101568514 0.9963816649756518 -1.073802980478609 0.2992175297112847
P 6.998074921383881 7.833544353825742 1.060529628715336 -0.16553970570844392 -0.08882621490578896 0.6487476916341924
P 2.1790676300983165 3.0552008970325986 5.886760762872276 -0.27866155993680397 1.3301581636087285 -0.5237231724309754
P 7.048815559476625 4.191621109958952 6.24835158941477 1.1408869186112998 0.7748384473183946 -0.7886321586683773
P 2.8080906062021143 8.781888617159089 10.307647442948433 -0.5042013003479638 0.28270847631266793 -0.3293932819637166
