# total energy = -381180.1319776434 ev
CRYSTAL
PRIMVEC
9.05962855615383 0.00000000000000 0.00000000000000

0.00000000000000 9.05962855615383 0.00000000000000

0.00000000000000 0.00000000000000 13.25968215323105

PRIMCOORD
 96 1
Ni 5.788133319715995 0.806683829374909 7.2842594182925495 1.2054195510770465 0.7633746696531692 2.028504492106655
Ni -0.024360435445973487 8.909211624182374 5.973261395165882 0.9007685090550164 0.41409981827417713 -1.1397813442519467
Ni 2.449841359013734 7.787529942825157 6.4785214141474965 0.25625876676157155 -0.7835133493845732 -0.39258559835148515
Ni 4.27985916509812 6.210855591986857 2.555339828545816 2.1984166158511815 -0.7389242499202887 -0.29249872293021234
Ni 8.31862349286936 4.291111223867096 6.8649490021669335 0.4304816020663102 1.0592042567288276 0.4946725349219222
Ni 6.381702068851066 5.954431863003692 3.689082593509425 1.0337608769550584 0.27164784762313215 0.27626812000396295
Ni 5.545625180321515 6.571646242885162 0.011426909601698225 0.59082613672706 0.15926184311953215 0.2753954875910225
Ni 3.526560103438241 5.296974612710153 0.6323792922593986 0.256725421985345 -0.1772045436408819 -0.056941707492366454
Ni 4.476009184749565 8.9778473707474 5.743325302433002 -0.0329204048771046 -0.15771198213390902 -2.396421641177182
Ni 3.6933569263010537 3.5449058514311362 2.309902711212519 -0.9564956274139914 -0.9450192513432758 0.5008858628214858
Ni 6.9357617774937825 8.028579482008844 6.26502764143057 -0.4009252285654321 -3.3944066460842124 0.34536034681593425
Ni 3.6566563706866244 4.533048606657354 9.752376766158664 -2.292420004082536 -0.9516768658691094 1.075777073485844
Ni 0.6881567078978473 5.898035674729237 2.6738153101396387 -1.4262287187817566 2.669620378227202 1.0682442554439087
Ni 3.212816104059496 7.126149873331163 12.294642644616307 0.373880308632498 0.22535770630734092 0.21626165754334367
Ni 3.3684061662965252 2.594904132772865 11.213235542371393 -0.19708688438710573 -0.7251133121791253 -0.10026839530445958
Ni 1.586250378309159 6.1384782187941465 10.810088409699665 0.06797971047408292 -1.3930350056386074 -0.8141197614165205
Ni 0.7049677547993864 4.350388374048584 4.6592139010395055 -2.02216106638713 -1.542512772788182 -1.3908840207338753
Ni 2.989260707776688 0.8084450211822269 2.266212652103513 0.11030983870086163 1.2711762857578817 -0.3726454077841324
Ni 5.19033372400676 5.420421112537903 8.498475240600204 -1.2854204543817218 -0.8181296539068621 -0.014130011643478891
Ni 7.827926826924081 2.600575460300545 0.48429966216365805 -0.1922231285369012 0.4119976843295098 -1.358509461057912
Ni 1.0065156821050276 3.825808696995439 10.281093975610997 1.3569081780090633 -0.4832085001463807 0.7731196648550749
Ni 8.002832017418323 2.9976952220391 10.930897651630758 -0.3014266215474615 -1.2854104270793927 0.4460812562767801
Ni 8.310669138924787 3.667265195822269 2.618005279838091 1.0487969453525745 0.060144787810696425 0.17643192714091552
Ni 0.8541544715147475 8.073950102230286 11.540829902012627 -0.9918380114690274 1.1684851399445426 0.9104024326003547
P 6.420921201226989 2.8436090581560567 2.863295631187445 -0.6135660015267369 -0.6959618874261498 0.08308699842916659
Ni 2.0844755956530046 6.20221270626576 8.312614241193465 0.38775269573921606 -0.5278996724061682 0.5269897589973892
P 6.682191831531734 7.361953887533177 1.9288592604929233 0.6105956060445032 -0.2116763521655064 -0.407803186632188
Ni 4.514240817603896 2.239340887598957 9.175766735871939 -0.3296493638385807 -0.17957278676274235 -0.410852257871157
P 7.779494052222837 5.941358818878385 5.568324079875193 0.4215513894562159 1.2682611689936159 -0.7572839833743991
P 4.6250763143669 5.421091525057149 11.612100188585718 -0.8411389703178416 -0.2994206468610263 0.1067678869858742
P 1.4964875777592295 8.651166221672925 3.0683041557215835 -2.627239599268146 -1.8038360985568545 -0.8167448577441935
Ni 1.2486614363539692 6.174435884860221 13.340565899372937 -1.4933723065077895 -0.572621183683259 -1.2099338940076325
Ni 8.13213103734652 -0.28392060786377615 8.210341905419542 -0.6689547627096866 2.120843605261709 0.6293134941689806
Ni 1.3958260439572248 4.27826467045775 1.568222623281474 0.8009294879784916 -0.9556199096772574 -2.831556168634472
Ni 2.798718598252453 0.29154609728877373 10.849563023603194 0.7428222994231143 0.6252205550465297 0.5566338071160672
Ni 8.681760587585027 2.281667472597874 8.283946858292765 -1.4933602223229312 0.26799945223726745 2.4766824830114635
Ni 6.23814319344592 6.380306886040742 10.367692247877509 0.7338275521236717 0.9205901717666338 1.280008539337531
Ni 3.829242296249418 6.930969233944033 9.877110639215939 0.15999846417524058 0.4289361119560613 0.154432797162005
Ni 4.681789589643701 3.2632057585466483 13.018674575959619 0.5350216281629302 1.161208146667155 -0.6746276447247478
Ni 7.995593374136186 5.385541542279805 1.1492745923013963 -0.6900972011152567 0.7719009619566255 -1.3021171983111124
Ni 5.038168201395072 2.4781526985089424 5.872686833798806 0.8860409730368547 0.0646591307412822 -0.11412741267473894
Ni 4.888475957401684 4.139625173403291 4.3001944075400225 -0.9278113721054214 0.5818234190078173 -1.0996592794200803
Ni 6.198045277092066 1.6120612603001512 11.997413442282623 -1.0335690726592266 1.5026053950702831 -0.5990737214478328
Ni 4.824551217728662 1.5597509645416436 3.5567504099130676 0.20948422961019403 -0.011577677535270383 1.4576727962236509
Ni 2.0597790479845437 0.06513057624480197 13.232380343986685 -0.06497177688569455 -0.5343199741102153 0.8082687019523821
Ni 8.260225126665803 7.735156229666181 3.6193361364733243 0.2598696240412815 0.6594627640588514 -0.02864543165083454
Ni 8.599236430317232 7.0988622718721 9.714069938386633 0.6209116432585307 0.7888473600029768 1.0281419881063842
Ni 6.540979399943951 4.532124524536229 12.289405273300408 1.6720225814562624 0.5309713693529565 2.2794341333458292
Ni 6.954796057263201 0.6706951796600664 5.103598651347807 -0.14555169262229126 3.240849052438309 -1.7395726605920943
Ni 2.8523425401635385 2.777926750527172 4.664358864143291 -0.5826952800898094 0.6656020441873698 0.15544812580039682
Ni 3.7319871828154767 -0.0852402339336068 8.589025322878816 -0.5284522024755285 0.6065286350639812 -0.4571531978202256
Ni 2.1832527266982087 5.035649624633578 6.084643187535785 -0.16438708016123946 -0.11148843238999509 2.2874153517790927
Ni -0.14600135128607622 7.8083399098077155 1.1171799518867638 -0.28489622799260617 0.9360913527260266 0.293445660224514
Ni 0.9082187113776623 6.699531960745759 4.955673940901783 -0.549787216507879 0.7800415887858889 0.1417755134093107
Ni 0.7588299649436633 1.4110733989557642 1.4815573097630363 -0.3756050046330886 -0.29901132723774954 2.0448572224330657
Ni 0.8299408020527173 2.4392868916499197 6.448501428691073 1.7209817849637845 0.2930103724593083 -2.0703008593171504
P 3.369765110592295 1.3257679356959604 6.79317409427868 -1.1038746030530084 1.1890264544310039 0.7942055389910967
Ni 4.64155577886027 8.340004216456142 1.6123910307825913 0.4762564943085798 0.3479543327953556 -1.58343367937226
P 3.8280736041550556 6.182589550634841 5.577088364620046 0.8571482012619045 0.6900709758630116 -0.8156973903162856
Ni 7.424528742539068 0.8355713612515243 2.165544776561461 0.23263315692283162 -0.2948065451277826 0.9250098981008844
P 7.608185534298068 2.2275361914830345 6.413562064883962 -0.35638857960563786 -0.09481817082316574 -0.5812631756289731
P 6.481122433529601 1.811717356234683 9.636792212063376 1.5611167610426144 -1.2216853781166057 0.8778833769267268
P 1.7513892891311325 8.142459013994372 9.489490804067678 -0.49252977754730665 -0.9106047784191478 -1.0459257944523663
Ni 4.877468508605947 7.29729531794044 7.2298418529127355 -0.6368918207368708 -0.1554347560639581 0.340599177981865
Ni 2.6821664758185775 2.5069441983219902 0.4847028156380698 0.2797339670653763 -1.072407899903295 -0.012169802593314525
Ni 2.480861527471844 7.302631439208496 1.5693233681610477 -0.5248721984337541 0.7200196997063019 0.8418928177647308
Ni 6.368692442126227 3.411674952673843 8.097236971682602 0.180201935706309 -0.600433835020153 -1.7793095741704004
Ni 2.2727527980176223 4.328781159745841 12.294218653996026 -0.5893472381886883 -0.06357746764132922 -0.7862775423932716
Ni 5.3539596768461095 1.6316753563024318 1.2853773933370838 -0.5560008015177585 0.18372151882379328 -1.150692848958128
Ni 5.069722887942851 8.538663753240444 11.30342867528165 0.029649447435316677 -0.1485485704670861 1.2551225747291288
Ni 0.987427044563778 2.1171899146665085 12.13081919187264 0.03950320030094487 0.6880819704574408 -0.6647219555752617
Ni 2.2285236910046273 2.22679330193468 8.77802910746024 -0.04250573457269454 1.2503014991914014 0.6090678565460672
Ni 7.001797410639567 6.524010715504102 8.099478323807759 0.11209804094953597 -0.13510144382324474 -0.4386404837280187
Ni 2.6590191246472945 5.289735969428018 3.734734968181523 0.4555326314976671 -0.19643665239761654 0.7854735584347375
Ni 5.722296998400257 5.155997731466972 6.268050839507226 0.22454858014248424 0.10015706653757589 -0.28118509768960603
Ni 5.987707878992781 8.529622243859253 9.296111218853875 0.7678900410250196 0.18835104717600465 -1.1366494834911844
Ni 8.060351599643948 6.632717199537066 12.07168065400932 -0.12674227322527204 -0.694852456412055 0.575614461983628
Ni 0.47000266220929354 0.9532813042253964 9.965791720106434 0.12895650726777147 -0.5467486867918712 0.6341512818772561
Ni 1.4126860128534113 0.4638493624380468 7.69324095180745 -0.2195125603804736 -1.4190669109259948 0.12672684660630434
Ni 3.49802227322707 7.934757967828882 3.75665383370943 -0.7163165398231018 -0.375561810099979 1.5228428051630807
Ni 3.610615337945936 3.674902462764497 7.283596253476214 0.1860537665013957 0.05712708403029516 0.5350895052863881
Ni 7.200701557397106 3.8122645521809306 4.724849098599471 0.36756105128268957 -0.755964236121711 0.6651618713261577
Ni 0.0009739100786351853 6.929220725616809 7.403954325901109 1.5637739961598036 -1.2670031282167986 -2.069097840147985
Ni 8.938075601024531 1.795835827231451 4.111841104294841 0.049566240963901734 -0.3186085326433868 0.4868723221512131
Ni 8.201690866032669 4.864757849626177 9.394564015193824 -0.43699266371195067 -0.0473167828080927 -0.795589820933133
Ni 5.643523527388788 4.451194861908805 1.6593960080104124 1.5387484206497435 0.3467058051002352 -0.5800048777418398
Ni 6.542193390181506 8.81009022724891 0.022943509526917275 0.7630442828969439 -0.910302930908013 1.4154995052897106
Ni 2.0053397394959966 0.5436058031567896 4.807907773956934 0.24678502294318144 0.5222417027894425 1.6359168368726404
P -0.04887216669020937 4.3189514626731045 12.511968640247305 -0.1756325711680717 0.4302741140411944 0.2664436777143734
Ni 5.988015906366488 4.043122009146343 10.259560144300224 -0.9919598817588722 -1.297572259252907 -0.7125745562821664
P 8.977303793029092 0.580252000999388 13.071050101044323 -3.26017834889454 -1.343483677073041 -1.8382300026556924
Ni 5.812494661124832 8.458386383874988 3.659208468074081 0.1303143068472465 -1.0217461118823694 -0.12785581800442497
P 1.1172877614675616 4.166115527542169 8.223800889724847 0.4149007169089177 0.2873169216189568 -1.4217737683341967
P 4.027285778286303 0.5478031291049913 12.873759474147295 1.8812098486513278 1.0386207761505208 0.18488494300427516
P 1.4102670920069407 2.8071893510294195 2.948953514001285 1.023852873812727 -0.1577124963545413 2.0662716835530994
Ni 7.600647923270863 8.958378228803335 11.210225933737695 0.6405756973463613 -0.08112601804805383 -0.773179828669049
