# total energy = -340897.34330950596 ev
CRYSTAL
PRIMVEC
9.03339792081907 0.00000000000000 0.00000000000000
0.00000000000000 9.03339792081907 0.00000000000000
0.00000000000000 0.00000000000000 13.22129096697745
PRIMCOORD
 96 1
Ni 6.350903260657562 2.040454873734003 11.477892222969505 0.09513184540884262 -0.583004326689796 -0.31284643334862894
Ni 4.647547694619855 0.24265693981829886 5.774861546340296 0.01775012489456943 -0.5844914527582836 -0.12096346175996588
Ni 2.6370656349635206 1.5657769167300288 4.759915937198191 1.0621859650649708 -0.8642377611188341 0.9429464279746469
Ni 3.361237007281266 4.422227651961852 5.03165319138624 0.592479870280399 -0.4150580684223884 -0.3215413900194656
Ni 5.148476705785885 4.55556060427842 2.841718166672671 0.5241571746446005 0.21344655669205176 -0.8552702675129011
Ni 7.352472214258312 6.184038335509078 2.5989492127209894 0.022664017256419033 -0.37388776483166575 0.07224182818454655
Ni 4.966616340200715 4.609200920732063 11.444521044619378 0.5046275892521052 0.4081533708827551 -0.6082962684873653
Ni 5.565946154184114 7.724837907174384 12.475715929820224 -0.7092331506137591 0.5088506261945172 -0.1398294454265334
Ni 1.9799943419010229 6.507903715350106 0.3845427132224898 -0.7861692989501815 0.0036859334920194588 -0.13855237848632268
Ni 2.7611935548674467 1.732768309448461 0.31719060216713113 0.3355873265895704 -0.7889100949201123 0.7265593005970326
Ni 0.6507786281178012 0.18728492099615376 4.818050369083915 -0.757947842210643 -1.005721454319339 -0.4058602039732042
Ni 8.676976107721186 2.264681875251742 1.455796201204353 0.30539666193880305 0.6511557868550527 -0.4207612894547527
Ni 7.055056623332116 0.5762259956334765 4.708947699829593 -0.2159209863744733 0.7326723554733059 0.06483859374193995
Ni 0.8898231121345149 7.467259600781796 2.5091762081934275 -0.11698622227977272 0.014630348318665125 0.18039322578150868
Ni 7.637855319243745 4.038949614438842 3.795237573751263 0.39186106148063476 -0.8903784240699439 -0.4283517002075011
Ni 7.634016125156038 3.9394196368897947 12.405246393165648 0.5429339410314714 -0.4183611646536924 0.4893629497835507
Ni 8.09275916834657 8.752675981732896 6.9360217331379515 -0.623011977430985 0.42390780550353446 0.24910904309066773
Ni 6.902726435329794 0.5276940656659457 0.3655527042550177 -0.591452200346833 0.3896208592962064 -0.10894175470874141
Ni 1.7565984129857988 6.495609260871593 9.327938113815412 0.16412251364594316 -0.26131715512108544 -1.922363440071502
Ni 0.08403318353149501 4.8868333703592555 1.3982968171877261 -0.26127396058797586 -0.7892862473126084 0.0963880864134469
Ni 6.530884679489222 1.7760021515749578 6.858623580329798 -0.7089305317716758 0.3961033816967565 0.2229647805951321
Ni 3.3801168087949267 4.339400427043789 0.542450121059517 0.8753277003844085 -0.06734413377261304 -0.3264686521177539
Ni 6.184309337444681 5.81853802496161 4.793484946961308 -0.8531015419963566 -0.5116862958710995 -0.0934904531506777
Ni 5.159840720285496 2.8812022453502104 9.208259142354299 0.3964134567380076 -0.5667454416287724 -0.048200470964626665
P 0.2225729863707769 5.628547601308355 12.52701478955026 0.18278512305245295 -1.367065321047723 -0.7691298269693915
P 3.9418586543102196 6.148338347192338 12.588110369252336 0.1040854550577046 0.607179895494735 -0.0860684496549937
P 2.5171382450614375 8.456967703000998 1.3799725696420515 -0.06110535195175282 0.377901256866433 0.11548984023990433
P 6.440270665621505 7.8150996185258155 5.711399216400622 -0.4043391393429875 -0.5172064543583802 0.36341077655974185
P 4.663636176196808 1.0043512401396053 12.591758958645334 0.6727299134814027 0.1363286313621265 0.19191768148134045
P 3.7849485335962108 6.069982654211722 8.085017546386183 0.8041330825174537 1.3726106763459844 -0.2322436347938968
P 4.733825677517927 1.0987321809121997 3.6716977280475946 -0.0037556103876903056 -0.7023055702559905 0.00040751985106381427
P 0.3119241312185838 5.570381552530145 3.5309573894912183 -0.06655454799178216 -0.3610458758719911 0.7547329348177712
Ni 1.6516754969182563 1.1715323342129595 2.5486684169290355 -0.32567238146870364 -0.3419932301159142 -0.044759820714193876
Ni 1.8548004810503926 6.583043518694902 4.765098397546702 0.04840127412152309 -0.4834072464207481 -0.06935062267968056
Ni 5.828845131912369 5.610128503085219 9.206659327594457 -0.25861775391205144 0.32373068436130054 -0.10369644714940206
Ni 8.527608874214788 2.4155305860061023 10.224063827632264 0.3031173789863231 0.4119583464511421 0.17561843010068462
Ni 2.11720262189671 5.266489015343042 6.905810437356954 0.34278281589674514 -0.1943136925173428 0.8792298636522923
Ni 0.11602405868961771 9.018212711634352 9.360290324887673 1.3458316084799273 0.35389872330424854 -0.605100387257887
Ni 1.3794359858095582 1.1878195505426865 11.412737034272098 0.5568646921799506 0.19866168507339335 -0.5744039866152946
Ni 4.054631593112389 6.709691756599935 1.6096521301041187 1.0794511799033215 0.4707268227396022 -0.1448811489178279
Ni 5.600236932435719 7.824503385691233 7.854226877988146 -0.7057912148117457 0.2753306957913581 0.3414047046022959
Ni 5.368313475946859 2.9064234921569754 4.675722862524691 -0.1679218327873753 -0.34455713418834855 0.39982891017745975
Ni 0.9519033322026141 7.432074516142702 7.025886878323618 0.0022564001343445012 0.2681051245771963 0.111196355070873
Ni 5.14956974692615 4.362724660301335 7.112499096942266 -0.07109974416030336 0.748132655892434 -0.13453194447301994
Ni 7.913482354547479 7.008877893505403 9.08794512302409 0.030397638455250876 0.5744916612330945 0.5403522963472243
Ni 4.484955566656042 0.3610567821433676 10.515011505695407 -0.11068984774809969 0.10635959580386199 -0.7761947042359729
Ni 8.416480013821943 7.035643851345103 4.910057332900629 -0.16822599429135543 0.7136955572604871 -0.29566169403922626
Ni 7.127188305191722 6.168952561093857 6.9985445897008685 0.7164008720067919 -1.042265829102276 -0.09247101074722784
Ni 2.3820889471527193 5.236353600104014 2.654134240207569 -0.748828139297562 -0.22198339051846933 0.1404115431822485
Ni 2.3591621834007244 5.263191825126542 11.414707218343931 -0.8945909194893947 -0.6760864886584614 -0.059514867536181376
Ni 1.155913589324386 3.242483959100128 3.9303067451352587 -0.25004646730327257 1.0589803136434794 -0.2785702857745783
Ni 3.570152399437448 2.83822133836361 2.9887258766597546 -0.337543936095309 -0.0804063662732099 -1.23121928574897
Ni 1.0504848029770517 3.231517414106069 8.172674929136473 -0.4300527420590078 0.8769706353044703 0.45726478369742535
Ni 3.9573870652202587 2.3294152042693925 6.850704000431699 -0.4342179291802909 0.39839012084840425 -0.14802920762850635
Ni 4.06449606356833 6.780847831491371 5.972546618285099 0.3511471287010404 0.2126274032248661 0.32362629757295236
Ni 0.574889956090955 7.264721787510132 11.185331180049738 -0.26587186437130345 0.8511215354518502 0.9707703921654507
P 0.15882520105893527 5.612495253322817 7.949895981294638 -0.3535045731896234 -0.7946475116245217 0.04402731342354353
P 8.434628110109475 1.6908623768064182 8.00822824459335 0.3206237633012026 -0.9135286369341621 0.6322568930680208
P 1.8131926505375127 3.255853387923199 10.372763493037292 -0.7812194111440739 0.07036415154585947 0.4247079328073266
P 4.003041857971474 6.139413350113154 3.820067674430975 0.7499982483462632 0.1744766031867576 0.28638952470868095
P 6.714190388730941 3.948073632033377 10.304753750618206 1.5285449977541803 -0.051027398890460506 0.22229809354541072
P 6.052972766053721 7.724557871840927 10.171813751108262 0.750777806824765 -0.23302010794860514 0.2918657173319038
P 2.446569341030474 8.426633553009193 5.726061324456518 0.7412307865662783 1.0263692124766777 0.794445937136677
P 6.913485212173224 3.889970817040141 1.6287180196135596 0.18380122302179314 0.21971464908895064 -0.8126051245442069
Ni 5.357220463382853 2.9002085144338188 0.31563414771698584 0.0043148253252699885 0.020999742180118672 0.6637521354628246
Ni 1.4529859111321521 1.0255977918908632 7.088660863346861 -0.44596401397262553 0.25882884148159296 -0.32110867335742116
Ni 6.768851479142022 0.7583555564746802 9.280486578231152 -0.4402589931680482 -0.32720604450441065 -0.28614012770203623
Ni 2.770859290570612 1.7066708230499137 9.120932381965446 0.2593230075091921 0.35583502109501297 0.7919519670702296
Ni 6.488427709578119 1.8332829273635316 2.4854174684991324 -0.20792948352856447 0.5263318136984161 0.631589434687351
Ni 3.8842978431881896 6.960377580430358 10.247003238141252 1.061458599980643 0.06128147251830091 0.42489562333810044
Ni 8.227410996749736 7.138976889390443 0.4143935764291358 -0.12727552002092274 0.7215739315672992 0.20743274639780404
Ni 7.63538920162976 3.7897814014477937 8.12911046464854 -0.47278113416546963 0.6787321538114246 -0.026612974601838042
Ni 2.997940845810034 8.40157490736379 12.300837477435964 0.25605590672214606 -0.07043022889710451 0.5402193703137856
Ni -0.015158041598048764 5.018160908352363 10.191526431904007 -0.06257936539411803 -1.3447818270591743 -0.03150861213124251
Ni 8.715548716555315 2.325476642805299 5.846719516244943 0.22625373575904903 0.2333751772951787 -0.12091743901337884
Ni 3.702392310613751 2.7593236415117874 11.514025814383208 -0.8954823209554126 -0.8432236207610123 -0.48062479857960455
Ni 1.1668259339313247 3.387433861056201 12.717942879900699 -0.8880734300858512 0.26420244708868046 -0.542725167454775
Ni 3.025890178768534 8.654997850743802 8.137083341593975 0.8374538081567706 -1.9179781665196125 -0.19716890257795075
Ni 5.68849322946369 7.9642139168923185 3.491821999970821 -0.16790254951366568 -0.03130112410612674 0.30364085558996096
Ni 3.2862688384956837 8.227663931889634 3.481615163736235 -0.725678440653976 0.8414292478647509 0.6257116357503353
Ni 3.387027358152797 4.404260223631388 9.25027618578994 -0.3959169767175633 -0.6526228583188826 0.31972670540823
Ni 7.296338679997123 6.214724788017166 11.500844280235489 -0.6366154271470326 -0.0964960727462209 -0.6905350599836236
Ni 0.7188163740702347 9.084978555169025 0.35542807194089787 -0.30191975913379615 -0.6466656122941831 0.2487832843201328
Ni 4.613816987035163 0.24544283971629544 1.5350443938928884 -0.03645258640007916 0.14218406170163897 -0.31475650588714826
Ni 5.918275770661286 5.444112717334957 0.27163156343316264 0.2642608111304417 0.5471893738737157 1.3142785162639945
Ni 7.717439554332429 8.774103201441223 11.366224972064595 0.04697739719080297 0.09222109951995086 0.20493440545598257
Ni 0.03467921435930227 4.739887087477577 5.763993465382839 -0.443835654775713 0.23078916173555736 0.2014690726152014
Ni 7.895803994948323 8.760453737284696 2.4607599057184206 0.6430408710574023 0.3442570864494265 0.4587169427629197
P 8.61810545391041 1.700573279498851 3.6398739707497607 -0.31580551597695283 -0.31024190584624634 -0.6278883316866799
P 1.833861064826151 3.326431325352016 1.6471082109635642 -0.4511404159672424 -0.8806534834726961 0.13265555338591348
P 4.842298718941866 0.9310452165590537 8.178148264895864 0.0185412533372971 -0.18373591700149647 0.29480345980398903
P 8.567608759909758 1.5135548437393733 12.529354439594297 -0.9792763727539329 1.2961057020097098 -1.001588920208204
P 6.287877243834209 7.6031490046908825 1.3947665653066075 -0.21097624077468827 0.13215393115914661 -0.530516541203725
P 2.0539598035248745 3.1274617042324557 6.251185388433163 -1.0802273959477138 -0.05070549677466751 -0.939259208931047
P 6.850260460597095 3.8621479516515893 5.8806182450297095 1.0376959503434062 0.6299004770207023 0.6335727836659669
P 2.1512765985998326 8.45873824898027 10.250083626809271 0.44839242090846004 0.8535885089351042 -0.6830716617270429
