# total energy = -340863.89900102024 ev
CRYSTAL
PRIMVEC
9.37497720522146 0.00000000000000 0.00000000000000

0.00000000000000 9.37497720522146 0.00000000000000

0.00000000000000 0.00000000000000 13.72122677705946

PRIMCOORD
 96 1
Ni 5.534255160092927 5.422552309390247 12.225448104211502 1.4497363149853937 -0.7058444366471843 2.18262515734488
Ni 4.66820416176621 1.2105720273214948 4.6789103854760254 1.1035375314285638 -1.2457251926746287 1.473724964590507
Ni 8.765603475199784 9.249380412238002 4.9464609784792675 1.0896247780022137 0.8473343004952762 -0.4980854172582132
Ni 0.6539646441255895 5.803991997727631 0.610491938377088 -0.19278208636416475 -1.435394958662057 -0.43020006627014945
Ni 5.356383721873713 9.01380599071413 7.955703901487729 1.4911891828135415 0.6255388576178968 -0.1063930201449587
Ni 7.333303867352139 7.328053880243998 3.366365796058172 -0.04460144075945867 -0.4930077456249896 0.3285535596712406
Ni 3.3475886546672866 2.4487346118916666 3.5567068911569195 -0.8440278618298627 1.4090200682129541 -1.5461812227787048
Ni 1.867486039204622 6.387893688899682 8.709658300078656 3.2935960051230375 0.2116917787844741 -1.692988642184968
Ni 0.9840632085361452 0.5961960359820803 7.525091521398719 -0.05164369231822073 -0.39699684004530333 -0.07568916330319869
Ni 5.105584337736231 7.924986789416614 12.228727471158694 2.9021380926180926 0.5481715352813269 -1.2151020684721332
Ni 6.439765436523512 5.096649984675413 8.641848154093129 -0.4757528151992839 0.6035546400373217 0.16009513765410494
Ni 0.1790451853369631 5.895651147649586 3.0441778372223474 -0.07110900013168397 -0.8751451520599574 1.3286602389069633
Ni 1.7498113281664323 4.64366047203565 10.28700942673805 0.7324761803020997 -0.5315917765457748 0.6525405830177213
Ni 2.9951645200793617 1.9436764771115191 12.984300928273864 0.3788744194129797 0.1432839796340371 -1.1255150641409195
Ni 3.4514352746617125 4.944962857158052 3.4036735169453993 0.660225867477121 -0.5806106296466388 0.43618096644393267
Ni 1.5035213079557652 6.975310996438792 12.132198958193936 -1.7267006897254327 -2.3905795805741086 -1.6622264213014468
Ni 5.6175612055267505 3.6724409819604933 5.291027944861241 1.955876484227283 -0.6934100675385735 -0.8433701736412056
Ni 8.779562815921253 8.879659445124148 9.536774081514622 1.0127827320414946 -1.5190316589471062 0.2743770736288372
Ni 3.2492545211364092 8.277701548290883 7.440417666823685 0.11275470069692839 -1.257972385473098 0.4070933050493569
Ni 6.669292997896043 5.625004937247937 1.210006716209672 0.09463150873365639 -0.35474410202367934 -0.045301037929644565
Ni 2.832733668944269 5.134749891117351 13.038553920050314 0.23989832312567716 -0.5098083621220962 0.14310014575800517
Ni 3.759093894175757 7.869365051001255 10.071160894275321 -1.2984749735728347 0.46900161251837935 -1.4310947886248062
Ni 2.2795631523088002 1.720645774785313 1.6433359646271444 -0.15948732886677694 -0.7630849063268922 0.4088892206075151
Ni 6.329046958403609 8.872534462620242 5.0904381249292445 0.7772797097700356 -1.049478030579999 0.8189889165833638
P 7.567125168180971 9.338939567316702 2.418997184914839 0.752343351539672 -1.0685026513116178 -1.476222791311696
P 4.591966848974418 5.214155946127984 0.7927189909006638 -0.3279331524784223 -0.6257959679340255 1.1216476107657134
P 8.590150781041105 2.5254594234863563 5.405490788786487 0.5947121020450273 0.270781642968095 -1.099386742484984
P 1.8377673621817523 8.578385184932683 9.033698754365496 -1.177306080670282 -0.18291213554862046 0.7673094859312012
P 2.854642990143779 2.6736496845906164 5.65660329715506 0.05535662239343369 -0.39954146084402803 -0.2859023006596173
P 4.424745384603147 8.273154684456154 4.571720648690952 -1.7787218199877304 -0.0963826870968082 -0.4039159357626399
P 3.8178281249480843 6.45379977706081 11.607704621141293 -2.4212608117080494 -0.8921175182482378 -0.45390486608625696
P 1.6817208703692383 4.335139354639554 2.305714650591228 -0.9359003197611431 -0.28068604656600044 -1.1167458025887218
Ni 0.9907381921450673 0.9350189539691289 13.54466205225209 -1.229949932118243 -0.6188053955488052 0.22147302654095408
Ni 9.281311583827875 1.5659961545426437 1.9229887154123497 -0.7986013540659472 -0.6754149165127336 0.8669027095455071
Ni 8.656422493304408 3.8588342742534576 9.858495166496901 -0.44316048308555933 -0.4236134141915673 0.32796837659173195
Ni 1.3249373714861603 3.7488470443379027 4.36763114985276 0.21290379681470434 0.2952829705435689 1.4497046904165096
Ni 2.2401132491819116 7.336181985284638 4.371185203625432 0.24357140110189018 -0.7702852807300734 0.8364189391343532
Ni 3.2420076639317785 3.9491996773523352 8.511866910774838 0.12207109300184783 1.252784156403939 -1.1869137789633752
Ni 4.507601431141988 2.125147906490602 0.9994278583067386 1.6921250086330921 -0.07278587361347463 0.889648744992771
Ni 2.5498999884701488 6.430896708301545 1.8648797956045091 -0.40362925776015646 -0.16743769406210515 1.0231561048560187
Ni 5.42587105124075 0.8452451119176149 12.170507926622502 -0.005676224449170869 1.2304111880253779 0.2355901826686265
Ni 7.4538660712998075 8.896553153639989 11.73234869006554 -0.48654322094656843 -1.070353845587744 -0.27256958810645315
Ni 6.050853891534007 7.407413060369738 9.89285351962659 1.6590529086694719 -0.5656357535043612 -0.27785089111005057
Ni 7.061176410587835 2.921167826785509 1.596533267055765 0.3775438735270143 -0.2803201785861495 0.5260243097603263
Ni 0.9274111601508138 7.445784841144061 6.82609042536456 0.9737916954902778 0.8738395458746564 0.03434428180782472
Ni 2.8741710671906677 8.563085222503243 12.28922419760304 1.6490279203333018 2.99236967251184 -0.5669920104219396
Ni 8.378932549708216 7.290844596615049 1.244574131325989 -0.7487399504591299 0.41115616226482093 0.37652648800609345
Ni 3.0468956430485084 2.6687559466076705 10.59514710757571 -0.8898541761353578 -0.5257070356302236 -0.7917344517427848
Ni 6.187719180447847 3.0402675343244803 9.822175568183242 0.20100730248743448 -1.5386504616192984 1.0931590164077172
Ni 2.643406008856932 0.23864941397292588 5.718225020836866 -0.24552621083541584 0.5908827009966081 -1.6071024837441095
Ni 0.49699096708987006 1.6910114725552525 9.641302262335408 1.8257295561958364 0.5417504622463315 1.5168243668831425
Ni 3.993580818370085 7.200722942917619 0.3114817351260083 -0.5319658720557419 -0.2258855537863529 0.2007900442703058
Ni 4.308739419467188 0.821510482700328 9.793058764682412 -0.16860471778701286 0.7788676230824457 -0.2438727343923929
Ni 8.041939627227435 4.870038041143297 6.850445678057845 0.2246272558992196 -0.9024194143948782 -0.2502287585174078
Ni 7.7902308703230085 0.7427166136864117 0.17075676818998545 -0.07787357254902717 -0.11838181707571871 0.36223166864997614
Ni 3.134261053514163 8.79655027420688 2.799349375922679 -0.49753057319600774 0.6655462512487699 -0.9244167446015757
P 4.806756946536239 2.9703958309013103 11.683198498258662 0.8778376112904558 -0.07860453717778075 1.2512857174815417
P 7.357350683302821 5.3730430559650815 4.675096644841041 -0.08067376100198365 -0.5451551170525063 -0.7553538562312216
P 8.172439306772654 4.350729941355338 0.14042028018421113 0.4171838565161396 0.2606157581786867 0.08118901007550533
P 4.022933871290781 -0.002186244631461593 13.96779695070279 0.7189025553827232 1.5378233377323127 0.9897564463496503
P 6.370615606327711 0.27505713707018614 9.932109360730017 -0.006992886378065376 -0.5011118627893628 0.7284148657485326
P 2.5886186433926888 1.9898388637552449 8.449270189487235 -0.5890793292392823 -1.8307380651540213 0.3682650193282496
P 7.8543744628121175 9.039334053027467 6.917542388295283 -0.047626857849343784 -0.5065489746445341 1.02522275757706
P 6.19462853848124 3.1029205054739566 7.681979886143931 1.4858302324944734 0.7132543559580103 -0.08135356067782763
Ni 6.611721264269089 2.9593427330432776 13.14693802890249 -1.1523962048024798 0.4025041430167778 -1.4734218315277914
Ni 4.547379458463135 4.699066585980495 10.370818908435636 -1.1223338381994605 0.5610591898772724 -1.408079815786872
Ni 5.354321226938372 0.1633570988606002 2.4800704724433835 -0.37090991315026445 0.403516386331376 0.5100675293207538
Ni 5.004587710743368 6.6743179855566925 2.7316357922000343 -0.6154660467629272 0.9034558260791924 -1.3298398610373612
Ni 8.684463049448068 3.5834349505235448 3.199062769387185 -0.5833485974030921 0.11694611307045664 0.9776416653639872
Ni 5.328371290660988 6.264968990753351 4.993606800208072 0.22537956068421183 0.2529317592708676 -0.6627378352656974
Ni 7.638478117966795 6.449393537880764 12.692326645245391 0.1423154450731807 0.18324380785642636 -0.22095932012932912
Ni 7.799737096979535 1.3436779504668281 8.774106579319577 -2.4773620255769915 0.347517245257937 -1.0276923021634752
Ni 6.203778516012572 7.015895271780119 6.938591086608137 -1.8235641731134014 -0.33426860777814693 0.3301746402144314
Ni 0.7811371443410255 9.403758158148285 11.51928546326322 -0.6071544415734382 -0.7738655418821639 -1.1919467134015924
Ni 8.046702115532677 7.0481733175182075 8.060218957340744 1.6406294118569615 0.3261608910693479 1.5809389379748644
Ni 9.066521486266055 2.668315322689666 7.541954292490527 0.8347037562154591 1.9023571721529042 -1.1328177684499199
Ni 4.465845283678309 2.123704160035863 7.072043883901687 -1.6349663000339132 -0.7515421957946153 0.23035104575687426
Ni 8.41691058144943 6.959861034377692 5.732728110223106 -0.6436049710909882 0.09688790886800087 -1.7073089154623822
Ni 6.942854826138107 1.424959000873226 3.77199292500092 2.474070242199597 0.9079017776656879 1.15144849617723
Ni 0.24727158030034965 6.320581354191732 10.04246971472933 -3.595142182967499 1.102213927521134 1.2439436752941737
Ni 3.8200218695611294 4.7833288790661594 5.800840130467351 -2.8784474338693715 -0.048790282029825646 1.5249487957624899
Ni 1.0002162938706576 3.1568547480331266 0.3118886091268892 -0.5375891317797903 2.340292402283782 -0.29811581200667364
Ni 0.6958820411933043 8.052514601259547 2.594765815797704 -0.023111646316798906 1.5138272319280315 0.6248068645478788
Ni 1.562696162646098 8.046861490141318 0.3606909892878518 -0.38197542693580666 0.5714109654252417 1.7027202676504352
Ni 8.00214284995233 1.753589443888898 11.654754818104912 1.014159300674047 0.6429519108880217 -1.2798717566493505
Ni 0.12351157170520542 4.944250358907661 12.061136632694456 -0.1835006610622388 -1.3739661619326144 0.42429244253646275
Ni 6.107413127647247 8.293920258464247 0.6913933022158437 0.7571284316331411 -0.2315268112325303 -0.5943971419077698
Ni 6.734074088819712 1.5796836209317258 6.217458482420071 0.7978212813668131 -0.18860970015403 0.6945662926302038
P 1.1244441138170453 2.8935866445138108 11.51305579106079 -1.198537736355549 -0.4017551806658952 1.253507664833525
P 1.2024532972578337 5.736698412973637 5.460691590735496 -0.3627949973526139 0.43695255450263454 -0.6764299880408092
P 4.431945366922884 5.661239223271089 7.7838596359681995 0.06500442989584289 1.2457552745816158 -0.458037914418024
P 5.581655043697857 2.826405559483563 3.1660909753526636 -2.021026952782687 0.7709257425275498 -0.5701948336299535
P 7.419347406063779 5.505895854731986 10.628557650532843 -0.06367774066461936 1.0131632553093648 0.3878380563641708
P 8.90975312122617 8.24785162159031 13.18475387354197 1.2012247962694085 0.8694969526352445 -0.9024219854980393
P 0.4817575669969801 4.772116406599487 8.27999185516681 -0.15594434871052498 -0.38507257780389165 -0.28012554607684015
P 1.2666343896548582 0.5854635623367235 3.499488594162067 0.6599085933470183 0.0711809910202 0.13508396032174802
