# total energy = -340894.58871513105 ev
CRYSTAL
PRIMVEC
9.05326641793640 0.00000000000000 0.00000000000000
0.00000000000000 9.05326641793640 0.00000000000000
0.00000000000000 0.00000000000000 13.25037052084857
PRIMCOORD
 96 1
Ni 6.39008508792364 1.864828013962052 11.471680769085747 0.6608583588547973 0.763756221362304 -1.0661549770150478
Ni 4.626798509241018 0.4962031908577864 6.061329300653702 -0.22751589030092428 -0.6359322850370789 0.33852301217912667
Ni 2.655123845923774 1.758669412848766 4.698051336650366 0.5632939927450622 -1.207511657719385 0.1084398753716584
Ni 3.4567724738769727 4.331625813462615 4.969233781952044 -0.5216981715811466 0.9255102347760706 -0.4510658539755651
Ni 5.382311691921039 4.429355823612531 2.8540241074331445 -0.8041377105031442 0.43731662271027266 -0.25775129214669806
Ni 7.291346805425659 6.082672376052352 2.552061461899073 0.18725190057455493 -0.012197056286824154 0.5625825685003344
Ni 5.097803743892204 4.339819019501121 11.60617156721285 0.23306895890866958 0.9044104766829779 -0.36752865538285734
Ni 5.747131165659915 7.823561173807608 12.53715606343865 -0.6946190002450102 -0.3353055336830935 -0.740246568276138
Ni 1.855023326514867 6.677888424900559 0.4094122424275686 -0.17471982954581525 -1.4723239704779225 0.03055010487271513
Ni 2.7489066319490614 1.4995649301724714 0.5288067189312365 -0.015640277640418226 0.8564169795228348 -0.45333356696381927
Ni 0.5049857645350846 9.151494280689471 4.741751453277846 0.43185328560285624 0.3537740248009262 -0.30113171601486205
Ni 8.666184885219678 2.1077995760188792 1.318120271494972 -0.24887944357836492 1.4415620067047175 -0.5270429808328279
Ni 6.842123729590658 0.6545303339338213 4.590113768701095 0.10404740273091757 0.5656115851346453 1.1989827943127676
Ni 0.8134948269602548 7.3883797140673275 2.61670993151274 -0.010049670926518177 0.3269777305436885 -0.3778770884967169
Ni 7.486508067936243 3.8005793164386423 3.8090178659949867 0.9978191687531267 -0.39019215841864413 0.6744371259804965
Ni 7.5916708097520305 3.7417059254238296 12.414921577283845 0.9534974640176158 0.07839164983602627 0.4708556350079826
Ni 8.032827425277299 8.934931096549022 6.678213437162196 -0.6528074635258628 1.0271731964352118 1.1279992640153542
Ni 6.920534069369113 0.5916481565832619 0.48742967044682917 0.041190101085064545 0.19846653834345176 -1.048798230904155
Ni 1.621548640849634 6.522172243837236 9.343803764302674 1.1250149845760495 0.4177620976171128 -1.4765513782957087
Ni 0.013818000416101636 4.9219168854213775 1.4803711002031488 0.9721482463495837 -1.465612619896018 0.07156717071502512
Ni 6.307012315979626 2.029135744782879 7.0865628261213445 -0.8453008150050151 -0.29859583696688574 0.8943258387534663
Ni 3.4104740698096574 4.169653825357738 0.35171215473053513 0.22979260215024294 1.6263093956898638 0.5604837769897767
Ni 6.116766977092146 5.824292154683328 4.862488529179868 0.04697893985269974 -1.0614079492483655 0.11099606613460884
Ni 4.941209395993815 3.05235401316304 9.46607808482938 0.8520959835499776 -0.898818327307181 0.23330370062729497
P 0.08619071687181683 5.454221786466734 12.483982608912061 1.3188977602035608 -0.9881019414653629 -0.7684050329882252
P 4.005753491522251 6.190705003298201 12.528503856796661 0.4273248016048834 -0.5087374976554206 0.8638153288694349
P 2.450873104006936 8.463826275968087 1.3989605079593224 -0.4922379573385006 0.6951399057454867 0.8060215577894183
P 6.34272745169444 7.819858387874183 5.822451625636225 -0.6695844258738856 1.0757814443612184 -0.5415406602283706
P 4.965472149787403 1.0347702362311373 12.706866783611721 -1.4465604883605732 -1.0210951085619318 0.7954090723808948
P 4.074123758928658 6.272827182276422 8.162320820384231 -0.6066348216245423 0.49703974960251823 0.09011279492769642
P 4.697214814840468 0.959763924596857 3.9041025117200943 0.326716763572818 0.08798494995141622 -1.0951171685753527
P 0.2570521071968149 5.503399129230453 3.7785282756121346 -0.40836445845229674 0.36130761417380997 -0.645937732989223
Ni 1.4392701763421387 1.1902148193042326 2.555386726626082 0.6523017275340379 -0.6773437581043302 0.4580289155569595
Ni 1.8979539155033711 6.68003404902335 4.7443741845368015 0.20459656250058958 0.4948283437734962 0.37379751911070463
Ni 6.158421055526585 5.701104359582827 9.124138931113835 -0.7460485196698958 0.03816159867138589 0.877727568075153
Ni 8.64840427012617 2.4146328788443503 10.108190958650034 0.09920858658137753 -0.20271142966273475 0.8296379116567777
Ni 2.2949034314860697 5.5126334608981615 6.828340131586652 -0.31186761437512744 -0.6148541242105411 0.9100003120659296
Ni 0.6487778885008192 -0.11081288533913755 9.049552691037773 -0.6234110126416167 0.390039949111496 -0.20984469827340632
Ni 1.4084800175167689 1.1186668554121724 11.493185897951898 0.12228038079917651 0.47477862421147266 -0.8046177354633561
Ni 4.185334082660161 6.682188726412481 1.544410284992074 0.31274667454597105 0.19637186059795214 -0.1433408010139015
Ni 5.742595479223129 7.99746536694978 8.151150900372839 -1.5682184050844024 -0.004254404400979769 -1.4971094049527185
Ni 5.143604218310771 2.8291366782620364 4.952776754397572 1.0857292996025496 -0.3170291039714088 -0.23753573643077155
Ni 0.5877054590918039 7.349441615535156 6.761783233428325 1.1799738573104321 -0.09461788188690155 0.6495005106398168
Ni 5.110315357975315 4.562221560431445 7.430462917326325 -0.8118178527562213 -0.8653641614137936 -1.4083047873134842
Ni 8.078003224318344 7.095035778089784 9.21518219874437 2.0617830516541265 0.4670349757103118 -0.3679575153901598
Ni 4.518765881995169 0.39528371497597437 10.598851739853929 -0.008220073916947132 -0.700245345292852 -0.6764793532215059
Ni 8.222131224465326 7.2389102867792205 4.616534821190351 -0.35849354176378256 -0.28577708793566264 0.114947337472873
Ni 7.34552155120955 6.407367773368399 6.990988398687193 -0.01237806194937868 -1.3184059081688069 0.3766437303102481
Ni 2.320143938044473 5.334338433580658 2.7899188337999314 0.5344284746636215 -0.5803704886113746 -1.0496724059789921
Ni 2.379116914989036 5.152983402239934 11.500142427808239 0.11749247249222991 0.47723222795828774 -0.682249937156696
Ni 1.1239992292869572 3.4190203532354584 3.8031613079990643 -1.0880906007458746 0.29812018288204784 0.057344599357739945
Ni 3.916968108517134 2.586355234798367 2.6023731789353057 -0.7870103067942382 0.0778720298871304 0.05693836505825678
Ni 0.9030642228304919 3.290029414410446 8.018302364759974 1.089391578945485 0.8063797124597853 1.060137052955742
Ni 3.54444430512216 2.6237723845852687 6.8929089324565185 0.3287024265442791 0.4387093892927413 0.9491733827209654
Ni 4.164864647463406 7.06491556097364 5.890399105504513 -0.24212566979429914 0.08042462110565504 0.44433650567153155
Ni 0.9947638522707409 7.271040329023042 11.4250256663246 -0.8486910716334869 0.5005531620724153 0.6758314352248619
P 9.250627547122226 5.4883344940392105 7.884672532261889 1.4508776276786883 1.7193049114819938 1.0110888892788394
P 8.256144346108051 1.6690330228076062 8.11265822254464 1.2741849906772185 -0.754898513861358 -0.9856200555837734
P 1.8368353144360172 3.2350308213895347 10.422184489824515 -0.1608880658690455 -0.3495013655675013 -0.09734607945134202
P 4.188846750000426 6.119057453476391 3.818809878869294 -0.6557925142961157 0.10064403347632345 -0.471884076272497
P 6.911489856294564 3.9369215075324577 10.184831384858846 -0.747928510301428 0.07985229354195279 1.6832842704130107
P 6.355139479847801 7.725740630994283 10.18782530003778 -0.21315139404913616 0.608871681374861 2.0932045033882014
P 2.3941634436475963 8.715516133511192 5.752436379735678 0.23176875204000733 -0.4363750847326098 0.49959028393851374
P 7.092672875574811 3.7279902269173797 1.5822529382969974 -0.48625757138534964 0.855383653162314 -0.5221460577518426
Ni 5.297020869723506 2.9740794723796977 0.4863668169784086 1.1756510615653624 -0.8165342843952841 -0.1145290189885318
Ni 1.336171579252074 1.3302326365324497 6.909114279206714 0.20175292240420736 -1.9243791849499505 -0.17447711740738983
Ni 6.739034185766935 0.7405734825642815 9.332660098763672 -0.09065246948125032 0.2071761503023077 0.19388946049573058
Ni 2.627828247905988 1.5574877282214907 9.148744803701742 0.0937673609611482 0.1811193053142558 0.4042483794013941
Ni 6.257518108893976 1.8024147958079504 2.4846961070565046 0.8983218472867367 0.5438837065392504 0.6190537641141854
Ni 4.309146553138183 6.861425293429438 10.415294954139098 -0.6037405307958827 0.22840934864947113 -0.13975976853086255
Ni 8.312057319029394 6.943185341754022 0.3826163847118 -0.5266339183198672 2.2054259572894788 0.3630760189281424
Ni 7.764597250129386 4.005074496546683 8.221272069489574 -1.7823511892102015 -0.567978285594609 -1.0454740516269285
Ni 3.104808638342161 8.400860808567192 12.537924685750992 0.9127863594514988 0.06826613136625018 -1.0231635610551861
Ni 0.1989600130672209 4.83942352252318 10.115319500566853 -0.3822826737635804 -0.29707811477077867 0.6816567836573874
Ni 8.33396622357435 2.26889339728869 5.9121559151749405 0.7633749267634854 0.6122974192269584 -0.9576991608037894
Ni 3.6523501866392367 2.4289823059946625 11.668116731497127 -0.6054919662693508 0.7663679479535381 -0.4829575604778392
Ni 1.3897669159901478 3.4227412457015642 12.745597562344685 -2.0540648570742626 -0.5975220606899967 0.21313905275396197
Ni 2.958037084423639 8.211855767168414 8.052196888613635 0.43021754977164617 0.45918874019301564 -0.5202328998895298
Ni 5.799558631040013 7.935559131710768 3.4475870298475053 -0.8607539163352919 -0.5037639557002292 0.4013173217975282
Ni 3.3638588014204105 8.284227578297497 3.3973549815550728 -0.9710771247725921 -0.06267372488013723 1.175358470025608
Ni 3.1736044092665905 4.4713810859669465 9.056429552150313 -0.6302293211150307 -0.04780349263652412 0.09704346060925867
Ni 7.274408144101853 5.966428436235313 11.386520313923523 -0.19188888512593405 0.19298494640359024 -0.055346595091104685
Ni 0.6365668428602257 9.23116302448931 0.29176776230759477 -0.5198536621732401 -1.3274860160932043 0.2626757260315089
Ni 4.552896696100327 0.27157626238750604 1.4840947086491572 0.6532594634616169 -0.6964930773392713 0.17325224386135324
Ni 6.138060259525921 5.473804001562081 0.4196668772118956 -0.43685896634756377 0.13509861560976733 -0.021995016213852442
Ni 8.059824265505835 8.775675088346413 11.390575271917609 -0.27087266002000443 -0.3910758465751781 -0.22461054372867123
Ni 8.823349588897543 4.731906931458761 5.880779104690682 0.47474622831164043 -0.13314046344213198 -0.7717929756238514
Ni 7.97256888451233 8.863944435170097 2.549781849434437 0.5460352056646144 -0.2209518639301614 -0.21039774256339894
P 8.592536563536532 1.7119092921980652 3.5143032654934316 -0.7631018756077567 -0.027150592272862914 1.1176562302181332
P 1.9839961588071975 3.2646440555905882 1.7417479527310071 -0.5528380875190608 -0.026460765294689916 -0.4725445926746313
P 4.639328229856812 1.16762691978371 8.362083858175888 0.327120683879456 -0.4495473604485097 -0.6336301192664636
P 8.44180873222704 1.6572275634990847 12.304201035261382 0.5015494645474137 -0.16926523418914718 0.6193072748858882
P 6.376713413538143 7.72124115762286 1.3941640874519183 0.2774138035726319 -0.8145555634023585 -0.4306749490240389
P 1.6738855735663238 3.3306061541503187 5.9661912406571815 0.21244819733452444 0.246428153824395 -0.06302133802754308
P 6.6663183505168995 3.9544305246357405 6.153763149994196 1.014439550918627 0.42474675646506205 -1.4955240627434694
P 2.4224277411638573 8.585339216795523 10.290277493911102 0.031631767972668104 -0.44520810964320745 -0.27087086024779156
