# total energy = -340865.13839343126 ev
CRYSTAL
PRIMVEC
9.30574552894984 0.00000000000000 0.00000000000000

0.00000000000000 9.30574552894984 0.00000000000000

0.00000000000000 0.00000000000000 13.61989922079391

PRIMCOORD
 96 1
Ni 6.225031758824389 8.643334389428118 7.7978413623262135 -0.43534895746094054 1.0571134356380698 0.5050430795229689
Ni 4.899595850830645 4.522908588700795 2.5406015264531603 -0.18696445124112318 -1.1782216505060161 -0.10376123894906646
Ni 8.960483493423952 7.321667308262175 8.200309261107279 -2.232356977352368 -0.8840244568274582 0.5066657027280564
Ni 8.00124727265899 -0.17638667898827667 9.798713386355242 -0.4119794294970647 0.3122157417431655 0.7180990856448214
Ni 3.1699276747557086 8.3881615488228 5.638597651545801 1.1705551350996937 -0.06376053018641276 -1.3017017080402487
Ni 1.8148994968547796 5.214409212767768 11.106278541163528 -0.053763823985017084 -1.4321733664009657 1.6712314530135346
Ni 6.383406237299349 1.4422695396556005 3.338332816039774 1.2462126738340085 -1.340334332810782 0.021690340489240064
Ni 3.0343708836431436 9.509448017437988 10.254258464340587 -0.5630163136036432 -0.6318216053028152 -0.7659812540380808
Ni 2.7007226933122648 1.6754715157166207 4.302975674797213 1.1955516571440314 -2.215966708919803 3.7910324759433416
Ni 7.063842330259516 4.431042271554968 4.284711288587517 -0.7336239207532979 -0.28072075645867783 -0.25031206225983343
Ni 7.4680187638691855 3.4000029204114415 1.2116889920325844 -0.9883873339162654 -0.5897712130999843 -1.9578369503877637
Ni 4.746590787367145 6.613276756559498 1.2257527648347002 -0.11788636549653891 -0.9177673576058581 -1.5602109613988935
Ni 3.608972735831484 2.247504982214904 0.24691771399064263 0.3699601476424854 1.6528413805421214 -0.6121477810229716
Ni 1.4504492897337182 4.0017124085241935 13.455397608677647 -0.9348898762187577 -1.0992643579745067 -0.49633938110138387
Ni 5.037562829963952 2.803337146226266 4.572990248507866 -1.2730413639910783 1.0198167560701403 -0.14639038647350272
Ni 6.290097529639179 0.7678551944491872 0.6536662555884701 0.0559168657722779 -0.5699107267306315 -1.0693215476684874
Ni 7.653956859785994 8.89834903236412 5.377858114129642 0.38876391061254983 0.2938606362747455 -2.061508200726185
Ni 6.333750780624904 1.709986524863082 8.819606607749773 4.533545985876786 0.5534011591113824 -0.9476880564246905
Ni 7.774847796378522 6.618674088806721 5.253603150627856 -0.9195270206094422 0.17311237584937927 1.2248524629906778
Ni 7.977405953318674 0.641612523761182 7.1904758422481825 2.231588731727776 1.720274988704747 1.7155989233853162
Ni 5.562723257618685 9.108584429138684 10.173969424865053 -0.5497522495048854 1.2749712340239396 1.2347612374639574
Ni 2.8936494039147016 8.396983395323433 3.2055928740155437 -0.2902515787672485 0.5378688678037381 0.7097998217505066
Ni 3.5193211860560702 7.3626498103600495 11.774171420096055 -1.4693643736289663 0.28165715223001814 -1.2335741591343916
Ni 9.055783630568442 9.001977811510788 12.615744867297046 -1.4782542199194284 0.43785938258762014 -0.1276421593317221
P 0.8817751972720684 0.6393530888135517 5.39459635811771 -1.2035747845588238 0.4038154056290336 -0.4099006925911651
P 1.063507096334146 5.590193817607996 6.836835188813972 0.8704253779867849 1.4692594726199857 -0.17956944432863267
P 8.583126217635828 3.52553742388563 2.912342784980599 0.5383653478241824 -1.046014497511431 1.9418572871300557
P 5.465534054187668 2.420331283069064 1.7371769819202527 -1.0536918115510303 1.7884799278157588 -0.7962295113996609
P 5.0507676824791385 5.120309516761023 5.1378620134588 0.3852764662845817 -0.3015862870537774 -0.8296510242829
P 1.951870761245927 1.4423625971081386 1.2866932987784672 -2.9312311533293065 0.5043599374130152 -1.4774924020527391
P 2.628835811226416 3.2529349224198865 11.916607948674779 0.9376304150783722 -0.43252022976289384 -0.3718198265590435
P 2.7364567550869783 3.410034513795072 5.485645630830248 0.08020633444726187 0.7664042005081123 -0.13922600751457959
Ni 2.3263060330243497 0.6793594182342992 7.019722861436576 -0.8100317073900759 1.9590991049296385 0.5950381179258784
Ni 5.167322141783379 3.203391134688487 6.923022209631385 0.15281557327355616 0.5520356462224235 0.24950190765371225
Ni 5.526905444136688 7.640724090035046 5.572676682742183 -0.23620570476543834 -0.5265452152608029 -0.07015280686600175
Ni 8.363184928561516 5.061097059710892 12.91794243039355 -0.09169299493062273 0.021135239316718436 -0.31798118347203297
Ni 5.812638352155587 0.9750559876964764 6.137098980197358 -0.6126455465949965 0.2645631728622089 -0.4528288594132589
Ni 0.653743493274077 9.444400858113704 8.607926028737287 1.298323535596635 0.44810548579566056 -0.037364042470755005
Ni 8.855644967394285 0.8401599044969335 1.042941399323178 0.004300427147566787 1.790384086817007 -0.19340095089508627
Ni 8.720125399262736 6.247179432528507 3.1857893175408645 1.5083242998319315 0.6036623692597797 1.9197247168970744
Ni 2.585796739427444 7.386249180323767 7.604221373702366 -0.9052016051257056 1.6026282500228397 2.028608364674371
Ni 5.641710423333208 7.559782717817219 12.649222285847705 -0.2702450537383346 0.2508897891401744 1.2315080206339823
Ni 7.820548311320088 8.016071324848344 1.536119841689543 -0.8101587198862436 1.5756566065300024 -0.37939352514124336
Ni 1.6612709484592736 6.368340235733395 2.63244085693775 0.8428284422051227 -0.3111667316533609 -1.1934400101176674
Ni 2.023431942247892 0.2153088890869528 12.621900617782455 1.0216764349866985 -0.09542777938270663 0.6569078588474816
Ni 5.7890762051728855 3.4332337367128742 12.694712490946536 -0.12284190972960134 -0.7286146404641645 -0.18623657193616314
Ni 0.7638862940984279 4.446238553554476 4.163698446732165 0.8847947593345794 -0.17372069885733954 0.47904948367268463
Ni 7.571145032772146 2.1829324158985663 10.900250271818221 -1.9329972656362646 -1.3873248426277074 2.2636215917936044
Ni 0.8380428474516867 1.4001052079104892 3.148198759588012 -1.7731052451319012 0.0734654161790025 -0.4917841576305337
Ni 5.078368522902004 5.629882821115588 11.222660844180572 -0.7093161972458688 0.13741106579302786 -0.6462709479589256
Ni 0.5445340586986853 7.874865946366703 6.2397934625205425 1.00119734119674 0.11670108693918611 -0.8315343573485422
Ni 2.5070794403252825 3.19922216081477 2.78087028545994 0.05791641270080993 2.410969199974054 -1.825125346952934
Ni 1.3916742027105178 8.66259728210355 1.499510109286444 -0.8798988646948589 0.5057300782876646 -0.07072924819476206
Ni 3.707678775738876 4.90225729397324 13.023878103788643 0.5977413757896544 0.053106392906676285 -0.563471913083823
Ni 4.2363102463732885 6.591510618410785 3.4920469772916154 0.20048074056000312 -1.078805833009839 1.9966642076676064
Ni 1.997413078518179 2.627263140278518 10.021384981087026 0.3209955448183246 -0.7105091891127053 -1.1969287399972162
P 8.740477064132866 2.5129420598351966 12.947593326495834 -1.2991640292200592 -0.5777603046820372 2.402793606141797
P 4.660568478240726 0.43510686968435397 4.334192727825716 -0.575068616782487 -0.5505978853346324 0.17353583654004306
P 8.872804761642351 5.633446921547805 10.402375219822249 1.0663424104355057 0.38027515641524834 0.6489659782925856
P 4.130680731997045 9.193648246503958 7.721338830594463 0.3410740607357545 -2.1662688274740436 -0.9262594542372692
P 5.317870488499867 2.7717999755610303 10.434177604227216 0.6109445047434897 0.6912254011824289 1.0259331533805236
P 6.680789938376046 6.691119315607799 7.395209682428681 1.0003175096949481 -2.162633287603985 -0.7678663868759357
P 0.9577007727980805 9.155410939255963 10.706602365958613 -0.6118235649143333 -0.903324956928283 0.24579489111577024
P 7.122468525358655 7.83973675803349 3.5496318594968503 -0.4116554704987426 -0.20579932455943914 -0.11478407242213136
Ni 8.409350730765775 2.2159492000591605 4.8078923842267605 -0.25554065764862444 0.11940743012675566 0.3561546092179608
Ni 4.358783159658966 0.8769203899731444 12.130331138770478 1.3434304552376024 0.31300044242799 -0.3094158104005252
Ni 3.659037645297098 5.713699668616849 6.7742242735971425 0.5724116387756142 -1.9327715227787037 -1.6207295876092411
Ni 5.237682881647601 8.515910819667402 2.4181993368314116 1.1034426577219125 0.6191481236002047 0.27745211300973505
Ni 4.3076946182154305 1.6176549204545645 8.753440897845978 -4.295376215406441 1.862112722810561 0.4829449620723489
Ni 3.198952294202409 4.951940667883447 9.377000275814728 0.8320498635323801 -0.22019698804200788 -0.7706935719120855
Ni 7.783772006076945 4.98815862841136 8.625073725516524 -1.2263691567455202 0.10832134751592314 -1.407946375532801
Ni 6.215735319315812 7.11120857360152 9.516441284996242 -0.5349450092887238 -2.083865999596095 -0.7818711857954599
Ni 7.008249808113126 5.85434670238326 2.0671875564314086 -2.8919680940636256 -1.1092988593923734 -2.0820739406926787
Ni 8.590487062131608 4.736494053766738 6.082892083519263 0.10540031721438622 -1.8413824322417447 1.2972935516702238
Ni 0.6211910658016485 2.4824285211478823 6.742367915869701 0.22387289423169832 -0.07084031985132962 -0.09234117003758291
Ni 0.1791374572853093 3.4159622735217625 11.325708944823402 0.8994814148124768 1.5023464849819417 -1.5551985957859669
Ni 0.6140191279345205 6.9944959166279626 11.97443757198019 0.2658564377523357 -0.04549361355642488 0.5383818028844147
Ni 8.741993900609241 2.337389175621663 9.084677039007065 1.4288234760921263 0.08079691684340923 -1.1624769860772497
Ni 5.399472568630717 5.103996545331056 8.324100798495424 0.04603123122744976 0.07068168278627827 0.6475999511829943
Ni 7.014363682744894 4.591184841628157 10.851667767571543 0.38392329469079683 -0.9375070021266305 -0.15035399910694106
Ni 2.513295678154842 7.031197775909075 0.24704427212609478 -0.527071520077918 -0.4131410539053336 0.07174971903947644
Ni 9.420019805548666 4.907766295163509 1.420814213398366 -0.044134528425369156 -0.2661467152992449 0.6798176735661196
Ni 1.4341270125584975 6.868347233967022 9.603826885802349 0.20998790871948994 1.625847625562097 0.33641830713129806
Ni 0.7097166204013488 4.622321865247478 8.651782144969546 1.2706741493104825 -0.989149923113903 0.9807357309082787
Ni 0.40755814143491087 8.400054291257197 3.9029049359935346 -0.08238688703834843 -0.22707546032939602 -0.6984031498777907
Ni 3.6287660559863837 1.0848637816916895 2.339694208721037 3.424549231105863 -0.038230504236108354 -0.42229366693887915
Ni 7.4315030194931495 7.103159103956955 11.369864706052834 1.968597017117745 -0.67462815894538 0.5954392100190391
Ni 2.633684104503662 3.3902039706591567 7.630833943979273 0.7555770279856213 -0.041210412800038704 -0.0573548837703851
P 6.951084615018839 -0.13343322004564073 12.06133276001142 -0.2688653997819886 1.0061071197935318 -0.7017851789761461
P 4.077144779551753 8.677542308981202 0.04828658154760686 -0.3744729479111744 -0.28525001178759907 0.9098964394982135
P 3.717384668038622 7.045221534006599 9.557464732373234 1.0050534817180368 -0.10341902511829931 0.28516825070707014
P 0.1771097353944994 6.979699781674371 0.8136403916725641 0.7902175008776261 -0.4609972541566641 -1.3340947796589735
P 7.808813766555006 2.838726895426588 7.180546612062344 -1.443501132708959 0.7152094228018522 -0.08818883843210619
P 6.215055999912281 5.476840534671073 13.3981533167487 -0.30673800645804594 0.22164554756307636 0.19247998174271366
P 2.133807386703589 6.770404265170444 4.625385316585039 -0.1985578125056774 -0.04929087581532802 0.6698587625811947
P 2.7117500014380553 4.943407299485684 1.2655981048625564 0.7854342205563699 0.42327377146396133 2.0594076094434146
