# total energy = -340887.04601667187 ev
CRYSTAL
PRIMVEC
9.13471479279155 0.00000000000000 0.00000000000000
0.00000000000000 9.13471479279155 0.00000000000000
0.00000000000000 0.00000000000000 13.36957845037234
PRIMCOORD
 96 1
Ni 5.079823952088226 2.6601841964953796 9.959225870435134 -0.04258826698417181 0.8567921034740663 -0.04974184730981756
Ni 4.509744680153952 0.3845121111582712 6.4947802898573075 0.7100435623301965 -0.3640137002510634 -0.7908294234300122
Ni 3.6064127483250137 2.780515792591877 3.3139840416767514 0.4977812557542331 -1.4905348370589941 -0.7549550781309062
Ni 4.8680355929067725 4.5526230307253455 2.870074361972373 1.249257117087287 1.1012829310664323 -0.17968282997804536
Ni 4.68980817535278 4.7202267751403255 11.955865308159545 -0.4337340475653369 0.2975460555461327 -0.7105541834180279
Ni 5.999032017980455 5.738610437997533 5.169440983642489 0.04525218696958013 -0.5150865798019001 0.4546443153554428
Ni 3.4142183520697715 2.6428921816611988 7.207887269909743 0.42727852174798026 1.2192849962052292 0.4059543063489073
Ni 5.62361351525717 8.003215816535059 13.351341866935552 0.11093615943095089 1.7697306722327133 -0.1605173127931881
Ni 2.1229716278750956 5.653968172042159 11.73012001846296 0.6474827088788397 -0.18995541554864703 1.1432309933634441
Ni 7.8048920267490525 7.519112478895191 9.79958028942403 0.8738452023016111 0.45667574396317484 -0.1559705739627701
Ni 8.04398404802209 0.5146151115168518 7.620940796994796 0.02379453131643644 -1.6910659712409586 -1.6140323780947234
Ni 8.410048602942839 2.4380736097583924 1.8448816828143741 2.09885630235734 2.086234499828272 0.001998261376951397
Ni 1.173134863758351 1.2889904496759 3.1987514432983946 0.8648157451094913 0.9107158500757154 -0.5364717303458955
Ni 1.5000023581120259 6.943744207178037 0.9902085489879268 0.6288954327949556 -0.16722943470604104 -0.3179757841553943
Ni 7.604951392469835 4.013044571010474 4.225120673703432 0.6396202754116275 -0.3697739997736083 -1.3283900159647122
Ni 7.7214098695543445 4.364320022911393 13.063481431084213 0.1608153036495811 -1.0781412028426465 -0.7185762823915561
Ni 4.219607873411604 0.5206184459854328 11.666200766164652 1.45260026679675 -0.04983672101646901 -0.9499753097969704
Ni 0.48656697018121864 0.34478432366997874 0.921761218637159 -0.6129386523553831 -0.06710604961987798 0.13664102039622275
Ni 3.3287082882225607 4.5810228585750385 9.424028419866842 -0.05911917475965947 -0.7588436145520351 0.9964760244616709
Ni 8.891639894053705 5.37171462404355 1.6579616707985703 0.8345988552064788 -1.5178147558208699 1.1246920540189922
Ni 6.3181715437394566 2.2306425094654254 7.667011730336683 -1.5307965127925187 0.04323078566417716 0.2215905259554248
Ni 3.3492157226138635 4.670817103593528 0.7715326149596835 -0.35737871143304906 -0.3008301256140432 -0.16721555074897007
Ni 0.17770765229035657 0.6759305183661422 5.337215547221442 -0.48777092270608247 -1.4679998891812718 0.34463195329034196
Ni 7.0586680522011935 0.8666542255625869 1.1263377206017156 -2.341935080093528 -1.7257426966875378 -2.2170028634938013
P -0.013766928450393304 6.0412343996676805 13.025913090139396 0.7099947113701321 0.21774904072214757 -1.8422576357578464
P 3.990609711827828 6.559930901690561 13.049978495887231 -0.8486123958767513 -1.631626694137719 -0.42706820550938707
P 2.2478066382944935 8.87082187936427 2.1108827465060753 0.7838139113441275 -0.8543570116700125 -1.0530942871763476
P 6.73092362524103 8.058234202877516 6.44341487590375 -1.3832272755195663 0.7593089842242278 0.6625915394958202
P 4.883317970517753 1.2664642433467446 0.35765787702751267 -0.2713172037565908 -0.05230600849256798 -1.1521902594392608
P 3.959633894446577 6.504519722618113 8.782850009918638 -0.5797397970059112 0.16093151751247123 -1.4469268705610563
P 4.838384309149904 1.0362146258557927 4.311782625068123 -1.064959671155366 -0.2603419356920097 -0.31401551395606564
P 0.3205572334728232 5.837155739651599 3.961165786093535 -0.4286592041455908 -1.0637612799718905 -0.5274561571108465
Ni 2.7671791092015416 1.4535980076853798 5.222250595982357 -0.3595798328494259 0.3858919883813935 -0.5804741040687745
Ni 1.8093403350505959 6.729142355884101 5.347818210516758 0.44769385217953866 -0.5773041909812251 -1.013493899175906
Ni 7.169015405184241 0.753287849387412 9.646805840773345 -1.8037096002813195 0.45108282325642957 1.8026040259219667
Ni 8.919281540587372 3.1514765545655163 11.005355315573027 -0.6088469987845126 -0.6399720023240913 0.0013565140278944381
Ni 3.3375598267192967 4.750617970783918 5.59829665360216 0.9393358278052532 0.06330981580223935 0.11223276675518735
Ni 1.737285705884182 7.011313691450852 9.762693398192171 -0.061232107337604216 -0.15853499225583664 -0.49220658987993304
Ni 1.1778757806621756 1.0445637550467286 12.138159500676126 0.2446175829782174 1.6505921794966283 -0.5229832089411574
Ni 4.075955350811323 6.984000894644618 1.8050397113929453 -0.6849614225505881 -1.1209279589908696 1.414400615798577
Ni 5.5645210461804036 8.216593616065772 8.533280470941003 0.26105773081211164 0.9541644081776536 -0.20626546556258024
Ni 6.762146079917856 1.131855088250868 5.457875993045372 1.070424036704047 -1.2611263577210474 0.07644712451514576
Ni 8.262797002770098 7.255923080373042 5.234978907376941 0.43069654629059373 0.8999748095091274 -0.037488998084393495
Ni 5.109703603711369 4.475800080511154 7.647278006276313 0.28485791855550296 0.433726334255853 -0.37434979206974883
Ni 0.6838430081967644 7.913156664791692 7.60045802633305 -0.8111167129241386 0.40583577849317204 -0.6034070587158641
Ni 6.531823384709697 2.1415333680457542 11.742767944368616 -0.32963342299898074 0.41249467857058636 0.7559033009767885
Ni 0.7957259067126307 7.815022425296917 3.1801412891400864 -1.0149344882771747 0.11968639481975517 0.7798014477506248
Ni 7.18598770500564 6.097084045043372 7.447550210848462 -0.6816696391731938 0.3473781485769114 -0.332047431757112
Ni 2.269236678865539 5.37779834400106 2.9289941849422374 -0.01164041245240576 0.84084355056461 -0.1615840634948056
Ni 1.313343598935238 1.2891731439689182 7.19172339233495 0.30200074888337664 0.5028324450248952 2.183190542930047
Ni 1.794870947043547 3.5804336198578124 4.328468094849484 -2.469333241735244 -0.3583757852389957 1.0453439538069673
Ni 0.7885049147810828 7.904697919024945 11.915329098424648 -0.20441864216182862 -1.4387150241742253 0.4661260907427972
Ni 2.1801823457337735 5.968741304198023 7.5567392820137735 0.19191665304007594 -0.9276496497165766 0.19103990686207745
Ni 6.212300200935357 2.0513737344412273 2.9900661466838567 -0.2786561606201653 1.4061661437039268 0.0868256395359924
Ni 4.515545223957283 7.040097177315883 6.647808683575288 -0.38138098788491737 -0.42536382122377064 -0.3837764847002874
Ni 8.18453076764106 7.631542546818647 0.796837601485647 -1.1068516834034616 -0.021217771728195715 0.14615204521045153
P 9.055827255189243 6.115134241193579 8.492021705277216 0.8702551709575077 -0.987026706123313 0.5739566146652308
P 8.781758411517854 2.105816633760678 9.030281112196494 0.15002644056419323 0.12495098565280414 -0.14718485735034006
P 1.935764785819253 3.515357912684697 11.24853512165235 0.8467367761205934 0.14357451429126242 -1.5003186559186354
P 4.20367693106041 6.294923694952879 4.105890724193834 -1.0132149344829067 -0.22892691171583798 0.26505168246285316
P 6.6516160326417895 4.423321144841649 11.016719814070232 0.30915921430502885 -1.6103965811143492 -1.4650480056417994
P 5.979721231208422 8.269903810768508 10.951168188263804 0.9110668056572309 0.2908529597966733 -0.3123820921177007
P 2.047272247562967 8.649643033521677 6.015668160302701 0.8225074712595833 1.3590265099036465 0.648762861142844
P 6.999365484687456 4.120916416323124 1.8218859521521618 -0.5108013221629849 0.9043413140079394 1.6604873271231533
Ni 2.630642529314322 1.510242373235701 0.9035584727522816 0.22677901213489976 1.6558004631704453 0.783208930770277
Ni 0.9613739087208499 3.983055302811522 8.810324491174194 0.36845322407965575 -0.08723881581401104 -0.04607339731929484
Ni 0.43532487487544846 0.21210624725130545 9.728614518244004 0.40090748795361925 0.020977887803247743 -0.21912098136900973
Ni 2.711457349830963 1.7665624663403632 9.737477931869789 -0.4470361639908817 0.2696963803237162 0.12066264269009543
Ni 5.519231130941169 3.3342530600156652 0.501911463851825 -0.49971498244183615 -1.0517079483517824 0.06644604743837589
Ni 3.9932313749326407 7.315170839598873 10.839532840514977 -0.10100218814669057 0.12689628230463307 0.6674486104778053
Ni 6.62973839105285 6.26605799665599 12.0347590981851 1.1013055567742518 1.588985976649057 -0.3834134449339138
Ni 7.624143427951407 4.0282812750482 8.789762248494986 -0.8633278477100552 0.8901956186351765 1.3616642046368097
Ni 3.0587135272854793 8.491192273186913 0.043297633973869834 -0.2605355397600545 -0.2242611308090525 -0.8219672824853973
Ni 9.079431357847206 5.613483116709306 10.676891986569839 -0.7182350970020533 -0.2351268698789628 0.7375908758208458
Ni 8.413327965502518 2.716070380729675 6.924839915207969 2.7160724990421543 0.2291539401249795 -1.4547970173377525
Ni 3.589714489943142 2.5858367539515865 12.328034592881501 -0.2139936874447734 1.114654467277332 -0.18885266940277154
Ni 1.0157802691816968 3.6688667923933163 13.19939685037517 0.12117943442551388 -0.36658686029487836 0.9784065685544697
Ni 2.989719027527122 8.64259103381117 8.241836486532108 0.1503048910365605 -0.07431362311191071 0.38383124919762285
Ni 5.797565886354535 8.028281473537168 4.283131592565529 -0.3299591817695156 0.3060666914226342 0.461846746641153
Ni 3.28475204132236 8.465359300154127 4.032813006986518 -0.33954271169289263 -0.9394656685148982 0.9499717102525445
Ni 5.3152803569302 2.9090412277302446 5.306305499785677 -1.116104312349981 1.9247046866101691 0.39564701088562826
Ni 5.87991533893253 6.159035679805874 9.694267991156567 -0.015042496155419253 -1.90160435314728 0.07977361778521745
Ni 7.773441204205954 0.15615155265712843 3.2941169507824775 0.7645794885945477 -2.1376686472388475 0.07275424904459084
Ni 4.485574225187633 0.06265226737622756 2.116644924507872 0.8699679787343919 2.3138905152514857 0.18588690190622825
Ni 5.85954492526099 5.7010667607822745 0.7906095530366535 0.29294480932869543 0.3936196960429543 0.8313353539638587
Ni 7.806691565535282 9.037658307748574 12.000800796470324 -0.20888799078709186 0.4335766960518661 0.3685583821989523
Ni 0.045709198641711274 5.182680839057525 6.101888904949754 0.024260672319577573 -1.3110988329844322 0.43296040262410596
Ni 7.3380624345140655 6.228989324602578 3.158763316442551 -0.7382771032545931 0.5689938713433168 -0.5312354216476206
P 8.434657524212403 1.981931633664975 3.986366636872478 -0.6428791486685572 1.6159645621204297 1.0375920777756904
P 1.8187034175677832 3.3262145111228607 1.9961178455178454 0.0911746605333075 0.32120251862280813 0.003824258842096639
P 4.510840845912062 1.2643175854037798 8.441631878848376 0.13979859218859794 -0.5474038038773669 1.0148617260577102
P 8.293453105138566 2.0092718346151623 12.986646605740974 1.3755777293941083 -0.7151798551154973 -0.4582826834389785
P 6.343136718880406 8.037562343622497 2.1296938643867036 0.97255628042128 -1.238503735225525 -0.7316004625653658
P 1.4777227890784452 3.4774305774541 6.6194919816289195 0.5616194332561166 0.1895322119682994 -0.5216449497457081
P 7.0175527015574275 4.103368629478717 6.255906588264428 -1.6308494496520622 0.821317050495908 1.7802557401337535
P 2.3829182026961706 8.91796614167764 10.65961824116496 -0.1193711775721815 -0.15937137211420294 0.4882380921504882
