# total energy = -340890.603266325 ev
CRYSTAL
PRIMVEC
9.06908599901557 0.00000000000000 0.00000000000000

0.00000000000000 9.06908599901557 0.00000000000000

0.00000000000000 0.00000000000000 13.27352407681960

PRIMCOORD
 96 1
Ni 6.267037770473451 1.9935030214781069 11.642513639080928 0.6600592599922697 -0.05634392600736748 -0.7019006215080879
Ni 4.764444379238368 0.49560197538781914 5.857141379395361 -1.421224837809262 -0.9845934140914723 1.033762162506639
Ni 2.6097927669642464 1.617190363112985 4.8683706644186175 0.3238587252987326 -0.17115859455711813 0.6014949292948157
Ni 3.2262911014305367 4.52459425932266 4.846681038117321 0.8894970499062551 -0.8350120314844974 -0.5730392450572841
Ni 5.421390837681822 4.420082111180768 2.820995457727697 -0.4626980388978547 -0.006268606617531139 -0.10875534972954817
Ni 7.32475621247629 6.188816902916715 2.7745245536758167 0.007859605253734851 -1.0324699260577768 -2.3778947860175883
Ni 5.040462014495091 4.461582249144782 11.31741864442904 0.5681515779476796 0.05217873888608433 0.3951942396189258
Ni 5.961019598419315 7.658870413248196 12.444207246120238 -1.0785093848153426 0.7437018738145902 0.01130694037238698
Ni 2.099339256189655 6.4461884971651315 0.6455711037563343 -0.39432109298535317 0.597376536251068 -1.7676169683238203
Ni 2.7279901660212817 1.5451818195303206 0.31459027222974467 -1.0874668511189465 -0.3237939334990682 1.2130490425978464
Ni 0.558744580405444 -0.09309961020178813 4.628491523427411 -0.31427468115472323 0.23087426525019591 0.72546632464317
Ni 8.55528608999143 2.082098923525846 1.3790660902808767 0.8143496180391394 2.3704717540806404 0.8691053736237806
Ni 6.7503656447422795 0.762832573128517 4.6774972370424335 0.28987516926443624 -0.1920341524545467 0.21016402928603806
Ni 0.7820934981739658 7.59614861382531 2.6178443015980863 -0.2582341453203875 -0.6347894296818873 -0.9982521425254872
Ni 7.826721058667332 3.9313399925140984 3.9824950795332894 -1.064506128557715 -0.37942103594506915 -0.3042116404917664
Ni 7.460175806024948 3.920448020115763 12.610644021017395 1.189252968619513 -0.4537917375471604 0.11778532114230038
Ni 7.88431882444737 9.183447269174005 6.744171458940396 1.4338749224731047 -0.7892823906578664 1.0881448510225775
Ni 6.93818641773938 0.6900413674159809 0.5226786388286758 -1.0279026184020685 -0.5830611480696605 -1.2554701878765346
Ni 2.031176005110649 6.249298638074498 9.25124775680927 -0.42749757973732183 1.7311376424508635 -0.8486537906376482
Ni 0.35539571819899396 4.90454362121129 1.2176145920093373 -1.1136105993938499 -0.2925686569361994 0.054190369999474415
Ni 6.502797732560975 2.0289994244482012 6.749042465081233 -0.46391494202409134 0.9201646541934412 2.126099454344009
Ni 3.472607479730935 3.9952498422152365 0.3316664544352609 -0.8923975113825019 1.0485645176267941 -0.750895563349552
Ni 6.011616029735144 5.670999294234173 4.863936788227488 -0.5761610785157174 -0.4129659617800501 0.6486314777713023
Ni 5.210879211278699 2.8162958573140275 9.381939635777368 -0.22055308582984595 0.14539639799134962 -0.23288538214295376
P 9.28701623236217 5.764383673739299 12.329484213945635 2.256591424419701 -2.7255022769964867 -0.800408582478015
P 4.192602224696642 5.94776966363666 12.674649096122515 -0.41342001859833316 0.9058585219834141 1.042789819926546
P 2.2047673820269935 8.597566169359487 1.210791011632562 1.1817975407827326 -0.37713249702120855 0.8058256397285283
P 6.39758726478988 7.948219605062414 5.866924202564457 -0.9941915993028683 -0.9326887548023808 -0.1981214962992072
P 4.647326201426463 1.1480828158388174 12.864142208595263 2.0934171336196394 -1.0807123060039323 0.10095847939294872
P 3.980449093710588 6.165745147894763 7.936014428997736 0.21040956963794086 1.0697452654694675 0.6376446397424953
P 4.653175761956793 1.1961761793928312 3.770172356637287 -0.09639811371577592 -0.2964435665105733 -0.2564500568367712
P 0.3360704026422812 5.527644250353673 3.4629960622890072 0.08904218757133697 0.08940908399245247 0.02643479715276093
Ni 1.3986344573448959 1.2272831446936545 2.650231821855317 0.06171290362876468 0.13171735784236027 -0.6012907837038096
Ni 1.8767022616794755 6.6146649095247225 4.465213511216634 0.5892377091940174 -0.396488275840001 0.9746476157326699
Ni 5.898724046042826 5.5186477169488874 8.979858076186078 0.16834297948519397 0.3010494407137009 0.9748813290100308
Ni 8.832936160744989 2.4250464141528543 10.515618022173824 -0.8641084346298216 -0.7618795731648814 -1.1796486127605297
Ni 2.336160301350122 5.343550871741016 6.804380214606762 -0.8836097378875427 0.37737315227710494 1.0180239258357757
Ni 0.5208856805079841 0.0848875527440926 9.40397298044161 -0.5054117757162974 0.14773301654432622 -0.05085204965486081
Ni 1.3583767841756962 0.6767651322836558 11.557376686469262 1.0974715277401423 1.6450136569675864 0.3452328200991345
Ni 4.161350154018321 6.988320325664439 1.6661461967544935 0.37037383814113634 0.16827921612679408 -0.8348675354868331
Ni 5.510004877901748 7.788050475564502 8.066413376485013 0.3330213656346071 0.19237533784404934 -0.8029408619815656
Ni 5.192251308442579 2.99113876811128 4.983133600572032 0.008900902034055639 0.13509758716850281 -0.5962205682697539
Ni 0.6234788100324841 7.299680189427667 6.580562425087204 0.1124749646729805 0.2676713794738874 0.8366505955291849
Ni 4.858790081869408 4.479457417835139 6.977997891872778 0.6784457329192574 -0.5123630102231499 -0.5865244240279125
Ni 7.935486608187093 7.549905343834379 9.000816734148236 -0.09265638728515656 0.038451876218295065 0.008217759924101977
Ni 4.660376616315059 0.25194646694726425 10.572256278645167 -1.0452524225344255 0.21586930720093148 -0.00132514656932675
Ni 7.971454603634051 6.950284578588155 4.709419513183066 1.4968813481023124 1.621199585267124 1.2803091012970853
Ni 7.292814891254861 6.188644590280938 7.039029213647828 0.3453829725237536 -0.01954681178367601 -0.15163260870904854
Ni 2.6208661210844517 4.95398827859324 2.4025342217428736 -0.7680823595414836 0.9658708979813043 1.055102318745312
Ni 2.475488671005093 5.460079558956841 11.458701402137168 -0.6982087744787975 -1.3941192398417215 0.7525660090734394
Ni 1.130633894194857 3.3627445707938577 3.9324010755870424 -0.17663632984223773 0.1938668347879113 -1.0073533334958071
Ni 3.6297203272153267 2.7935596584775366 2.6535901044357524 0.07755089910228578 -0.7914614005870563 0.07221508871166916
Ni 1.184504265590452 3.650642708833111 8.25783094902681 -0.8895142762974358 -0.05925055813120118 0.21261686170190477
Ni 3.235079045855172 2.749783179904045 7.485006963749044 1.0776190117905893 0.34286123454316436 -1.3374243582528387
Ni 3.9562255647547575 6.91547742616117 5.8063572179973955 0.9603952195787138 0.37219263651742995 -0.07962475091217901
Ni 1.040523454769498 7.428842113571785 11.261231121536547 -0.16178949463739234 -0.8117330063518987 0.09439471013250195
P 0.1040151622239663 5.86104199332419 8.352046963726712 -0.1139680042787392 -0.3465685081914225 -1.2021619633716973
P 8.384769133260793 1.7339367083950548 8.335255550824533 0.14660610202873461 -0.503087755568811 -0.9643428913725522
P 1.9609903478327855 3.2523103094328873 10.337261747423936 -0.28355976856936976 1.030957088957676 1.0327594322737375
P 4.159672373091017 6.006591756039326 3.587568121961188 -0.36783898753442457 0.6961333800070075 0.6346395343675844
P 6.93277217334154 3.9415971288858858 10.274756699158687 -0.10771970937618222 0.017268043051828327 1.4206270563242631
P 6.1951834013543765 7.778083549947707 10.223201665442772 1.59332317057183 0.26159534848313654 0.26547565737414924
P 2.4778647715615993 8.534599504612078 5.756449130316066 -1.4621151482657206 0.7118932139444255 -0.26932408458596196
P 7.264927451517242 4.101693705695052 1.7300315599231788 -0.3081109755461726 -0.6286537490977947 -0.8836141087629169
Ni 5.432917646106705 2.978587152957828 0.6488414162016629 1.080147691749714 -0.7407507616060662 0.0691873576289389
Ni 1.2257414000577536 0.8995363492680193 7.3445068681707895 0.13581723894334674 0.5827929820099382 -1.696784876002607
Ni 6.442588069985998 0.7610241973614664 9.16674926785859 2.3713240747786064 -0.02512482009208576 0.02143220173184696
Ni 2.6040248282087584 1.5420983302585187 9.316142509260166 0.41337271030016554 -1.6924607947059562 0.44314351380469486
Ni 6.462821201060674 2.1299746290136143 2.7606941973831765 -0.12103468131753349 0.21609710694102138 -0.6463105429476095
Ni 4.384014355786781 6.771977276903173 10.576370923005804 -1.1930180920889002 0.18066910515071463 -0.2589789939062121
Ni 8.116287908547797 6.913872197922615 0.1269418118684216 -0.5697335777228187 2.094127272312787 1.7297099088654015
Ni 7.736519928381038 3.977138877286448 8.280489153722895 0.646965402922789 -0.6498501806697519 -0.5828487749485382
Ni 3.300158807662376 8.524006812054829 12.403325619827804 0.009012487911255446 -1.2956508738604784 0.6682770199163717
Ni 9.216005288249795 4.744265662680253 10.357622752612532 0.4810523730353264 0.5912891924064074 -0.0867140536587926
Ni 8.77618181997165 2.424846894258796 5.9219028162806815 0.06578578814655767 -0.14311737214918577 -0.17639490325539298
Ni 3.7270225519128592 2.5171339143466036 11.547050625043163 -1.008968757612043 0.45268693451875586 -1.1095037763143278
Ni 1.042373548332579 3.0844778021859374 12.485673828465709 0.9016815077875892 1.3890698503432721 0.40543880016506956
Ni 3.265995560348031 8.526092701856342 7.776970773084031 -0.8506037152751674 -0.3211415834778857 0.9783412625341732
Ni 5.378856823903146 7.812283073606427 3.6919514890805516 0.708445107494825 0.5774283752639152 0.4512882543990163
Ni 2.9459475121071974 8.61673821736122 3.5230724092984076 0.9135538337451429 -0.1645012371416006 -0.660010151921889
Ni 3.5411153560814945 4.573376873419782 9.298289106376435 0.4351610098198506 -1.5805753839878585 0.37132540342112824
Ni 7.300169920076717 5.973398900936989 11.262426427083676 -0.5886355568336443 0.44900640034337513 -0.7133474298924488
Ni 0.2593976280817122 -0.09900811979172588 0.47231437611684113 0.1940126163371562 -0.07205310921250817 0.16814731853462006
Ni 4.986936268371051 0.25169616017108265 1.7499146242746442 -0.7539466914710499 0.7391643909555528 -0.14314796827680507
Ni 6.085139110695429 5.58790832744521 0.5027774363050237 -0.7509917226077841 -0.5666690798648821 0.12185177790219015
Ni 8.293679232537333 8.819386946121249 11.507508502766743 -2.630371202918593 -0.09964053191247356 -0.2731923092921166
Ni 0.1156353822356121 4.931261148842842 5.747302956990736 0.009146956606590699 0.2588401543355026 0.48394357854019243
Ni 7.810133700202258 8.824692361485967 2.6924547659809854 -0.2753882885021709 -0.4781557682138217 -0.3425537306050746
P 8.45203454481654 1.6047385079065617 3.6757305216936556 1.146790428579928 0.9930474583960963 0.4338651738265625
P 1.6848638835429395 3.190422865930608 1.4774629536698982 0.45426790585263055 -1.1022604644883534 -0.049869116916301214
P 4.646782056260851 1.1494794550972218 8.072015350964989 0.20705787955688856 -0.0666350235207304 -0.32779457001802903
P 8.534799024506135 1.6649935159120053 12.565634146735183 -1.3011496921915204 -0.8724807178539168 -0.9681890045915197
P 6.440375212979177 7.619029918039298 1.3753232784500748 -0.7914336326729144 0.9742719775608061 0.7571965658669152
P 1.7627219876559335 3.328282043638426 6.014207067632067 -0.23624709952633507 -0.40663487735569964 0.638605460993868
P 6.980285115385567 4.151492057434649 6.188900338508775 -0.4032309938804733 -0.5621562795961932 -1.0426512374661527
P 2.4898359652050646 8.386292739724507 10.002529941889062 1.2112461850611527 0.38720582209681054 0.37383557143749163
