# total energy = -340886.65219869436 ev
CRYSTAL
PRIMVEC
9.10043280657966 0.00000000000000 0.00000000000000
0.00000000000000 9.10043280657966 0.00000000000000
0.00000000000000 0.00000000000000 13.31940329827626
PRIMCOORD
 96 1
Ni 5.146586054898317 2.9941880520261 9.717317642841556 1.227468817567602 0.3064029917161304 -0.3297943740568772
Ni 4.496196311839617 0.464601673972308 6.1347438276691895 0.3824302550850382 0.3328768696369428 -0.19047349283564616
Ni 2.6394804763950632 1.8431652907614167 5.0343212937699695 0.4478828282618932 -0.3543964888762735 1.5719753010236734
Ni 3.7664416929033915 2.97415799907272 3.222589808508903 -1.15545581756441 0.6265120201644436 -1.0981564696223087
Ni 5.546959603141832 3.283672824605398 0.11650920306267584 -0.07184407852549562 -0.6796960603865907 0.9695126084989497
Ni 4.73188842516974 5.032530328562689 2.5726960390467317 1.8285418288336508 -1.226590785838023 0.861128011845259
Ni 5.100519663235431 4.700810446598275 11.437224849454322 -0.9017930936647889 1.1339379980972921 0.8734860191899796
Ni 5.32585548385272 7.9556166978424185 12.700690740333446 0.5961516627050314 0.3641828788390761 -0.0450423849516192
Ni 2.3867523525566576 5.217806043273217 11.485175030740722 0.6437970324971365 0.9508124609862851 1.176070151380652
Ni 0.7631832393422461 7.63218731030805 11.649896507559154 -0.016058853235075568 0.3495011084571852 -0.0035632918712261213
Ni 8.20341238701443 9.046057876866914 6.980073035202705 0.2371382438820368 0.4252170112332612 -0.1623919041080816
Ni 8.507193939779897 2.6896693641905625 1.5290274452831147 0.22770229528011754 0.02431826503039038 -0.20443638277364146
Ni 1.6878664022337297 1.4888672346137517 2.9626213802044776 -0.8236143311705171 0.500736481727815 -1.5774080420034704
Ni 1.6491349595396874 7.1421107943401045 0.677606407923614 0.180969667110269 -0.8898420919504997 -0.9309620019192612
Ni 7.835791297007724 3.8479815722592705 3.821443799693458 0.5074460325375068 0.4001688100153818 0.46122685366896693
Ni 7.567419528904502 4.504122788951109 12.901147797314229 1.0827506765901997 -0.30247331764442104 -0.6675406559709793
Ni 6.81880881286723 0.6727458666776347 9.103918429650918 -0.7344091356587545 0.519145580362622 1.43931974763776
Ni 6.8708359881214225 0.6927449781589382 0.9032025009236694 -0.2009455960115636 0.9368094618389736 -0.943920104741826
Ni 1.8674725472077953 6.782334277548217 9.565702609577626 0.030626209526289194 -0.6613126727833966 -0.23434859695204155
Ni 0.3485565929907873 5.099154598290857 1.5215951216815582 -1.1904508455823564 0.35677938728615327 -0.09572654157004803
Ni 6.412074061982001 1.674907385693242 7.043074422567974 0.27402817492985065 1.5469720941111162 0.09199998464808026
Ni 3.4937836208742072 4.434258765087819 0.6876478256558993 -0.9501300902072799 -0.3339603325091087 0.014885915972896947
Ni 6.307855903680268 5.721578710851721 4.729879959614624 -0.23411462656436455 -2.148149235055197 1.1895517308068546
Ni 6.704771287397529 2.0117326105503617 11.552145116921515 -1.2133876568841877 -0.0010402683390562729 1.1006213862230334
P 0.23676505437655873 5.846846170598782 12.668311399848152 0.45459957816043645 -0.18112573307215904 0.9739593314163938
P 3.905296099065445 6.261097879112131 13.02146189139908 -1.231575640647124 0.6521688015005993 -1.7003648800443816
P 2.651620453968807 -0.014693559063393093 1.6339044749314284 -0.5877433840366781 0.41995653416527035 0.1087448082065869
P 6.578338972231098 8.20386740866262 5.809604468780918 -0.9533843354785193 0.10557438089840528 0.6507066151327762
P 4.873964384600988 1.3141571225742246 12.797589420402373 0.04577489224226955 -0.07473091315498742 1.0368004351123306
P 3.907443801244908 6.3441120286081505 8.516746664262026 1.2819093559046697 0.24877274279717157 -0.6622066453525756
P 4.684629876788592 1.1915469892525998 4.008048177616706 0.6148595235271799 0.25461428917961315 0.0530490573061796
P 0.616337742994657 5.9142894792936955 3.7292464032936428 -2.366903062892775 0.9823912642338306 0.7660676431043
Ni 0.7964880938599593 0.3096012796458347 4.774153565983636 -1.3326878720091178 -0.24095993162097207 0.9566372951981783
Ni 1.937054457649207 7.091439583597523 5.179529622227366 -0.8867989342488017 -0.9807997513769946 -0.3170298753023572
Ni 7.967510963726138 7.694516175677293 9.134633300947126 0.32967918863525164 -2.3884411940748675 -1.6528804613101726
Ni 8.65393842132159 2.7828395968742106 10.790688229712506 1.0543081049787908 -0.3913087885215906 -1.7452900226918455
Ni 3.274863605496415 4.318947179003182 5.368332664754674 1.055964666745607 1.206264158465529 -0.6842548834018667
Ni 1.5816006465151364 1.6198315653961683 7.616008560584961 -1.0238348760905982 -1.0444741496075043 -0.9199301695851317
Ni 1.1312839221661457 1.0522284610093913 11.639533844543244 0.38588736039570315 0.9212098076285038 -0.37829000766441945
Ni 3.93870378847565 7.331217791328404 1.7314956979489033 0.8799176337479362 -0.6341481965534627 -0.6404720818889614
Ni 5.6577937762082655 8.056467695947536 7.76871564580455 -0.4852694964404674 0.10420089758964635 1.1195704165217106
Ni 6.922389940861494 1.1760944540800236 4.751524429375787 -1.2789199342590425 -1.5709946822779588 0.39152424696650634
Ni 0.8932402569581693 7.502042018492378 7.375859055189155 -0.42184526654755083 -0.4122334544893997 -0.7147443102399754
Ni 5.0665477469814695 4.75227339500871 7.071550587355082 0.16826301817687797 0.13694980988589317 0.3576070253937712
Ni 0.5950045080408566 9.086254489268132 9.095647956173393 1.2834659017585122 1.0216154998417761 1.3582001573476092
Ni 4.805702036939332 0.7782799475859367 10.696080128620574 0.366574261889388 -2.4340937018066597 1.1541730941972448
Ni 8.362051134439842 7.405359018684693 5.03490736165284 1.111057493954693 -0.6943379786694817 -0.6309466588970295
Ni 7.117758035728907 6.327995161829215 6.983816043280727 0.6645751455847523 0.12281002805040139 -0.0914428265930296
Ni 2.460656968655887 5.683502499331073 2.7303573999718274 0.16731505244131187 -0.3082642132945852 0.08838115694857036
Ni 3.29121708353241 4.292974543324424 9.226817046697496 0.5319494169955096 0.8633594722789389 -0.5078119005173576
Ni 1.3009341934777856 3.8847655222990545 4.046061596149903 -0.6983239599004232 -0.729107520940183 0.1926923548638359
Ni 0.6091629616459768 0.29917946381566146 0.6420965184987659 1.1521717474964996 -0.20958758795727775 1.4775713349197908
Ni 2.376614470234956 5.5527929806716445 7.321809763730402 -0.7933066813259112 -0.5068035138575013 -0.7371437609810982
Ni 5.328330801618882 2.9606074543895833 5.068032937641165 -0.182851200403698 1.0550879205676087 0.949582445233926
Ni 4.040792445463847 7.183690672551825 6.129376392307124 0.8449537160782415 -0.8397467179560054 0.49149619407646966
Ni 1.335443035276613 7.94672557483676 2.9445870522000646 -0.7809551017390937 -0.4908755297733353 -0.37633005572457123
P 0.03690680588479542 5.82616998690497 8.626525187104656 -0.4194811371907485 1.6808959726864923 -3.1086429278849885
P 8.492869858294837 1.7221477332084614 8.459046279098185 1.222053817199618 1.3150655309416641 -0.8385858648786848
P 1.8791575031333476 3.330421748740571 10.405650731099632 -1.7628719974396674 -0.37996893802873916 1.6177190829176915
P 4.167907293102566 6.237418552540256 4.138125216185149 -0.892423993745063 0.6060897477543498 1.1237569437992323
P 6.968993258069247 4.240155630402378 10.665232391003094 0.2782180446414821 -0.2611292074799954 -0.656682887320869
P 6.2412134330861715 7.955507492646852 10.31256149226936 -1.9012999345329833 -0.02815666493987409 0.6557251513932901
P 2.3887544478086995 9.007763254955135 6.291100186507273 -0.543844882881515 -0.49639337426777097 -0.09556456207088704
P 6.962359042438618 4.414765637679303 1.75308647515558 0.7905162630649676 -0.8698373666937987 0.9302508347848495
Ni 2.6109415186205056 2.0446306757145916 0.5882010243571004 -0.06590354467134457 -0.7949426742674374 1.5601168590231906
Ni 0.8048204502816382 3.832401631025201 8.356713730506558 0.5373978417045906 -0.9077549676751785 0.4246421125663977
Ni 7.935786854414242 9.076862842449463 11.045861639888294 1.0463664815342109 0.8795365962594336 1.902842853540071
Ni 2.999894023494419 1.627266619127614 9.66999357134307 -1.9946870293365777 0.3166143850314934 -0.22078499933499393
Ni 6.130124447896751 2.6137626528392914 2.7072222792911895 -0.07619824172913328 -0.7460852864451022 -0.7771136165058165
Ni 4.159107174426546 7.104962826981768 10.554867800277593 0.209552106733652 0.26774131347987434 0.6536081050502872
Ni 7.598488407043003 6.630793867834591 11.301740333618774 -0.5516690069116241 -1.1838791059021094 1.1084948754338393
Ni 7.500795259176333 4.194698967748069 8.260280992605377 0.3192623641773018 -1.3258366534152393 0.3479756729515943
Ni 3.0332107085749853 8.930691688184494 12.800825534364309 0.5538243626917301 -0.12974223639386043 -0.6669377322796578
Ni 0.17120371521856512 5.088188576569447 10.501483750468495 0.01564284874357951 -0.937587991876211 1.6456494907793724
Ni 8.714155986243224 2.300562151956264 5.993531499326208 0.08188526481158155 0.6384414246121779 0.056465024966264044
Ni 3.408357856642775 2.976342102984038 12.043258172204041 0.6204354749530605 -0.34291959858492554 -2.045427493114239
Ni 0.8947218074446802 3.4818529532586324 12.66956270938068 -0.002520709539324691 0.3934492319033611 0.5932648280755396
Ni 3.151989559618839 8.54206679889728 8.418102521150637 0.5265426441576415 0.3559131826311161 -0.47217512515035454
Ni 5.8528888580867635 7.698483964449521 3.833084163497488 -1.110099500916798 2.4483833789564544 -0.8201297150560262
Ni 3.409413506866579 8.522582771921726 3.8320458040963152 0.5568112132341959 0.4338831715486915 0.6560743072025926
Ni 3.5990938311315994 2.7140312232347243 7.357931202250418 1.1057815902677344 0.5015643769457492 -0.4654002683203662
Ni 6.159618951132511 5.807850815348789 9.156810146036673 -1.5693980272148005 1.0833374023316051 1.3588570742053179
Ni 8.222523296238464 8.672175688981095 2.7800794355562823 -0.3834854358224299 1.3430676725815451 -0.0631933448290331
Ni 4.8381177791564784 0.4908900946749115 1.987068617131801 -0.5744595224435783 0.03686139180272361 -0.4422135457912577
Ni 5.772759545840277 5.755095605457491 0.6885760698182096 0.2090844230686141 1.3786656242908126 -1.7643629801628968
Ni 8.083932802632361 7.794384327022318 0.2821461834372687 0.20325341820913384 -1.3436230308643828 -0.5873209517872787
Ni 8.988634144865173 5.0010246296419245 6.112953750980605 0.42990593206849836 -0.3252710322652269 -0.33435885349910804
Ni 7.516284196080766 6.47470324163905 2.782410056438318 1.0618416943516746 -2.29361916659696 -0.711426301610336
P 8.42375206993458 1.657771270422358 3.45384091055268 1.6798135382555908 0.25468962250223875 -0.25172694032948906
P 1.7902189717778785 3.6048999073625203 1.9367477730583262 1.1635643056041574 -1.4200495865542382 -0.9776339520545034
P 4.819571096776202 1.1949323503151432 8.518704167392546 -0.7178250060478283 -0.2021596709243228 -1.8787415896164934
P 8.437084204226585 1.5130743862975282 12.915585634211338 -0.5986448614405304 1.3650004680988945 -1.9159459665809326
P 6.266703745817848 7.705900817315039 1.4823695254775802 0.15559622134248688 1.4825975844897885 0.7140488268348477
P 1.5653927754065626 3.4021149596295905 6.251288522420424 0.11342832972518531 0.3528409714636956 0.7940430452713034
P 6.966317730777882 3.9020381440643956 6.142069676205068 0.16800873607422678 0.4465646236711019 -0.5828536600445445
P 2.362599803470664 8.689184398190486 10.566376207803646 0.5724697457070592 0.2678989221036612 -0.09994957851246011
