# total energy = -340861.9533716994 ev
CRYSTAL
PRIMVEC
9.41377520869926 0.00000000000000 0.00000000000000
0.00000000000000 9.41377520869926 0.00000000000000
0.00000000000000 0.00000000000000 13.77801157691397
PRIMCOORD
 96 1
Ni 4.560682254164214 5.957357010730833 5.923538964726116 -0.9204847565370211 -0.7887337172432481 0.3430808067531381
Ni 6.029315908309071 8.960991434133915 7.123865905196699 0.5128679748840264 0.7499828217272955 -0.331775409042648
Ni 4.993866533463034 9.00955710035659 13.65782606029758 0.606200305190285 0.976619651857376 1.0628493096805827
Ni 8.196122199671354 9.23763404574193 13.31249395523599 0.6958436166807307 -0.2793300467587383 0.5157221565033698
Ni 8.311017325906622 5.598240314653569 1.0629554845835891 -0.23596479239922585 -0.4119112952632906 -1.3744816681164522
Ni 5.425055092420859 8.526555122734374 11.404749108930556 2.0532377331872764 -0.6307209160394686 -0.15199333448257696
Ni 3.237670288485835 8.61633429675369 11.543286931564012 -1.5644697366752476 1.5719781292371506 -0.007573184361567602
Ni 2.9726160341408767 0.6562898100045347 1.557824467214587 -0.7838704756136758 -0.37989051938231994 -0.5585420798823735
Ni 7.7896730419217475 5.178160010423941 12.03714581611676 -1.530029552719507 -0.6765860540026993 1.63966653372306
Ni 9.096935761701593 0.9289927566941186 4.356869314339824 -0.9846337804111044 0.5706082670182882 -0.33063306790808866
Ni 6.07144255229947 1.776840653976294 9.149302710347357 -0.815434623573202 0.1696537278768175 0.3499464235247199
Ni 7.270616305308865 7.654735988299762 1.8031286212038227 -0.5574797000561302 0.9080573294069457 -0.8284624032914376
Ni 1.0380664043497974 8.693517839564256 7.5944266375233385 0.3638856593136313 -0.327310688403075 -0.641084775772296
Ni 5.039476274274986 2.0935953616833247 0.8239237290057059 -0.2769990846327165 0.15792872613040543 0.5560959323347261
Ni 4.016904943893501 5.287886974078041 1.3875283325887264 -0.1064318438026941 -0.5018086317460713 -0.9318878561676402
Ni 8.664062136984153 1.5416845496455276 10.796574045316934 0.14859485032398925 -0.37940072423009497 0.20712138580497233
Ni 2.1109826044655073 3.6362024612978043 7.19341675908047 0.7674953766897621 0.31664472404879657 0.014836036571567996
Ni 7.238656538527322 6.614918621763994 5.75649434805205 0.4148734632154081 -0.39174819005185435 0.5830794029021055
Ni 7.320669348012095 2.2529799894825326 3.2916225168741646 0.09196038965939647 0.20868513074766643 0.9513385086930842
Ni 3.0249942793168727 1.0860766578360628 7.506425725638052 0.5734575635416252 -0.121697511712513 0.834607339846911
Ni 4.611789639689103 9.19708891598402 9.279890599829999 -0.06188696731278374 0.543636880635767 -0.7525927485463167
Ni 0.12853286235792574 5.751835470708844 6.050752015801929 0.4929115863667575 -1.134033643134892 0.4094198963000046
Ni 9.087164263050859 6.050638109122088 10.471261274581597 1.2747125810459143 0.7435036417608549 -1.2721337645751447
Ni 2.2870860970081677 6.41677748149362 10.951686701933383 -0.17123855586543413 -2.601989823562422 3.009093155914108
P 6.78781201696571 7.062553045984662 13.482872931083552 0.12268507243676292 -0.5405037343234239 -0.8331186711165265
P 0.4379382357714805 2.3177185214874436 7.419321005151176 -0.21962491758862177 -2.2384594907056803 -2.6945695919733725
P 0.11890162895757318 7.770779595108623 5.364854941436677 0.010707616225491236 1.4639683994243755 0.5941649712923057
P 1.2129461061173172 1.7161218039789583 3.19371548935288 0.7400259676248997 -0.019772554641236915 -0.8302490628782154
P 6.0778156781053925 5.820207719938401 3.8345168150317375 0.980952217794459 -1.4640144221709626 -0.1757701251872005
P 3.7633260815092804 3.5041271953346076 2.6210877822469993 0.3862267460129929 -0.19088872599619386 -0.40484821776892216
P 6.328523339055632 1.0332183101252042 4.6981920925465515 0.10137062722970286 -0.59491316231224 1.2470819638128394
P 0.6710138957845087 7.784250707410357 1.6945435484806806 -0.3951253340542034 -0.7762906063838889 -1.005493654579249
Ni 7.842634941159734 8.403281736576991 4.185635567704702 -0.9338118126632304 0.8611622075173039 -0.45447333699521725
Ni 6.123284212289444 4.695798169514874 7.562860366544879 0.1960849254851526 -0.9145210827544185 1.2244439146983492
Ni 4.01417494908742 1.4652164537496584 3.414605017378071 0.09588929240015744 0.8538610458702005 0.6597923794841283
Ni 7.708996988514435 7.906931025730556 11.38544616289652 1.0202934385962428 0.2681974271806865 0.8531804748634081
Ni 1.7422356163654094 8.72069540854756 13.630697442945284 -0.3242017104604481 -0.7423810981206375 -0.12530245545495194
Ni 1.4478009696418954 4.488798666787523 9.48310199941953 1.1821397546134997 0.619906599032784 0.07191889762748906
Ni 6.906331446650432 4.058598554225005 9.888836651631959 0.22340675322855716 -0.810629488875075 0.39494612816386176
Ni 3.361800328185814 2.8829498254238812 9.60748997655981 0.7152091656915359 -0.2707847282918885 -0.6660033933908466
Ni 0.5724686143051121 5.95912680046719 12.999306126949733 0.18114013124986225 -0.12368857400061278 -0.7348325963494183
Ni 6.497773603257507 1.131931156803043 12.349948620997607 1.806539870641263 -0.2973568223534621 1.056827786076851
Ni 9.277529625011498 8.801399703280453 9.603384629197974 0.6660774411618915 0.4374719173412143 1.7865644559606004
Ni 6.705112001891819 6.385890885084121 9.960344629378433 -0.8678864136150151 -0.06650955368645965 0.012135092700637165
Ni 1.6138128951772464 5.658017787131565 1.3570775939706827 -0.5083505466296471 0.389610060662929 0.8059320833994056
Ni 6.066848630005098 4.311452555919336 0.21271554702477435 -0.22027206425431745 0.7597136758618142 -1.5973711153889587
Ni 4.395799981652069 7.644559697315712 1.9140275998694989 -1.1988616953538707 -1.2481574562652054 -0.3780025583309877
Ni 5.6381170663727485 2.041518357313517 6.715389020270439 0.8760794909487686 0.06488795892263663 -0.13854312251494205
Ni 8.1261778499845 2.6933187379283265 5.853505184174925 0.20189793262250388 -0.21158122134853885 0.29259411085749615
Ni 3.78985410000424 2.7326589044614837 5.4826156208408126 -0.634512778981733 0.7318190063340752 0.08683155307326336
Ni 1.8877537533047604 1.264505352851489 11.73296885344561 -1.4276901338186314 0.6272596969637456 -0.08077172003242865
Ni 3.147665183861877 6.0524455539592195 3.636127151096257 0.37011698493532386 0.4769082689599658 -0.04925462326075388
Ni 7.4599649795486185 2.7155258336095223 1.0970465300689147 1.1373375106971444 0.4101256641177775 -0.4603663054408845
Ni 5.885887629462651 4.185383278529519 2.5863810758640264 0.13303170577840961 -0.9956617560904917 -0.4812678314802421
Ni 8.872897325874215 0.23564562064082242 1.930822716192018 -0.40877069275177985 -0.04667040747334543 0.6584448643172982
Ni 4.401024626884398 0.2166448567904934 5.468671937024371 -0.9348765064823191 0.06705437044633614 0.38410224347082234
P 3.535164412147199 1.2285918004887237 12.971171177029262 0.5348143972481305 -0.9900734633694367 2.109729497626418
P 3.5796539137111383 8.395816612848638 3.836308256451039 -0.3601832707613796 0.0324375517034151 -0.6928063725163035
P 0.07603788636953161 3.8889905665657816 10.936185979699953 -1.4331380443070802 -1.0924558196931056 0.4068022561714994
P 2.7263046062059484 5.302261808798339 13.219726848970293 0.25322049415588 -0.4690982859972438 0.11751895485479116
P 8.406774247173738 4.411850468356791 4.370605895102012 -0.24264091886782083 -0.6785118102705023 1.721759029449441
P 6.982131164507571 8.717560621408163 9.134422355899174 -1.7743090356320153 3.251753872276271 2.9374354823678055
P 4.092488144921193 4.251025532952996 8.1135407981649 0.11889089550165331 0.06977459759097661 -0.32678386936532755
P 6.356331630976892 3.304178610227102 11.884775392214145 0.06738450009224524 0.8892458531273975 0.6640244152876047
Ni 2.4231057347773928 7.428899521410447 5.971541687192227 -0.9868235889735714 1.4701431607765199 -4.220931466033305
Ni 8.058765805824669 7.455568746533308 8.168652803657055 1.765657016383972 -3.0870870560910832 -3.412601314715368
Ni 8.545072018539763 2.599416330374307 12.698532244010993 0.22325814346583484 1.9341277796962821 0.8924887855447274
Ni 9.32678249682329 3.7621493596101074 2.582399048957224 0.3959113202906085 -0.9293977427559348 0.4455582938937746
Ni 8.438686945079315 6.2845610089025215 3.2402025940128554 0.4271574227890837 -0.5531278508453378 1.3611160454428235
Ni 5.643059298349276 6.878711430233039 7.944167213507991 -1.719283571325755 0.00359260244726478 0.10317811275208683
Ni 3.7553149588197092 4.279831685044755 11.6399673441776 -1.3239376366203135 -1.5615967860028268 -0.18864055339196545
Ni 1.583396987527418 0.8073413640025575 5.65103747282567 0.5339044838393515 0.3089224157038744 0.19774740078924008
Ni 0.649653098493198 1.291155750423963 0.2150228633246731 0.516914119928942 1.5915527089349686 0.24027781795228298
Ni 5.547707169415476 7.562415094978231 4.503039825900077 -1.5346493108797055 3.17266185393911 -0.2202836342185432
Ni 6.267493834476914 4.261107686185111 5.397894468232903 0.42685300417478744 -0.7070448847131888 -1.6832341339013657
Ni 1.2999105613538113 3.2450130331366753 4.866021818071746 -0.7749875713017492 0.036806370195072095 -0.09317086502772987
Ni 1.2449058728988607 1.8832445549871288 9.398491929358903 -3.8590098724245796 2.8425170385213496 -1.0963309863777957
Ni 8.811453615186988 3.799032530817791 8.363073619971004 -0.9335852984747212 1.7289180090917258 0.49197159105099136
Ni 5.3084184177748135 5.743796106693694 11.95423022559094 1.3836869887648042 1.7086232633984315 0.38301003884790813
Ni 1.3891719777374913 8.639784010760412 3.528066425651387 0.12871996577693315 0.26725203254828167 0.8334043206777454
Ni 2.8012570842956825 2.8869036110051027 0.3479124208420976 -0.9721639300788676 1.663809706628167 0.2452295055306035
Ni 2.41236461728174 7.843340974299237 9.429436891174598 -0.34607279950192654 1.9585807705323237 -2.5608858544332604
Ni 4.750398065636509 1.9430785101162862 11.357435474808602 -1.8141629344041594 0.3371289600450775 -1.5083140154192862
Ni 2.5092229502464822 6.190620946247729 7.73795187825425 0.2659806220350258 -2.4190509485409244 1.3212742308555374
Ni 8.22430704260035 1.3851240544043355 8.6356165324823 0.2538007921393822 -0.6105120451917615 -1.8408332446064941
Ni 8.470938538891852 0.09218439358122618 6.446621031611689 -0.2616994781611687 -0.049296275131966716 0.24508115287819726
Ni 3.694878522078175 7.223123809458236 13.253896028789724 -0.14443017742333833 -1.8537784919132527 0.9431611150886144
Ni 5.636855620496835 9.308218532141934 2.5712936183615875 1.1773047951187015 1.6805095358813509 1.0543962938172229
P 4.346170558832541 7.032579585768923 10.125322922397551 0.9645750619880161 -0.9997474961240912 0.6729289168660862
P 2.5506623886477646 0.5794875250893002 9.781672117585499 3.18119585955205 -2.5828117079720747 0.3737067591691112
P 0.6469155726669616 7.913059393381449 11.903375129241233 -0.6287157126839817 -0.05130559225251164 -1.0890979589644663
P 3.6826500281019676 8.20695745491894 7.429475644452282 1.1885132622400112 0.9638104159078498 0.21786654013661833
P 6.718874941224549 0.7366561502079849 0.9151328554768973 1.1224361681052797 -0.8070960218005198 -0.19200304210629512
P 0.36068973791207953 6.080639810663408 8.362798737735357 0.6305432528110239 0.10839539528696815 -0.27515508944544226
P 2.32187941012292 5.175091119710896 5.44445029345179 0.5230210041576283 -0.6430902362380989 0.1941789667116914
P 0.3100925790026719 3.8988279616428687 0.5124322630092969 -0.034295687958076415 -0.7067810895288408 -1.0871925144116372
