# total energy = -381164.6827046576 ev
CRYSTAL
PRIMVEC
9.27456825468511 0.00000000000000 0.00000000000000

0.00000000000000 9.27456825468511 0.00000000000000

0.00000000000000 0.00000000000000 13.57426812845555

PRIMCOORD
 96 1
Ni 6.6150858039018505 1.1837687930835143 7.744242229305455 0.23585577762518736 0.13290700727508725 -1.3131405460048096
Ni 4.593712203076333 3.6187788632651046 13.141031877444835 -0.24572290022725427 -0.22340803878013782 0.8824378290666285
Ni 9.189780146488019 3.3755811346287015 0.76806780483512 -0.28656050306890646 0.5297840339130747 0.6249089373433819
Ni 0.9999468503799255 6.2363680840048605 0.4940024581509834 0.9615465595743377 -0.5343806521448216 0.23770928589415838
Ni 8.68137613875933 0.40645238879006834 6.727977703547492 0.29011145364495844 -0.5704342033342692 0.8689369663667165
Ni 4.548980960409359 6.790625557158703 5.5189310747001725 2.5005785729027705 -0.5459087073890793 0.9013043269538284
Ni 2.944564124373208 1.057254407593118 12.731509606564206 1.4655097757695665 -0.555329743592663 -1.2439904693717092
Ni 6.064909140777754 6.689959393379453 10.154082048714931 0.21600377589626668 0.22843274568823882 0.7520119363421823
Ni 1.269632745936684 1.0883984077746847 5.29666604660272 -1.9334536364473929 -0.10130249299592875 0.4569228269769744
Ni 7.534863286333753 8.902964123374575 1.6257223742187288 -2.4990911897239667 0.1711053727216795 2.178231399152558
Ni 0.08818352237235078 0.9285234002911094 1.9438623241377793 0.9091667604210405 1.9752523176507335 0.529920559490939
Ni 0.3322159621512018 5.596645464432573 6.395298940440644 -0.4487426051590272 0.056303559687735295 0.22446501928974244
Ni 2.1308506044417217 4.011399160967981 0.908250121554693 0.7414662996158521 0.46881160799476035 1.0742678359301692
Ni 5.877330997933149 6.229532727205035 0.7053689410985373 -0.9986010412244737 0.040222852075788795 -0.4877981763995921
Ni 4.22195968393466 9.187943781974633 6.945803923280771 0.6208836182340727 -0.03279879169757577 -1.1113452003984408
Ni 6.3348547242454964 8.061649488332801 6.763229410006729 1.4256530487839447 0.22462442768574217 -0.7696823570387519
Ni 2.5438935014298307 2.8608704204904036 3.252964850173538 0.23590694257809697 -0.49039910435754897 -0.04670640291760343
Ni 2.2245237437609067 2.1116800718701616 10.071781384983192 0.3983530969628817 0.37988537717599735 0.8398125381969342
Ni 2.6164855471180744 5.751456557651963 2.452775505663362 -1.4538002006421222 1.307571022336832 -0.6445987024628254
Ni 4.605064274613628 2.482755547529626 10.679691308003129 -0.943914448314871 -0.11183655975803321 -0.02907197766529187
Ni 7.541800663384322 6.167356021660894 8.280208398957782 -0.012687622769997504 -0.3089812939662679 -0.5142663978934497
Ni 1.5602142437593955 6.117876200050216 9.838765277371007 -1.7944181476770642 -0.15590552505278954 -3.085206808349235
Ni 3.605581152646174 4.981287135651523 11.633582507370065 -1.256010890871353 1.1568262155493754 0.49872973571043144
Ni 4.913638434840222 9.165508601379276 3.3623055176364756 -0.5987520764423558 0.1185527954359442 -1.3281527031429257
P 3.316780371927352 9.2013919059363 10.777507396959331 0.6784159081225865 -0.40232468001612 -0.5651819537963945
Ni 3.674250055964911 7.873385027437737 1.5552987225872006 -1.6187367255489284 -0.3812238934817628 -0.06429531964396024
P 8.363981864127533 7.046334678363579 1.2348141618146955 -1.001452908850972 -2.6988671909074617 -1.009998484428138
Ni 5.577827365454492 2.0654370745785324 4.055380091063576 -0.11308920121821169 0.8077408544733702 -0.3389107345358486
P 1.473830915084258 4.243402485727329 10.71397938682125 -0.5511979808124765 -1.34849989934071 0.0214100902446599
P 9.24356336776643 2.1426014824137423 3.903620330798247 0.6912202589761063 0.6721228760250231 0.05499049730326658
P 3.2465533411427114 5.867982233137729 0.22916066959089923 0.029584398525336147 0.24979038542840853 -0.3145258779335809
Ni 0.5783639309477464 7.7245467561709775 2.5905538542926845 0.7757244494677736 1.188014725337038 -0.4505467482473015
Ni 6.907893198104423 3.7710672739206506 7.249201946967361 0.7555921974942729 0.03995211491290539 0.07651165920449403
Ni 5.216824070913901 2.224022917075438 6.415036149132244 -0.20744740168582337 0.14313254165783737 -1.1878915694956123
Ni -0.04344671496442793 2.163515633816194 10.930733466464895 -0.3797372816339073 0.8059097148019024 -0.372418636485307
Ni 1.6681794927509432 4.357665166560237 8.192994068967497 -0.015530234425115188 -1.4551793403778357 0.20449834635982844
Ni 8.403129816708352 3.931276165861205 12.234216531598326 0.7553286594202411 1.4774574350497458 0.23351504530715267
Ni 3.366890864178991 1.1197186247529904 5.149832936991485 2.7922020923168813 -0.30843493454449467 -0.926114958239605
Ni 7.0756330394635105 5.375743797867786 2.4374362972356396 1.138722049749497 0.6673563078743152 -1.3382180577987275
Ni 5.236699470672417 9.06445290573355 0.4461790744296522 -1.154470313722689 -0.3095320242634153 0.9836652458502477
Ni 2.2019772683465564 0.48000713466260225 3.0837753937970662 0.6156887042966944 -0.2647467496279247 -0.5912578249478397
Ni 8.73792318137607 6.863291799392942 12.511294258049878 -1.0238510740405142 -0.06947197874889326 -1.0780512142320013
Ni 4.6570111313786535 4.481981479375519 7.009385725914699 0.8906609883073693 1.4684596024265097 0.7593470365510148
Ni 2.636592811082826 5.685913183833281 5.936705856409138 -1.1708623819274673 -0.13204928726048223 -3.4953496988581927
Ni 0.10812291665178797 5.062291214741994 2.4881765326714147 0.5649531256150399 0.14261626414305115 -0.5793628732824667
Ni 8.657874382815288 7.552939419851881 5.709146904754914 -0.32194531032610363 0.26295906159988264 -0.4442184920364285
Ni 8.728333277806165 3.4096095255358394 8.745059034187177 -0.10437264728082025 0.2413003456795264 0.6020222625531954
Ni 6.831405833751421 4.399131761203412 10.240631392161735 -2.5363271912572896 -1.6809173128427308 -0.6041655341484433
Ni 3.6961287624653028 2.374892318788822 8.224187224360787 0.025822103269426498 -0.37311566255233164 0.17368058964802346
Ni 1.771423986503534 8.061213583625078 6.178477156448779 -0.04067330934964608 0.20896718076445947 -0.2207407763606198
Ni 0.46246892610294094 1.633158723041117 13.127389915006756 0.6034780211631156 -0.3427177669867646 0.07887450300971577
Ni 7.64059336437719 2.1102796120644984 5.488293465945024 -0.778926244234523 -1.1541196152514899 -0.20910627744548502
Ni 2.5898860853787258 8.576592066677334 8.334179893971658 -0.8453452950897054 -0.11173885783790435 1.6185050691540963
Ni 4.907146237065626 9.204294845798369 9.226606674636008 -0.7004996273955032 0.023244829460553517 0.31415152531329765
Ni 8.684167783802407 0.02195939524416181 4.079922453565203 -0.3558841291653936 0.10799456030412367 0.03537863660961004
Ni 7.729684866981159 3.0058226476606555 2.6357970531270256 -0.18916762954002905 -0.6846297502427822 0.39718658745860624
P 8.84713122251304 7.836490794941529 10.109192210930894 0.35117309684296943 -0.11916343243674961 0.5020731982613676
Ni 6.30499061448235 7.457151678971827 12.343909632654743 0.9944847050632549 -0.17623575196970936 0.00422509382494111
P 0.6022552187582634 6.356854000133131 4.110343037423314 0.45831713622133974 -0.7687094516025212 2.7573708435703095
Ni 6.772651443891319 7.729063470908447 3.5204999733532554 1.3196485223266563 -0.1117465711473882 1.558004183555562
P 1.7706078244975847 2.1250632738540807 7.220071455552744 0.8351981793533745 -1.3231902169313279 1.263543194692656
P 6.337711291266319 4.983234794983902 12.338765029646787 0.10393607396403391 0.20901320351104652 0.5646330232714599
P 2.979881680267016 5.946166843480375 7.788005207047188 1.3896501483267745 1.9332795727633736 4.169362849927394
Ni 7.07131109065928 5.769430670919347 5.947999498166461 -1.355094521839092 0.344698030641587 -0.1638594897925436
Ni 6.733679708107239 3.480393030415445 0.5957926996020646 0.4415568860438654 -0.05888803258545987 -0.7540726755259529
Ni 3.626736442823111 6.847005657546954 9.818647811381181 0.4553727088810351 3.887308205148641 1.773654432767152
Ni 1.3608852229427693 4.2294257113754465 4.503616264730951 -0.33598919001367944 1.0031513795993177 -0.06503142647903638
Ni 9.010929372366123 8.89126889281205 0.07347220221511402 3.0353312636750305 -2.0940259708482323 0.4047327752369804
Ni 4.225131586275963 4.850348781106152 9.527344752148663 1.1974177638184926 -3.513109079724143 -2.012991226962404
Ni 0.3462456015421059 7.486468589208258 8.020464840564408 -0.5254977478328949 0.4363223771178034 0.5549911293063216
Ni 3.822383460044715 4.802083927936148 3.9226378329936913 0.8381590617539114 -1.7787444456955495 2.9283736292758533
Ni 5.477235398221236 0.26588981477226914 11.625940263132536 -0.8425358506653684 0.2506887288729618 -0.5971561927101458
Ni 3.570152301933373 2.124720114828852 1.3746523920522147 0.5029293756140758 -1.3932005846821942 -0.7869755969015607
Ni 5.121982335995289 6.671094921560123 8.053070512702083 -0.3894521949288261 0.059075466005917614 -0.9406141802970446
Ni 3.168786086371289 3.364609320389633 5.896363339437793 -1.60756733919567 -1.3750005167343997 -0.9870457322867067
Ni 0.4767174453045315 1.2201065514847587 8.862978677280832 -0.42997046675784656 -1.01827666527653 -1.4917049461076954
Ni 1.1775826560611484 9.225348115724561 11.101918809928643 -0.5096353268793417 -0.49143165938712136 -0.2533966147224281
Ni 2.059881608197127 3.1215785339817193 12.474304497500698 0.12760307856367056 0.9223302943861922 -1.5585340879171028
Ni 8.273109644419673 4.233525070541692 4.703157673160488 -0.7705027960575183 0.5453942296465059 -1.0980320282293023
Ni 7.028852117213415 1.2973544304342133 9.883315665957115 0.3892017694809168 1.4635377396448601 1.82289748606368
Ni 4.929331004318248 6.522776026115331 3.055133672129194 -0.07621778211315905 0.494154200524607 -0.6610635328870679
Ni 5.113765068526298 3.766179576453204 2.2590974792811105 0.0021522704563124223 0.06485659146406894 -0.05845171637898965
Ni 3.9422572546685237 7.655766558033248 12.576328458071666 -0.4443419049881702 -0.03738486840636142 -0.3968623713499681
Ni 8.496496895275307 5.612681192935827 10.40794831320865 2.9692071183524478 2.0080451958110386 0.25283302890947423
Ni 3.178802620080667 7.900290549929318 4.294205788227201 -1.5907438398804281 0.049986873441088105 -1.3246431473277702
Ni 6.884493462411126 0.930786394943969 13.359889429167447 0.23399687003957764 3.021124633157345 2.482695521974763
Ni 8.109394965680837 0.32066355993971896 11.87413141931443 0.478198448526299 -1.40146591001478 -5.228699004248394
Ni 1.7973371301924252 6.875320914412446 11.760216534790878 0.2670777117539465 0.8772961369646892 2.5693157303681686
P 2.0834390115506647 0.30561928278232786 0.8548193338697598 -0.6379673131892367 -0.3231341884278822 1.6937473747278637
Ni 6.5215425085381575 2.6853492163700494 11.898470668771393 -0.09929240454443544 -0.9155685501823265 -0.002937742472085263
P 6.119202463309884 4.80751882493031 4.098451186013903 -1.3899170288349159 -0.40581983765357205 1.9350649467985706
Ni 7.110403395830602 8.546088011704978 8.901231634025581 1.7548092750361908 -1.6116625923109662 0.561824093067755
P 5.719023392483726 3.059522397824822 8.952732384057809 0.11282283493070246 -0.43971031975342983 -1.0129485681953974
P 5.973053816835456 0.12772657156059603 5.190528815013134 0.32233894622009646 0.9878165490144601 -0.002913316992053047
P 6.278613742380988 1.3736655779904758 1.9820197528295607 -1.2622758979444584 0.9383593228245969 -0.0722492843837143
Ni 0.2810732104534016 3.235516604925896 6.404516006366922 -1.0507386424599774 -0.08901493387782734 0.41175857173551017
