# total energy = -340892.0719995447 ev
CRYSTAL
PRIMVEC
9.09986933409638 0.00000000000000 0.00000000000000

0.00000000000000 9.09986933409638 0.00000000000000

0.00000000000000 0.00000000000000 13.31857859933578

PRIMCOORD
 96 1
Ni 6.328586066168775 2.082086515932183 11.460064294357384 0.525799852454346 -0.7592411071007698 0.4866627772435684
Ni 4.644191142192082 0.40423166808615524 5.827370720083763 -0.27801184216794705 -0.9094644941671176 0.4686072052934381
Ni 2.883612111681482 1.9445146904926682 4.924012125937622 0.5394907196778774 -1.7185384656296148 0.3873552031904812
Ni 3.6221120120349566 4.421872233122577 5.030773613596141 -1.0511407629944025 0.7830587783456578 -0.12007565983837386
Ni 5.135265593828768 4.959183121130355 2.654992453046272 -0.35596743290781924 -0.5006392940283184 0.2987691293199564
Ni 7.354760137551445 6.188156881740769 2.7573987432146887 -0.4566119806047749 0.2958763811531937 -0.561700165895381
Ni 4.893891558256395 4.6760315851880385 11.321004640272585 0.7417416647644257 -0.49150853537164385 0.5173625203202703
Ni 5.51740550899658 7.994881349928559 12.554038762604863 -0.42363012636211556 -0.8083409499512144 -0.009958910984924784
Ni 2.0767175929920247 5.98492949865169 0.4729111123340485 -0.7069669802874018 0.5250784009072893 -0.3899674440023478
Ni 2.768971957105016 1.4858266740153445 0.20822958129281555 0.003168884646284865 0.292891844603573 0.43815557367180025
Ni 0.8206462413117749 8.81866522620604 4.391334891423282 -0.09613431853142798 1.7784734514223497 0.29770083595644214
Ni 8.669818662592192 2.458575412208744 1.2972509906312644 0.3201216268538035 -0.6021994115610081 0.5122609374276468
Ni 6.913352773045918 0.4831066059987153 4.764934579168487 0.35692773993855953 1.2473431878940258 0.11584388114521339
Ni 0.9485521854851265 7.329844695161354 2.4175750406847145 -0.17483861451186664 0.007713566594173813 -0.093001172219085
Ni 7.884772930308363 3.8163851236441775 3.7486739054993907 0.3478059801429494 0.40035367233267827 0.20671900816023106
Ni 7.641615320335531 3.7900683013680116 12.706363296299605 0.1300538540970083 -0.02737402113757866 0.4995473465157203
Ni 8.358867025663125 8.77803430937925 6.676270235877915 -0.7920771797941842 0.18286611280203344 0.3989591059779967
Ni 6.7585184953733854 0.6481045277930491 0.35328968925344273 1.0530456933265995 -0.3906606134146304 0.416300939690554
Ni 1.4216088957294166 6.726077460997684 9.469881909330503 0.18849605739430117 -0.6738694264024846 -0.3225454058039477
Ni -0.10854870200673344 4.978001651029079 1.4719830427121872 0.7721339039030379 -0.46420136291625863 -0.5887576842338054
Ni 6.518318342952336 1.8896697776785425 6.796963623572675 -0.6765868253336478 0.16178460954138588 0.39575602565966683
Ni 3.6140859272328894 3.7522765437909307 0.010171834004252523 -0.09166959789185503 1.7850865858634937 -0.40209790871729456
Ni 5.8328069820574076 5.65271146695796 5.040403095384743 0.29454352127438305 0.4353965228694244 -1.1091620767041928
Ni 5.2187477956135355 2.9176092237228914 9.311471382987662 0.21915903369579678 -0.2778146385554764 -0.7938327290327103
P 0.13545155587162178 5.630070991915394 12.448156322329428 0.38063536796814446 0.05042498941977123 2.127476280086878
P 3.862739858317341 6.085392056718382 12.55763503098783 0.373000477130706 0.3007720186825981 1.2076494688488297
P 2.402438317941224 8.574279133865545 1.3987036144875988 0.7452735891770842 0.3142757095959878 0.6956728954308212
P 6.338777919885684 7.598654836944874 5.866767694621256 0.2002197735891326 1.4008419032775357 -0.034587508166882365
P 4.727964539797332 0.9829951911266508 12.702181906314856 -0.015834910149727568 0.7434627612205905 -0.7436892754090999
P 4.108973224144027 6.235894796561227 8.288311188346993 -0.6080880091313011 0.18732337724243867 -0.2808022604288906
P 4.797269145072325 1.1701249052646443 3.709756494078755 0.8506744206121026 -0.8234196986612077 0.7148489541386399
P 0.3701763168806492 5.56982985655294 3.594591277038481 -0.3482345830399357 -0.32372605637561025 0.9026451572524391
Ni 1.9197357461434292 1.3876936825125181 2.6979975257969406 -1.2080744722013903 -0.6703999797966455 -1.091926429552197
Ni 1.9509664978902486 6.652741613582876 4.756703747305143 0.1054892773837667 -0.5177181038874761 0.5989389956421813
Ni 5.878461026787533 5.62606704938375 9.34258383643241 0.9736407717347104 -0.016231374257197853 0.12024920930176064
Ni 8.722597905054766 2.190602458409112 10.085786549286688 -0.7781189178418793 0.37217541012624933 0.528503110318122
Ni 2.5610763410188175 5.136566875151552 7.2176305657642885 -1.0263596993949808 0.05549546196414313 -0.4771453246714364
Ni 0.35740556017858444 0.018677481923177943 9.20668092703904 0.9900549514266757 -0.7696602455515649 0.6056408331423891
Ni 1.373789082084447 1.3000073410695252 11.510355632528702 0.29132398589582087 -0.41638347210203125 -0.18435812396652765
Ni 4.149531342015697 6.924136118273186 1.5264821604894891 -0.5708064990720234 1.5094848957989357 0.43987872701049396
Ni 5.860952878080983 7.835952131030483 8.0212209218782 -1.2572180238055766 0.5098106761149414 -0.01814324656793004
Ni 5.44745481299489 3.0816798688263742 4.54287410638966 0.5028789819921146 -0.35517116225876894 0.8262365992847126
Ni 1.0997192157934492 7.44000771399789 7.26124896971185 -0.7572724134101733 -1.0385598410055985 -1.4622653006903397
Ni 5.1976906978448465 4.515546288624255 7.155272800781697 -0.523334421632989 -0.21553840622407394 0.3099061197733824
Ni 7.980712853288175 7.188915017916892 9.116780587373436 0.004346707004469933 0.4554233596133125 0.71604503132927
Ni 5.024310886355292 0.30680118650024457 10.484265279944422 -1.0981464423199798 -0.42922433262044146 -0.5379681123857638
Ni 8.164393716927322 7.415565464816085 4.675513802619741 -0.19102833689785165 -1.8866855270539185 0.5836905541235431
Ni 7.30468355629773 5.966738859740882 7.053559010673866 -0.3464322397238743 0.28546495601188254 0.11337742188259184
Ni 2.4823533709250722 5.212505285211927 2.6158884943031393 -0.050234470675519935 -0.5794209802139118 0.9695406335234076
Ni 2.073177743799276 5.5018902316864615 11.454550683493922 0.11976018548048407 -0.8167821387400321 -0.3640149858026441
Ni 1.269313481616722 3.2943893158199358 3.9630895780035957 -1.063756137765568 1.4084803936594001 -0.17530475551500777
Ni 3.817850202615983 2.8644750863541044 2.845181543273217 0.3199030830850942 0.8003648737242732 -1.019007629905284
Ni 1.173792152628854 3.2744242023780585 8.357900619533897 -0.9146416674926827 0.9814355851887807 -0.08536910959512395
Ni 3.680706071037803 2.6233649469940445 7.1831220410631555 -0.03341431379438761 0.6478526906237488 -0.044204462431356124
Ni 4.024508236465128 6.976642364654055 6.217938024293744 -0.03816468399517944 0.45551849043028003 -0.3009329697404946
Ni 0.5056260527783929 7.541107262921889 11.576135858388911 0.38866852268526614 0.8805825210254448 -0.08122243441660205
P -0.1607091533507802 5.365992782214725 8.412414297102222 1.3429987670168224 0.6965478418366068 -0.943802605327355
P 8.504046341912762 1.5082032528455975 7.923875069077618 0.3790032316813602 1.3632714012229294 -0.7854969554735052
P 1.8317855084881236 3.222564046723885 10.53186578673709 -0.18228890014232474 0.06512707151663621 0.37859134095492214
P 4.0181019284145 6.463291432750407 3.883124475738102 -0.6396740114676983 -1.0028438756612277 -0.321736279639091
P 6.899684769221989 3.8986479429306713 10.592931370266289 -0.47213630149261915 0.8207272394307091 -0.9563038231181594
P 6.171777116838591 7.534045764275173 10.446147747043177 0.7529874128815741 -0.17516771571651124 -0.40363825662122094
P 2.3892708069337507 8.733435849498374 5.832006193551079 0.5372528314862941 -0.4504585594088693 0.7134353616205649
P 6.929714338209316 4.136482129310296 1.7434285066710804 0.5917805302205292 0.1095423644072178 -0.5676687247739901
Ni 5.6487621236426575 2.847795025762053 0.5694334269548273 -0.5006675761630925 -0.0707780991548265 -0.578337774452062
Ni 1.3716324130389936 1.1343260190839952 7.116769433418311 0.7491027331151873 0.023069223114637688 -0.8082139374550469
Ni 6.968725478284669 0.7111748125488854 9.012096599896678 -1.4407446530097445 -0.2153178055728356 0.48565901856940236
Ni 2.7282500415843245 1.482286824822596 9.17805910784636 0.3990411241688418 0.13844542059481318 1.094534042378373
Ni 6.585721075524798 2.080694235915498 2.622507739297497 0.03438747634093433 -1.1364669351667331 0.21024013393961213
Ni 3.94087133690073 6.940552282652924 10.461543816064285 -0.26896824390844 0.7840715358808883 -0.11725156012601742
Ni 8.448027545947314 7.391059516548549 0.5201066749388573 -1.0497086585335664 -0.8588988654044241 0.014002742036995239
Ni 7.411552422415051 3.74299467701303 8.23953861837688 0.7459353911307992 -0.38232406852447703 0.4265776390262137
Ni 2.984074669748174 8.310173624556706 12.596418674328431 0.046049228949578754 -0.6691324259381315 -0.5558388220185976
Ni -0.11642372897692502 4.618738807507976 10.512353846790841 0.3000030017270575 -0.08558456804003971 -0.5052395118044911
Ni 8.642236958470804 2.227356830875722 5.682238723154953 0.55088096379269 0.3420274257879593 -0.3375362227858251
Ni 3.8763168634473684 2.484792135921619 11.209462081236511 -1.212678289521989 -0.4136311061678748 0.7462202693610697
Ni 0.999402255636999 3.569278170356043 12.837884618581644 0.7928775642082925 -0.3466847220543126 -0.20448034863769943
Ni 2.8989089921262385 8.406732338655045 8.270731150672262 1.9005139482965785 -0.47316062899207545 -0.46950554873799144
Ni 5.595172992804366 8.040235098968813 3.6239984149595244 0.03694006755945896 -0.7383758336159865 -0.7082841564369284
Ni 3.2167219305754418 8.649161959076668 3.6631151135198032 0.11639229744951568 -0.4118691291714455 -0.14816316210320934
Ni 3.214774558525961 4.600930363111552 9.548714987843868 0.4992601542926047 -0.5562581689442033 -0.6671308221270704
Ni 7.230519620768424 6.058119748156256 11.897739802426031 -0.3440963925018461 0.6825723534931212 -1.8182021374705397
Ni 0.7045391877896253 0.13870566916552113 0.21579703267762176 -0.2892897290746115 -0.03485258890281095 0.5734166830013608
Ni 4.683693675214501 0.5211831894877059 1.6068594868383546 -0.43608609273728116 -0.7906605019523157 0.29232954434219977
Ni 5.750671560942375 5.674869648922851 0.36339054427645245 0.5551888471394245 -0.7462930315805341 0.12922724443065486
Ni 7.691728301066806 8.983172665040248 11.193919504318222 0.18076269330578548 -0.15927881240039665 0.23105809912622788
Ni -0.031909602003320714 4.916058840090676 5.872773608418721 1.0187114388211036 -0.4542218831060435 -0.33560146765695753
Ni 8.079883229901473 8.771591601851059 2.7310810109515837 -0.7634649153741303 -0.4457899502886065 -1.873179779258
P 8.682694977779184 1.5265212899278668 3.470035904774563 0.5934504617237844 1.1602984903686921 0.6271931053918682
P 2.192968424450538 3.292150747949971 1.5046260941883496 -1.8133967456620963 0.09703291908629741 -0.02516981439740826
P 4.768659155709854 0.9653869438568096 8.047804370327496 0.5501335441037041 -0.06672346946947863 1.0475299057146927
P 8.396922679452517 1.499785873659756 12.528440830010515 0.44827774970746664 1.3852080533950208 -0.279139528014487
P 6.36034461034022 7.714013881203157 1.3430852127753146 0.20200823294812306 0.0488923548253287 0.6715335791804563
P 1.7767767980249758 3.307074533749734 6.166741249118109 -0.24936332519331889 0.3467451429786028 -0.19265507386799724
P 6.91081390948608 3.913389731342632 5.864982300246918 1.2684244340443573 -0.0931981187212395 0.6686593429564549
P 2.417262005177695 8.689610878515658 10.43394755215187 -0.7353622436006432 -0.05794649460779698 -0.3158908766019076
