# total energy = -340859.1970504901 ev
CRYSTAL
PRIMVEC
9.39316662805334 0.00000000000000 0.00000000000000
0.00000000000000 9.39316662805334 0.00000000000000
0.00000000000000 0.00000000000000 13.74784883598864
PRIMCOORD
 96 1
Ni 8.166841549350462 3.5013215570892733 13.125813452708107 -0.1526602786426145 0.17265369104540587 -1.2368134920072955
Ni 5.297604944775598 1.7106834624015392 4.689156956157451 -0.8894055186337134 0.3116061331836246 -0.10454979628863285
Ni -0.03166154594068124 4.4251676507504785 2.4248590532385497 2.123759493356923 -0.7641555136832517 -1.1158382031727878
Ni 0.7044057584778857 8.082772710186758 0.6300203345425461 0.6101109530986009 -0.5938502682653642 -0.4110900849135759
Ni 9.099789621240676 1.0998458522545367 13.419535886996506 -0.6583188802623953 1.3244528856938351 -0.1617370441329021
Ni 6.780241113633405 3.0960064274899635 6.32655399509093 -0.5800619562320203 1.350607689712332 -0.9722343783054869
Ni 6.624220619945235 1.230983848183528 12.413729720025483 0.5069230701545011 -0.9592261389712771 0.9968971711594897
Ni 1.9466773747086787 0.37116721251598866 2.15970405588295 0.3323245966778986 0.8271727379457369 -1.1012888446037035
Ni 6.218548550023218 3.8822989925798512 4.116697005917839 -1.7392854683689787 -0.859712619554971 -0.37829052188505174
Ni 3.9353328100008875 -0.006484102756950267 1.1953283278950917 1.467160423999112 1.0795391116314375 0.4714793846349106
Ni 2.8683912196000327 0.7714419690320317 5.080613408069373 0.15149016959391332 -0.26394173722812614 -0.321142354808834
Ni 2.3926273420981774 4.9516170540766185 5.328790257180458 -0.6394714085385891 -1.9376669031977922 -2.4035130008063255
Ni 3.743496172879063 4.48260686320702 3.4827428132924143 -0.14341382034368205 -0.910888628208154 -0.6651436164937125
Ni 7.072772494423934 5.706855811091065 12.247916850378859 -1.5900226454436874 -0.37869289952979296 0.8731746585971478
Ni 5.2314676602446895 6.285080347542382 0.6542312209050541 -0.3713819676906765 0.4263148722831303 -0.9733471517536912
Ni 7.112439836076261 4.94778464219072 1.4836675385270999 -0.884005944884697 -0.7955268289056815 -0.9365713776862385
Ni 8.8485693862202 9.319702432693262 7.216533966660423 -0.3577561493771258 0.008817341181313847 -0.7005063122637225
Ni 4.944684897283008 1.8587667304926894 7.8893815040278845 -0.3541239519411772 1.2088254914348022 0.22394308534800145
Ni 1.3641319817193385 0.9952529445352244 11.162977953180501 -2.5494696421765193 -0.8728458145028194 -0.6825178461061019
Ni 3.445610687247941 5.525952819643716 10.792858078716662 1.0996014295989514 1.2698647660353097 -1.3163860495253006
Ni 2.4748645138164154 6.018727721472439 13.078191038442625 0.5758301775388599 0.2337173911259459 -0.5511483585214636
Ni 4.996845150230053 8.245189950184479 10.934804791207181 0.8236955780304137 -1.3886489607557695 1.3602560114353737
Ni 5.028800702278646 0.07354285691042506 6.430075142525485 -0.11976404213522601 -0.7979506078558258 -1.8941694941357896
Ni 8.816576261506057 1.405311623159973 9.082185888114788 0.7929780943418989 1.127941157083909 0.0047241449485467026
P 8.918238501312624 5.885898955593787 0.8486040129513701 0.919244713482333 0.8619556499528768 0.017393512886099076
P 2.831692118526 7.743134599965394 5.266979465087404 -0.45900927719235785 1.58956421775003 -0.2499755048560211
P 1.102053246355483 9.184215400727087 8.777918685240333 -0.1023191071859012 0.24689300927595545 0.9560384852719147
P 6.582777969845765 9.591737924427342 7.803320374273497 1.8098722774486058 0.25394348836483366 0.22955966020383045
P 9.06457464045579 0.3262791489857642 1.7392950472163595 0.5165945318059942 -0.12963862093646059 -0.048974630126489845
P 1.3340456697817582 8.047041105250587 12.24166194088175 1.3213966153660146 1.152580552899144 0.804513348675008
P 5.801003517788026 3.152910229462446 2.02321571237992 -1.0370290061833687 2.5082420029852996 0.7628848745009442
P 1.5527937286023548 4.851645584219713 10.584853923609522 0.5961326365416378 -2.2592556015154255 1.307992940365599
Ni 8.522363503932255 7.546019003334072 2.486243395577634 0.5014144816314461 0.019274274848579707 -0.7837660888253276
Ni 5.672176240790239 3.3979215815011115 12.555593772651795 -1.4171768929921336 0.1458643387667036 0.8800209920950199
Ni 1.8017220310244018 1.2431479986547007 7.401291913593 -0.5266678568815962 1.2567297713152485 -0.8449213201784094
Ni 3.1254070382812924 8.610123857486052 7.499258881742917 -2.227663685641757 -0.48861784408741016 -1.3275392379286428
Ni 6.451048204434391 6.986759269818119 9.467854270899036 0.09401650085747679 -0.345269843984657 1.504911931716273
Ni 6.88906094622687 8.322476923216765 3.9070556219094446 -0.5281087030931807 0.3063361430339369 2.882380707485507
Ni 6.252852393668564 1.4150899093688463 1.1328008372067087 -0.2524409356773782 -1.9559196787603927 -0.8409620784203453
Ni 8.047961635556515 8.57156490946739 12.998824418372255 -1.3831321447025986 -1.44310723970465 0.2072476269701915
Ni 3.848117260097536 1.9340905317500907 2.6951417801248163 0.7846595471738744 -0.020836220019060887 0.12383872642523189
Ni 0.5895508164807693 0.0003606975892610317 3.763597548947256 -0.897324516370474 -0.2747336856373075 1.6634523232887481
Ni 3.055850641185512 3.529998894068803 7.6503338733283295 1.105068880471426 -0.856277368621177 -0.967650101368914
Ni 6.956644778381379 3.01435163208772 8.46776760294106 0.5397486013249543 -0.6668770542450515 2.2354204467690404
Ni 8.655821611958835 7.786812823664972 9.039787952993759 -0.12099071545347549 0.24592087517067326 -0.40040997949191043
Ni 1.2087784028446455 2.6547248637948067 4.518794036712961 3.235434309180641 -0.46742578339082724 -0.093109158551859
Ni 7.755843554087013 5.366419281726805 3.608549247980141 0.7136330794536677 2.43273821622003 2.0939766056675357
Ni 6.095338386524861 8.469883883328052 1.9288510235394187 -0.6177923809032586 -0.5878382577433297 -2.5854033799586507
Ni 0.49116209516007464 4.534926799982643 6.738356984713746 -0.7257452893361694 -0.8547007681626764 -1.1747912846682285
Ni 9.339042962284106 6.239654994894821 12.517594657349802 0.9736618547806328 -0.18619080629989226 1.5313657550324273
Ni 8.557869672875137 3.1730491781961865 4.392685142067572 -2.7926024130790936 -0.43097345410106425 0.5689776733934008
Ni 6.838281488738716 4.068997567687983 10.618109489886079 -0.601119548233268 -0.5689308793158654 -0.5982013461452085
Ni 7.843726018803841 5.312737335825065 8.451352105363126 0.15917031184699038 -1.6166690443866223 0.798189206229193
Ni 1.0716099940951966 3.0708233484064 0.2122601987970915 0.6860860230733345 1.0601051712765421 0.9581210788325565
Ni 2.1621566116265973 5.332491164736939 8.612861965487864 0.2781367977815855 2.788996698005706 0.7634240348338658
Ni 2.4790632591914066 3.097988385597622 11.658491902327674 0.39604424632404694 0.8297065601111839 1.0986102693302757
P 0.4853777832989563 4.999484629984801 4.383501443290997 -0.5572554998604661 0.009560647105241599 0.3888934942118786
P 8.651951627407389 8.466013898776604 5.164434267640459 -0.9442286371211802 -0.2630765610143534 0.4063767385983066
P 4.808521557336968 5.44800832496434 12.331325349945557 0.8367377559263525 -0.5190802743423254 1.4862799184373823
P 7.991640209900026 7.292751058041229 11.177578691012462 -0.2709119978983721 0.30507450271269393 -1.563115022419566
P 2.2493345888644005 3.227135030252567 2.2122625790848036 -1.592138920455742 0.8514053852408564 -0.15639094932964034
P 8.87498297010046 2.342355115594921 6.783230019177751 0.23674589353962452 0.3093337922096802 0.47216252674486425
P 5.918746858449147 1.757442644676055 10.518850022041308 -0.2876619636632014 0.9509376737102397 -1.1686088100066006
P 3.684525874301439 7.133593246779799 9.074611238740305 0.9836824722414284 -1.467334487683131 -0.34031172864843323
Ni 7.380689881756379 1.024024213178624 5.59690034468141 0.9008793236012679 -1.1774420920275144 -0.018341992842297445
Ni 5.352263779981587 7.0720492206121355 7.525971168314285 0.12670859177385918 0.6353015934316155 0.27649823373689797
Ni 0.8900626314336987 6.921411011263719 10.485868736223253 0.5037742401128743 -0.21929324528081584 -1.0038612611821485
Ni 5.332162403913394 4.871728173955132 8.193387576876779 0.4013024093991927 0.0587569063242343 -1.6440708334383427
Ni 3.63906294898833 8.289704165692502 13.068168529907688 -1.136112894261424 -1.3946352602461916 -1.6899935641123862
Ni 5.531607505808693 5.979699115134428 3.0533558161931236 -0.37629483161126165 1.5104860833699405 0.11409553099553899
Ni 2.1814595685518947 6.946425013352316 3.2363393939951948 0.09370951114001926 1.2137270425014774 2.3491994749654252
Ni 0.7820722154322064 6.93251373393316 5.410177347340673 -0.21840287225606256 -0.32031548803216453 0.7988571788304951
Ni 2.661328259764872 8.592614995340671 10.261600313517013 -0.5397799687835221 -0.21499127547135233 -0.06253565664037616
Ni 7.866992891944456 0.018374912086261207 10.68375551181495 -0.8649445573778717 0.5719935774015892 0.41093376184136965
Ni 4.223092462266817 8.555371090616193 3.5456385161031685 -0.3847663594173825 0.3455410953681727 -0.1880404579141213
Ni 1.9773084902967053 0.9841126492002353 13.244814538348447 1.6483188100814192 -1.319923630364914 1.4475989569274166
Ni 7.811685928257764 6.71220640949232 6.693909460687071 -0.5409331085513588 1.1742109866847261 -2.1589846351078044
Ni 0.9135652730506264 3.5408104285802473 8.779225274684766 -2.1277681002956843 -1.468793845837477 0.46088181162472236
Ni 1.8393980214026828 5.668550478564854 1.5438561307851184 -0.7782577574125886 -1.7025366908847193 -1.4993609199910563
Ni 8.97892774933907 4.759169861139639 10.531278120487956 -1.7021723655667653 -0.424504815657585 0.7791036503526518
Ni 4.840448929886402 7.221898403984042 5.394779129682454 1.5695528076251097 -1.0571427462141085 -1.8249903640369665
Ni 4.793285841457245 9.100728937879376 8.838698107664094 1.3101716931844727 0.6315058738346091 1.488532719027301
Ni 3.663062489107131 4.056852203549584 0.7238975180475619 0.6975914526097728 -0.5910169125816274 -0.6189864012113598
Ni 8.256283279687533 2.6746383765352597 1.5305892225801112 -0.4206520175703981 -1.7172907092654424 0.6339036846428243
Ni 4.691257268161586 3.5272654826501846 9.777194722939113 -1.199717872706579 -1.6420666585241201 1.322285188618555
Ni 3.1943716658946903 6.115233112932539 6.801156877227352 1.6969219158011035 2.3579972757627132 1.7345428114776709
Ni 3.949563457077202 0.8217705545336099 11.347543340202144 0.4847773872953974 2.37916851052369 0.7138238553082352
Ni 2.412709931833596 2.0969680369007753 9.58454651624145 1.9880165592949373 -0.3582757693260217 -1.1820700777178288
P 0.30714339042215555 6.37111235848097 7.7453316615833145 0.31064993991794243 0.2617115623460267 0.2715048942873647
P 3.465665097484199 7.228943278774296 1.5124284746874737 0.21803649005557932 0.2359161985494776 0.11188001140145894
P 3.3296708345331254 3.0061701841646373 5.5484391206575685 0.07203613993164368 -1.4935183451673504 -0.6084744459364424
P 7.17497014471456 1.2724640709485466 3.4336080992386244 -0.5913771241345234 0.2508972453393421 -0.5006212963061895
P 5.780526415064353 8.5350536717211 13.18689533508953 0.8283790995490121 0.28468873996749033 0.46532673476995345
P 8.98146390426356 2.4003297385355222 11.318342803854858 -0.3061271123469244 -0.2247794652063677 -0.16368362633631164
P 3.8963135968292644 1.844169749927282 13.530920993330263 1.0175338735732347 0.9487887456880368 -0.02447998741923526
P 5.919911611081136 5.2405790316400855 5.872915721013667 0.5180523472984432 0.9250199254032133 0.8074369500797062
