# total energy = -381166.72323912196 ev
CRYSTAL
PRIMVEC
9.29647550329368 0.00000000000000 0.00000000000000
0.00000000000000 9.29647550329368 0.00000000000000
0.00000000000000 0.00000000000000 13.60633160122073
PRIMCOORD
 96 1
Ni 3.366625694307519 2.6837995573248956 3.055369463198888 0.7886064476367645 -0.22510470975627037 -1.5936396733709843
Ni 3.105933923943098 6.886894241792871 9.845147142396762 -3.4071446624761705 -0.4929786921592671 -1.8226113222818288
Ni 0.5905837165744181 0.191832775175445 10.193034276535379 -0.5647152985726209 1.1894779401461257 -1.209561084049246
Ni 8.906023679092625 1.3238832088398158 3.3668051162876926 2.2333507087242053 0.24488600614825567 -1.3329454965458787
Ni 0.8142104384956843 2.8802526809017066 7.9390628490821475 0.4974143593331175 0.06810003810203111 0.13682793959604822
Ni 4.159187429941509 1.3514751485888208 1.4224332879810735 0.020137651290139513 -1.1017105055221543 -0.20598958619337426
Ni 2.308528724491981 1.5646061494937034 6.499567739328382 0.4230647407769488 1.4910647414205354 0.8998141155615471
Ni 2.6770410195224943 8.75548584878412 11.120618024606886 -0.7896217762751562 1.0361283487459705 -1.7268801527260904
Ni 6.239924611418034 5.802525431771576 11.620787007887202 -1.3117192401772506 1.1186630742160926 0.3291410567435944
Ni 5.9359949327744275 2.967016688205435 3.1966303404495986 0.49673764498106704 -0.9330109140284899 1.725041813965771
Ni 1.1282667680721048 2.971302363483161 12.509919602995144 2.28915290329549 0.049696853004495056 -3.105195078545704
Ni 8.691739915206314 8.182878727187012 3.5577296257914806 -0.36168736611073193 -1.0804274277736619 -1.963261720947761
Ni 5.15812162867798 5.440799563970434 5.4546290011573 0.29792555037273855 0.033069785970775305 -0.34756481066642075
Ni 7.594058552044664 6.7006672414384 9.816682263583594 0.8315515837397228 -1.3031610661945945 0.648346856651348
Ni 1.5793317669338733 -0.25137670175643484 1.7605637709180142 -1.6616641210400738 2.882932723334235 0.7481840779556599
Ni 4.091667127247094 5.919344944873327 1.4122824662115523 -0.7116255621053357 -0.985263443575303 -0.03824747351697284
Ni 8.383719787273773 2.0720914591158195 11.887879401741241 -1.1591042129502747 -0.3047808827316751 -0.9040759761616947
Ni 7.695613252118158 5.570866554882944 6.146347217105531 1.0849582257644799 -0.6552345849101168 -1.1420554849981042
Ni 8.71061176078936 6.5594444797378815 12.857466486124727 -1.174428759122487 -0.9216839190514449 0.4489668053546913
Ni 6.984014522978132 7.855587005218185 5.464316858439119 -1.1336487489916476 0.22167280125658595 -0.2369410402695661
Ni 6.558096490767665 1.438146191135982 13.239355479977627 -0.24223159924454413 0.5863549883295838 -1.4190622829403043
Ni 0.9699663805902788 5.255650954792136 10.622123336592338 -0.43520471857359244 -0.29105839093926 0.015917956781837102
Ni 7.117511913407955 5.837377919008443 3.927944105514731 -0.6701066169259426 0.4416916118495168 -1.4502806175246379
Ni 8.537539273489083 8.46640264176422 0.49849096942428517 1.1422616874716391 0.9606423025925133 0.8033170143740617
P 5.432916152613575 8.105615718004403 7.066175845184242 -0.15096463610774646 -0.4191831463343555 0.34290468618659015
Ni 8.809795859570404 5.106182219184149 8.276677377620143 0.1695413706686693 0.04818067347028476 1.1065094695726942
P 9.820982813222368 0.4194132881934942 12.380986782112746 -0.7565116239847487 -0.9400382531889165 -0.6835737981744421
Ni 4.561101962006448 7.138642802575572 3.4634642922803835 0.7475271610979514 -0.27750096396979945 0.5182294963062559
P 6.037633301128833 2.894625032266923 5.735694927570885 -1.0295735783465882 -0.07711638266802848 -0.5686334026801045
P 2.6397807450905493 3.364524690809111 10.736266394352533 -0.38948330527707764 -2.2292042906559995 3.419715814272962
P 3.4428103123139535 9.15893429933241 3.5835134010252627 0.535363070662749 -0.2943982539457704 -0.48310617024056146
Ni 5.970140887861388 5.8423143475821355 0.27928751062046386 0.9222768154404374 -0.9782173353617992 -0.07653839867737142
Ni 7.6158123050812785 0.06692997649021644 10.921693897800532 -0.4838340495455215 -1.1714624774053117 1.9872501134425582
Ni 5.119755073642891 7.4990764602604365 10.407714070284664 1.577455093191322 0.9848950044922908 0.050917869895789725
Ni 1.5545659557844966 3.232207952787686 4.0797090706099155 -2.534321987901803 -0.15855967484618497 0.9708855775870764
Ni 2.7503623230266734 5.314785836444232 4.608219289577163 -1.1934423241105123 1.9285561991457756 0.22718910308912485
Ni 9.159287565407364 1.8018986906302787 0.3291407909769379 -0.08593758050408425 -0.7050229691871536 2.9077608381215083
Ni 1.6996188654555635 0.6370577280296915 4.613716295632954 0.22598736947153983 -0.44813171104790556 -1.4999152498326298
Ni 7.258651006827563 1.060021340276469 1.6802728996140273 -0.0366868138980723 -0.40487007214579307 2.1372109908761385
Ni 6.453734255045854 7.956481655520055 13.087875916685102 1.826404470775674 -0.8360862383852826 -1.6881899352447445
Ni 3.7813507698273527 7.5142297155808135 5.717707176822788 0.11486069129633768 0.6974911795864827 -0.26033653637537096
Ni 8.551167906801764 0.8917365379393765 8.014156990494055 0.8451357501820606 -0.8911489836873814 -1.2466621026666012
Ni 4.7409422835847845 1.520708191442894 8.934338884647719 0.939941322599736 -0.08957132060192961 1.166657085596868
Ni 8.952905805829225 4.427028190085911 -0.2980394316675387 -0.9130437268779437 -1.1820852472264805 1.4743155469866545
Ni 6.145444529319269 0.9112461217524703 6.849481505160155 0.31309017392831884 -0.12887448907692642 1.1881741337330376
Ni 2.680220414197076 3.158914538710477 0.49260630033361125 0.25091807127494853 0.16905620350213466 1.401866230776992
Ni 3.790591466630086 3.4991097688907637 5.104265285903744 1.2376390732323845 -1.2021185117282716 2.102489014013921
Ni 0.5210051741696156 4.461136959270244 6.164906701106513 0.34355003308007287 0.13584757796064992 -0.9328286228143549
Ni 2.4663363987640032 1.3023525712189612 9.491300967362214 -0.04571087177355353 1.4257888030308608 -0.40303713270211233
Ni 5.011172237972952 3.645073733176185 1.2634663431946642 -0.10849258298646478 0.01174942722644428 -1.9919506042420212
Ni 8.079622772068346 3.595207437753792 1.858298549144182 -0.12282494044873686 -0.754416432018617 0.5492411141964217
Ni 5.701472741383541 0.1606849334877625 3.5065832056711637 0.1587764188426814 -0.7387866959011599 -1.4031782647201962
Ni 2.6338960759998757 4.404716648509896 9.114133653495339 -0.4717881741245811 1.7124182116644893 -2.692182065577802
Ni 9.137803410164793 8.810344351634146 5.617210415679024 0.570791843784004 1.039300318716049 1.4238342504076509
Ni 3.8901381279617393 6.2999705476844845 7.902067524206418 0.23448692230211876 -0.3211834924594146 -1.819365047430389
Ni 1.772791425349236 7.78281419377775 13.00211499910473 -0.8262885355685705 -0.5209548656572189 0.21170643407249345
P 2.5606491443009496 4.450464605216384 6.913499825474703 -0.46594302819771366 0.4420749633308645 -1.282291936055069
Ni 7.501856106481783 3.194454965145937 7.357556211338905 0.1490450504875304 -0.0458481686823662 -0.21376665903563186
P 6.634216033444502 3.9378011586535013 9.184668803245213 0.24623763508014368 0.776016783897212 0.4567644470222391
Ni 8.480663435421556 7.4970219391403115 7.507742634867587 0.1997842287136108 -0.09686271205702028 0.8539317512071358
P 1.1708446265796666 6.989992156825373 1.2701969915700955 -1.1284474072963662 -1.8795504586710339 0.46917027688575974
P 5.2929298221753935 0.4666338066439985 10.93600768136911 0.6976801556688371 1.0715429807998385 -0.9137574651155167
P 5.545654512902046 9.166269218625526 0.8596181441931374 -0.41239620531950916 0.31968659619891393 1.0853073815737824
Ni 4.170240939497293 4.246444150455041 12.101920527612911 -0.5711844512367323 0.783251096862122 0.5460889417206853
Ni 7.94224875128969 3.4855462109076782 4.75115446209364 -0.47755747250819036 1.2402397440800252 -0.6324522969082785
Ni 2.4418773713112967 0.6859832201156295 13.212346429252296 0.1664820150170552 1.6776797797420395 0.6680312224541527
Ni 3.542998430465917 9.35402084098769 7.6347575928220115 1.7715900940389553 -1.0820708769143559 -0.2742096948130375
Ni 1.7178399577426426 6.701076286367293 6.647087933638731 -0.5428683779008585 -0.6412333855350182 0.20551804587359443
Ni 1.3662565448829307 8.844722718612523 7.5795300198884155 -1.1017984372502703 0.2802021649510465 1.183755950060684
Ni 6.689195390478065 8.515004616497306 9.071354991113592 -1.1433832026705921 1.9119746406380103 -2.927323333634468
Ni 3.5951702518511652 6.648374565869614 11.882967144004255 0.1941547983419753 -2.300573743537922 2.6416891990345728
Ni 6.064193332079947 2.862970532655952 11.099773466889493 -1.3051261603407653 0.3917731297525188 1.2043402019699387
Ni 9.367314801176732 5.165075392469172 3.5237947007019277 0.5343438853696152 0.07535260589938636 0.16631155087746197
Ni -0.18064818531290183 3.0982364420993727 10.059963594338198 1.870726689731817 -0.16312338295746748 -1.581702041393134
Ni 8.130037559554482 5.979056208016137 1.4850906042594831 1.1523005597648799 0.2638149818422747 0.2619031095315425
Ni 9.339146479937016 2.0355005309311553 5.853307430046151 0.6206912997176084 -0.8178275492854109 0.37283027010142883
Ni 2.1247931796134982 5.076015155678246 2.314015504424549 -0.642936484269054 -0.5877040461583104 -1.1123121922974004
Ni 7.820920447494452 4.4096716700349035 11.280969214618574 0.7024505804742871 0.38511834344016255 -0.4451762279640075
Ni 4.472246247679969 1.2348508614758595 5.0898297185040615 -0.972870469227589 -0.016236002242888167 0.5803717741629553
Ni 4.8183261469509295 5.005278272406622 9.826710371874446 0.5982545679806471 -0.06926269095156458 -0.030401237999676672
Ni 7.203485720280866 1.7946474396180738 9.518009741923835 -0.09255122916585996 -0.09139886072897162 -1.39284422978404
Ni 9.482498134562912 7.509302583482777 11.162484702726712 0.7125791842678567 0.6479035984663423 -1.1097693712708887
Ni 4.368227981557456 3.643688558303341 7.618593810597755 1.768228119545258 -0.21811568003294696 -0.364800714928733
Ni 4.419972165062497 2.034050280728714 12.634458909482197 -1.1553321475023524 -0.9233083420287453 -0.23900923565250454
Ni 1.6683827072491428 5.348652897261491 12.932491833616774 1.4052032655700253 0.6032129404271869 0.7753542106125485
Ni 7.365132838999094 1.2566975792690407 4.769917538911503 -2.4491557383461044 -1.4263863274055435 1.5370530352251914
Ni 6.20805629286696 6.017590099613046 7.615967556224745 -0.4777320504128418 0.5398136502349349 2.313816210370125
Ni 2.171582341593533 7.325613520982578 3.2471241479788175 -0.6397107782429047 -0.31752866931564666 1.1489822940249244
P 0.108111504354146 6.587045715962543 5.128756851021248 -0.31415178242361375 0.7259957147840788 -0.013316257492931903
Ni 6.550073632275955 7.632415810604096 1.9328748768620119 -0.0842851325023258 -0.0037173009505871465 0.9813707933891165
P 0.7434419472068277 7.009830835876713 9.117058324736927 -0.1496374326558907 -0.030349815936450957 -0.7941122079463421
Ni 4.373610640962669 8.660578128805147 12.522573965659006 0.4051986591298054 1.2726685540326919 1.3485533782864647
P 1.0880874002839644 2.244066962288611 2.114614468417007 1.1409008025683707 0.7422427727705604 -0.23779798895322268
P 6.864508328411603 3.869843921603222 13.458975420890868 -0.5230618846978927 -0.6050973019340934 -0.3480558913702264
P 5.341048380174334 5.039340559212672 2.9503694892470307 0.0806742752226159 0.6779996465207743 0.6715235518781274
Ni 3.427582685188323 8.004665288848592 1.1334151562907702 1.8865037500604158 1.0733108713335386 -0.2541746305390332
