# total energy = -340890.6804571298 ev
CRYSTAL
PRIMVEC
9.04456771511942 0.00000000000000 0.00000000000000

0.00000000000000 9.04456771511942 0.00000000000000

0.00000000000000 0.00000000000000 13.23763908999291

PRIMCOORD
 96 1
Ni 6.35127634850951 1.6978462535134362 11.394576153159312 -0.8047043816398917 0.38690885968168204 1.3682680831065726
Ni 4.787669569184473 0.4935674875451753 5.954634066542597 -1.4473192209034687 -1.9503581255122153 0.5640941200488544
Ni 2.949035574449057 1.8061639965992924 4.381288096690268 -1.073516045365809 -0.37447114813896154 0.9322146433794396
Ni 3.395149832963316 4.279672378289334 4.855261432713967 -0.25424944964102664 0.29873544786854356 -0.13380303672679536
Ni 4.620806339208609 4.650834304058729 2.5784534054708943 0.9035399011525664 -0.6560496246122444 -0.344356073921136
Ni 7.389927372453269 6.330853714584337 2.693039033990827 -0.19921678624591493 -0.9311252669700029 0.3965499823158719
Ni 5.048089807717461 4.495041624979414 11.526581619119405 1.6329253583444845 0.11467917141315088 -0.895455067261903
Ni 5.535365893952473 7.770396158412656 12.286951192184992 0.6686120346582872 1.3642494488654826 2.0155188784802642
Ni 1.642683434952929 5.996783561059022 0.3388104114704809 2.084303858464462 1.5936715550501843 -0.23193741640738766
Ni 2.476438821633246 1.4965955770435477 0.33269357031742774 -0.0020879928772802752 -1.0741706482306725 -1.3671128864562068
Ni 0.6885502785809876 9.018465103482827 4.850866677255933 0.32190751510963267 0.18770981404757994 -0.5679880557866218
Ni 8.412252951651707 2.479550152930969 1.5774630570811763 0.39356775975909636 -0.28147460390556683 0.16425106880400747
Ni 6.794351632267853 0.8462685461291547 4.790383843959028 0.04534217558022513 -1.1651162234723096 -0.9789745252427978
Ni 0.8905534630856743 7.342732818059314 2.7219237654803883 -0.6714839568894435 0.21125186303357812 -0.5567651904876089
Ni 7.496571870509826 3.826838005954701 3.7485418965215573 0.6912583113028934 0.023953682602120035 0.5220072181811333
Ni 7.635360762264374 4.03762165680773 12.923258238667405 -0.16907960054090238 -0.23119950980009862 -0.9756020092261393
Ni 8.215289400283913 8.806333812038634 6.860631129020313 -1.8431168984343484 0.42314958718127127 0.11169720596669151
Ni 6.786301966991767 0.7475543250547015 0.7304221048682262 -0.6283179630249308 -0.5569032587273699 -2.3566605592291605
Ni 1.4745449209277064 6.845598153003029 9.228275558848546 2.1446967577302223 0.08376139878837187 0.1117565984497172
Ni 0.04197131653222406 4.855422426019489 1.5183568069921591 -0.5212418007700185 -0.8686304908698911 0.874624503669797
Ni 6.413177370025843 1.9468432030085614 6.968584376026814 0.6494807131454751 0.6777983291432456 0.9387516731670091
Ni 3.4170557759955424 4.178707868764667 0.3148215044909705 -0.23916247340091715 -0.13542103194619257 0.4213459583136292
Ni 5.902304006593854 5.768815231526706 4.876839057937742 0.7199433379424117 -1.002770599221131 -0.137939170382356
Ni 5.518940958962165 2.6923597869546088 9.441706554674958 -0.265243229648369 1.2241960603536013 -0.42435234924012083
P 0.007949270574328569 5.570621618948186 12.360023159299631 0.7161676729500633 0.07252722063544928 -1.0900824343649227
P 4.016647304251276 5.998067889676105 12.662662535520536 -1.5357926804555293 1.59153136877873 -1.0999169039568413
P 2.1126029957218617 8.25321327275878 1.162571550813634 0.03684827917660106 0.5168572985490776 0.14457750163448005
P 6.512278698598966 7.782099829050022 5.732638769536492 -0.594801062214408 0.032999080633839946 0.4821376356797051
P 4.634915864861075 1.0391575197364118 12.865410087949066 0.7091444475546949 1.0239521183947526 -0.8806434561703671
P 4.066808476859339 6.091127447008301 8.286046862517487 -0.7902195577601552 0.49486691032091545 0.28551277853068247
P 4.748786972530658 0.8835529676657968 3.6894229840377237 0.6452083110223662 0.6778376670216132 0.5367771774014563
P 0.24507884275624803 5.456660065601343 3.715977834881083 0.2223423165197848 -0.4720362855796451 -0.32499489578570484
Ni 1.342919326812103 1.0864515643753516 2.5107701918073686 0.2935968410903976 -0.28261977325360366 0.4015183820647407
Ni 1.8785295829745372 6.500357958336177 4.833842991882169 0.5369964925011138 -0.4899615025994981 0.06581329895038343
Ni 6.056586242862936 5.653515082156425 9.077658181422015 -0.4775268763805711 0.22632906908167472 0.4780688649269702
Ni 8.636024601759186 2.394549305442586 10.076940915425075 0.16479280024009038 0.5588205303547408 0.5248613998004767
Ni 2.433269099877335 5.306918202330683 6.939593823094858 -0.7744579240505243 -0.38121206640722083 0.8448552428271644
Ni 0.7090434601344222 0.012532153041062312 9.217831796495402 -1.3590342232131305 0.8249505334834373 -0.4480070125445833
Ni 1.109406677263787 0.9843926621558458 11.471460405570438 0.7481681371160599 0.9324118469919103 -0.2870163596594025
Ni 3.9774481477270522 7.041720559572309 1.5144784963512758 -0.45736814204450904 -1.5316727447498848 -0.3360457542832277
Ni 5.815883161972497 7.650881240482087 7.894862072716405 0.16760173044379523 1.494740904720542 0.13603578271205605
Ni 5.08854615915559 2.684301077110796 5.07869933827236 0.7570245590654252 0.7987278523414825 -0.9916248670169568
Ni 0.9695595710853043 7.540980698044191 6.838815631665346 1.0353289927731268 -1.2126471791737374 0.8551293710596629
Ni 5.019825533573899 4.6142309384718505 7.001652220089623 0.13621473149208155 -0.2570565800725186 -0.045124146032148094
Ni 8.137705098330802 7.101767444704825 9.089280450949847 -0.17111154336926662 0.7786843034270461 0.06356949722152924
Ni 4.588453920452921 0.4667856180518948 10.251188130492396 0.6545041345019954 -0.6523024988649863 0.9242537366611502
Ni 8.352974854775896 7.026127724812789 4.849264884311669 -0.1939766208928982 0.3360732650870535 0.24940780527800915
Ni 7.432129325462504 5.9588054211778 6.998197195218314 -0.30012847156132827 0.37400552135645265 -0.6426037835199836
Ni 2.259875692003341 5.134863390480128 2.600481450167421 0.14482998396491834 0.39731257151350924 0.056937593727308396
Ni 2.5807407766487844 5.456461085111372 10.92847882671136 -0.8654844890417417 -0.010908162272071536 2.1712742511084344
Ni 1.0729208910573453 3.2820836918213416 3.676436793696819 -0.8437576388876113 0.21905824645187433 0.5015867455432523
Ni 3.6843137077293404 2.3987550294351476 2.0409130385557446 0.6156434528810558 1.0666877095900662 1.631980477932712
Ni 1.3891008896207522 3.167036790347386 8.117571890572858 -1.4063846874726358 1.3647708685865914 0.2195184739177445
Ni 3.702592779103465 2.6612736076805534 7.164567496253115 -0.4943871424710195 0.03496777432443655 -0.5121120705546084
Ni 4.204303995429076 6.942528785321927 6.157527236511516 -0.4775618433835646 0.3755661809753532 -0.9284009260603042
Ni 0.8740199932826561 7.544987441546782 11.526237021089047 0.9006170710788167 -1.0525386717831937 0.4031739153902927
P 0.3518562959583766 5.578047209051182 8.019546865559121 -0.3530525732538694 -1.1215632785820233 -1.8424977767931108
P 8.409114486650806 1.5929925798666151 7.978034108610603 1.2476956861374382 0.45802685867443055 0.6976397893492049
P 1.7942070780655996 3.29342557974967 10.273308429779727 0.9869452021531002 -0.5775353331554247 1.0799823698164435
P 3.973025354109067 6.165184367548296 3.876523434300379 -1.3931375926547427 1.116695923187393 0.07941057801884388
P 7.007152221723767 4.2940261072704 10.314040640533497 0.28079814666383257 -1.5515252606994376 1.141061753626267
P 6.501759866333698 7.915959431393933 10.266013985908758 -1.30793509054447 0.5029106065609983 -1.0473933801368285
P 2.618908852452251 8.769359619174992 5.9296547793970955 0.5159227025499502 -1.4118907048925295 -1.155799574057074
P 6.582735881184037 4.17253042900785 1.815886002447905 1.2722029272501831 0.2923066615240643 -0.36420010523025664
Ni 5.622636927940066 2.971113364268076 0.2772983063663637 -1.3787548415705093 -0.2744696333426434 -0.6097533126488661
Ni 1.580800502572048 1.0795686483359113 7.100152989365744 -0.7285228520813066 0.4268077527591488 -0.31023933474308507
Ni 6.9211112489469 0.7923032283355618 9.30550440929003 -0.01047724538224002 -1.555073383062012 -0.961765360453363
Ni 2.8131499889345357 1.5192250854938494 9.202382770362725 -0.5912470263145625 0.35256663475638633 0.5121789192368018
Ni 6.109704989117381 2.1263778723684683 2.476378223029482 0.04226019422079173 -0.10064326214537506 1.475713969996078
Ni 4.317804275821896 7.117152254406648 10.464194936092461 -0.4559967156182792 -1.1600177259034796 -1.5953191179559363
Ni 8.001240660481821 6.836110401458518 0.5206496366869572 1.1990159615435478 1.7178527524164995 -0.6967735846941678
Ni 7.6648641421863895 3.8627087615557785 8.244468080224568 0.5099250902056185 -0.4185000042244018 -0.6679553749108947
Ni 3.280320001114783 8.47063563632265 12.349658084685705 -1.4320126724533853 -0.6402890193438779 0.7876949915660886
Ni 0.3029776430538522 4.869577174510585 10.129256504065456 -1.1667344758020228 -0.13081798595654243 0.6666363989891552
Ni 8.59642748425502 2.1620225137763973 5.821728666093772 0.6879618999398087 0.8045799402468852 0.9989643381011634
Ni 3.590621030656329 2.7092640840343902 11.616358902823858 -0.6775098513685494 -1.057575977096785 -0.8305187715998341
Ni 1.021819083405785 3.38186336297391 12.560851454456719 -0.1910640752317935 0.4302985395212267 -0.5084798731186597
Ni 3.3293777364602812 8.268453369376989 8.043215594841135 -0.19294406586332577 0.22230323575173327 0.5771892626699157
Ni 5.575532819223371 7.694394655811584 3.5403269029026947 -0.5432085348490967 1.4975979145533627 0.15968813202367338
Ni 2.930041982224583 8.3794754382129 3.7013762847443257 0.9192115462515524 0.007695825982360939 -0.2095194537235037
Ni 3.7155355555192844 4.1843155007547495 9.423266489995312 -0.053965912693494156 -0.03404166296574137 -1.5215235721310247
Ni 7.123610075762969 6.302471861060338 11.459877027683826 0.9989630525495828 -2.333329597812704 -0.2756808800419252
Ni 0.3271302567092021 0.3254678651611744 0.435787171084781 -0.6785719740844764 -0.7602214687361681 -0.312446626807049
Ni 4.442158037485844 9.299081861747839 1.7052989773196106 0.07045439726682061 -0.7592192527238989 -1.0181511954422595
Ni 5.887751297122816 5.69551805467569 0.36119028985154655 0.05887440573870505 -0.36632537910337554 1.0936866067764133
Ni 7.9909660315451525 8.736980066716127 11.576342117377209 -0.7948334023830828 0.9194701992295777 0.21746956180851582
Ni -0.0018695121489517754 4.5406805137245065 5.815373952809527 0.4976496152723752 0.614268169800084 0.1715846263509432
Ni 8.044916878030383 8.982693838126735 2.458083775890223 -0.02700969581962445 -0.7491253588230067 1.3578386602431325
P 8.583249549078326 1.5858745050663003 3.83253517916527 0.22627944679066195 -0.19277051639993897 -2.6879299751696673
P 1.7526201556617282 3.1718846786484898 1.4823639497267813 -0.9946073466840484 0.6245546393277566 0.348121197390523
P 4.805234119708248 1.0499838673043618 8.148190465695484 -0.0433912225014414 -0.46285590463195775 0.29143557177302065
P 8.148730426388722 1.829064842081372 12.41040592381698 1.8246905734083607 -0.09159220768670032 1.008928905513043
P 6.181934906976737 7.753238613436548 1.35431638660356 0.23898146773836262 0.1126351443999286 0.493040655745454
P 1.8068875620173677 3.1356611849061005 5.893767743574111 0.30674906220163944 0.01658747204503595 0.20608137457623216
P 6.727611767018142 3.919363933791066 5.8746791833885155 1.3798989824772816 0.27349955611989024 0.4440850517823578
P 2.5174107134317536 8.573029187548014 10.286320849367037 -0.1293776539655901 0.14562805438618145 -0.033036361629678594
