# total energy = -381173.14641036367 ev
CRYSTAL
PRIMVEC
9.23676281802407 0.00000000000000 0.00000000000000
0.00000000000000 9.23676281802407 0.00000000000000
0.00000000000000 0.00000000000000 13.51893605047033
PRIMCOORD
 96 1
Ni 3.6516340837194288 2.047245337394825 4.117395075433655 -1.0706950309772465 0.649580471948133 0.1769582319580307
Ni 5.461577748756656 1.9591450940821176 12.447019993350231 1.7626524252296933 -0.7788632522070715 -0.5764158748390008
Ni 0.22478862983131137 2.5999824583924913 10.488625848081423 -0.8751608357892412 -0.18458643792724985 -0.8204063657561808
Ni 2.6249401914005577 4.723052381376959 6.938864020966717 0.573516956024651 1.9200121662305063 -0.4874122538150832
Ni 5.0522136594951865 1.128566148923595 2.5554704985975722 0.7483458003445047 -0.8175709531899145 0.3076204090629992
Ni 0.7199252981871193 8.31864702536288 4.372930117501809 -0.32929095205789743 0.6439695535192588 -0.38739196996568764
Ni 8.543968616406097 0.42490217159535837 11.645144288503541 -0.4372672575295759 1.4621776260725399 -0.4731086927082175
Ni 2.3910376477427997 8.580241383809012 8.815955256646221 0.6084096541367779 0.3545615536992281 -0.6938378991046115
Ni 1.3469232208372468 6.67761604112451 9.3294176623403 -0.04608959526921095 -1.7274805053142508 0.19121088522230295
Ni 6.3231922168267625 5.907048343691156 2.245928104605597 -0.978464932596231 1.1199941343226905 0.4333326983618602
Ni 1.2983747957112672 0.11450814807586884 6.6461251458083 0.35821252018825406 -0.6046491586530813 -0.08567275687847181
Ni 3.2300959411253802 8.83870447967567 4.188707502409516 0.5065271202676631 0.6535062893651002 -0.22000492663585983
Ni 3.8710164363006956 3.01097221790171 1.9273272173638027 0.5406983668327334 -1.2037992418648042 -0.25401882168745926
Ni 7.983223222085709 3.594717151522647 8.82226858400041 0.05114258431208612 0.29885397572427885 -2.3490644920494574
Ni 0.3457061675941888 6.852412539808687 6.599687320975563 1.0323542264155188 1.8852562508065596 0.1287688167369976
Ni 4.907057932544127 5.505129085223359 6.974107812996908 -0.36574533823018945 0.1609664845154647 0.9037491889498952
Ni 8.84033938668619 7.101454137648614 2.28434841935284 1.0029541759868468 -0.7531787029567738 -0.13665541857392594
Ni 0.3274977371431151 0.6363538396611824 1.8756576900973996 -1.3750843346974575 -1.5268023040314607 1.9394659040797435
Ni 1.1759969257542466 1.555036722837521 4.743335388746469 -0.3594196531224778 -1.4098572194022687 -0.6364051109084394
Ni 2.4900834549395037 0.8814550345028707 1.6542173867706862 2.518631059529108 0.0736459076209248 1.0111266844953102
Ni 1.8647361417966084 2.648290727686417 6.718667909585298 2.6000432413590127 -0.8144671174536102 0.9924602184340585
Ni 8.147868518484222 -0.30465614648595485 6.288252314291748 -0.1763445096334318 -0.3807433543009185 0.7870254763028897
Ni 7.35529885212962 5.865094967183889 6.364525806552076 -0.35776514823819033 -0.15970844373864754 -0.6059053996576854
Ni 9.223646568169809 2.780579644097048 1.148475067400866 0.7544729962881651 0.24927899300962877 -0.4349483795884122
P 5.137404322534933 6.858139332726896 0.3160349145439255 0.003471760598684344 0.06601307366601535 -0.515130545665958
Ni 3.7636852528981306 8.614583667792724 6.7013499030653785 -0.7472955047031195 1.7577385328678439 -1.3091219117637196
P 5.505960393872776 1.6355997677288439 9.447465337910133 -1.0462597807530174 0.9104060321447806 -0.657184509547636
Ni 2.2575848992229837 3.7396696696927374 0.405315616138806 -0.9951272237432603 -0.5025375394922957 -1.3583240845199833
P 6.759287497548389 3.7525180067076227 6.664524777248739 0.16965989852440458 0.6591292919788326 1.3363097850324213
P 5.266912973351402 6.28417613088077 10.846269607881245 -0.05839875165386717 -0.028348469235706015 -0.3051619202201777
P 1.0573045241429764 1.4556768657065926 8.400950276360318 -0.04408104947961441 -0.6810214640662335 1.8001663630147513
Ni 3.8493100437881287 0.41891397829072136 10.233915648928743 0.09874861622582348 1.0089800704659526 0.7241401496325787
Ni 0.23366423517825838 4.452877070316287 6.545219978265732 -1.0061328308251445 0.2553884483414763 0.6107403591524837
Ni 5.548828209894403 5.642627535837006 4.8176756265587635 0.8466593859154385 0.3771900897320214 -1.30891468084892
Ni 2.323138204610936 3.5664711309679964 10.991624848908165 1.0123356172017468 1.0885857952147382 -0.4334465982319052
Ni 1.3356543702562544 0.4230612847750373 10.59176169383326 0.28469953860076774 1.0024276140594155 -0.353425640322572
Ni 6.3505330346298265 0.12232706776177858 4.564398049311915 -2.290778097603739 -1.6992191964757124 -0.8871156941582722
Ni 8.296340243270178 3.4009391053434386 12.57446238033476 0.6522274226526766 -0.6964658236457618 -0.5942888984646798
Ni 2.3194157892141 7.752294916040311 11.42598823661017 0.868044279349118 0.48298095751660697 0.04562653958986336
Ni 5.428944265885635 0.15530877658927758 0.4597857298774691 -0.0342820611113216 -0.06447195443114057 -0.4748590997404209
Ni 3.5089260989027657 1.295613003642647 8.033763093265181 0.453994854696902 0.6282796535878276 -0.3939333706286312
Ni 6.848108208357258 2.757506210694328 10.681676037354253 0.6446532098498446 0.32046718311868033 0.23445375507133814
Ni 2.4457839406883246 7.047188156367197 5.443724009996 0.9813754213748066 -0.7029324052067121 -0.3533089122390496
Ni 5.898162577905161 4.874212004129367 8.989564831314286 0.9382225401364164 0.3613099281666552 0.8078089887071442
Ni 4.748638214253474 3.848561866003653 13.39502128523897 -0.2319325313113812 0.4514607754211386 1.02653042064489
Ni 4.663290526246616 3.6669763466825667 10.930695466963527 0.5145589894332041 0.4497116539405158 0.9321267116513238
Ni 1.456600541983723 6.331274384251655 0.23185660070391398 0.27948636983094444 0.16360726457242145 1.336303357274518
Ni 6.118995102241522 1.32734128376208 7.318475573665535 -0.0886647496272602 -0.05924541592487862 -0.0108053181456201
Ni 8.890254852702324 3.4005511613070434 4.358910558967524 -0.8310414768725236 0.5647448662589758 -1.1809153952880953
Ni 0.6976563868217798 5.829487246700507 4.633736580083548 -0.8317644710814772 -1.3672522402475484 -2.2045026741442615
Ni 7.225716307210981 7.06370348820229 10.081098027258887 -0.9582090105606722 -0.5779225412915143 0.4993840814649787
Ni 7.7152739708529205 7.189351172180352 4.1939927780672575 -0.9340735509650494 -0.026472592369231825 2.234300474231984
Ni 7.045257672947994 8.247052877122496 12.65944244518332 -0.9884086740725042 -1.7520057441491244 0.09346911299443902
Ni 7.825477787477361 1.0313307472300666 0.23333910112870845 -0.8037019085173062 0.4787689763177884 0.7424844564677212
Ni 6.291288438214676 9.252557635643994 10.606537743238517 0.6867133722446883 0.6996416502705821 -0.34139262041743784
Ni 3.68065599234687 5.553806825028137 9.644733033064341 -1.6901596573766051 1.4467885452109792 0.10550830354716022
P 2.9235924420851642 6.858832089934745 7.5172313113022 -0.34270645413285494 -1.5574652803329563 1.4993925445599405
Ni 8.33924500634289 4.911759444794722 10.712621039990678 0.8807414152008121 0.6916887139720926 -0.1815301675994293
P 8.495244692787463 5.804908220966065 13.166619233811524 0.6809798121950208 0.4807271284854237 -0.908981640993428
Ni 4.789501652753729 7.69390010180012 8.537911147380674 1.055901931828472 -0.5684878782411757 1.5967229402819985
P 7.041424416397902 7.930943144800121 8.178009922759543 0.21938426233272543 0.41668531961316624 -1.578132835984637
P 4.7449527459077245 1.0715106652852435 5.6054375578909 -0.6612036580093581 -0.35056143140089946 0.5661291482010121
P 3.906125371594426 6.571559530984385 3.7349847836151318 -0.23370633538235236 1.6480005075100521 -0.8536111346429234
Ni 1.2873091539112438 5.750993236669957 11.70334328337298 -0.6307312004521137 -2.433115139943474 -2.078435315498827
Ni 1.3555503572656455 0.4539988980012465 -0.2624081172462826 -1.8610431438954658 0.4904083603289296 -1.5679145006907385
Ni 9.08903922430358 7.9971430235820655 0.2656649997994448 -0.5981388683383893 0.14164310159650445 -0.8020137221816059
Ni 4.763980477216612 7.944761341905995 2.1271913665330247 -1.3617233400095192 -0.7878207185106755 1.537392163732165
Ni 5.913273921799016 3.406296427750795 3.322941109473707 -1.3246632019324283 2.137477100053332 -0.5830670616069312
Ni 3.8592949843439093 3.489399582404227 8.834881383564626 -0.3593990842971875 -1.2364175421204577 -1.5039989329837002
Ni 7.501581464138778 4.365598898890226 0.9817182470328328 -0.19969501143391413 0.05767344345206841 0.944658011349115
Ni 3.422433052312265 5.1412375790850255 1.7376161178327996 0.7017610106064301 3.3609491377567147 -0.238750325564163
Ni 6.449024636060252 5.055289501498032 12.204949380373808 0.08617746442903224 0.7346809012629024 0.18088224960278526
Ni 7.82865523387069 1.2317684993673865 9.046479916158514 0.45542413094426076 -0.5535194298568015 -0.027483035911617184
Ni 4.634711982232198 8.238185584862043 11.770585992671803 0.099761373761054 -1.701571755868289 1.9398932214251496
Ni -0.020432642926403923 7.534325788163054 11.189095752843341 -0.5406325465918044 0.020088286109442823 0.28271181874677764
Ni 4.532645753609277 3.178323885792215 6.31322113141514 0.23483427833920847 -0.115789116647878 -0.09491741540519137
Ni 7.018563428538923 8.573147550000648 2.3650296948076357 0.5764544413864202 0.954831095227375 -0.7455823786667546
Ni 8.983749365473473 2.1624739529668555 6.817586249455758 -3.149442992620486 -1.0222279366147944 -0.15243427867473747
Ni 6.904443224499449 2.32649114949692 5.097368497978989 -0.19258411142074575 -0.0795051946151792 1.303506108238839
Ni 1.6229454027321557 2.7772636462621496 2.767582595201544 0.39952037779810545 0.8840463112043291 0.16686536649840294
Ni 2.126385920819367 7.637029353417195 2.3528353205969585 -0.39069120954224973 -0.6734886460242981 0.6167479987991443
Ni 8.47987471953601 5.9472836823229605 8.274899869525425 -0.35110264861635015 -0.36734147907271575 2.6487029113482445
Ni 3.0109167973250823 8.12011204635645 0.3035052458446503 1.4618369549036696 -0.18758048755856727 -0.8296661937915518
Ni 1.2057947224544765 4.271947361151963 8.840951784057928 -0.01234566604954648 -0.3865584183207988 0.614851810217696
Ni 3.5431298314449085 5.771388008869 12.568865825771626 1.1189932038620019 0.2261974285998169 -0.2149185132518879
Ni -0.04777438440574404 8.494644303207327 8.652145887278513 -0.8551368272588306 -0.05998975029007088 0.03499914178300424
Ni 7.4437778027159505 1.8925018506871514 2.823984116035687 1.5525822412090422 -1.1665784098401328 -1.4135102427738238
Ni 1.0103448222136615 5.1226901594402445 2.047158511824775 -0.8686855124775427 -0.9209007610285174 1.3062011385724988
P 8.024890258947066 5.190728154013677 3.4120712518354153 0.019507216794992212 -0.22102925413531613 -0.5924832127145087
Ni 5.8108289859024715 7.786064520732202 6.240746719682648 1.4546257818672108 -0.4403602946326029 0.37843013278670956
P 1.6930893792174464 3.743419795377888 4.879199856025871 1.2792433790367324 0.7770642513251198 -0.5098014201435608
Ni 3.681810587693283 4.513590312012075 3.977162543039702 -1.357877226790552 -1.4756036696704586 0.938877657221912
P 8.284092295835428 0.609945011221744 4.307471027094125 3.1565209825131895 0.2482883469615853 -0.6173123559430466
P 1.238603703818152 2.5086678216353695 12.390158481730078 -0.6246906506849886 -1.1610505380433682 1.3878814864621258
P 6.164439975076343 2.4878851053999327 1.0688384698155051 -0.7542513671956623 -0.1912967600678899 -0.5331542359368883
Ni 3.435225968750523 1.1469011230246355 12.848234486818578 -0.3049742296894038 0.26198924148744557 -0.4751375502127881
