# total energy = -340857.8790958206 ev
CRYSTAL
PRIMVEC
9.37700569271610 0.00000000000000 0.00000000000000

0.00000000000000 9.37700569271610 0.00000000000000

0.00000000000000 0.00000000000000 13.72419567355218

PRIMCOORD
 96 1
Ni 1.4729494550190834 4.8272826086148175 9.345669766109847 0.4755188448116068 0.5983090753676663 -0.3759824425771654
Ni 6.71234209348241 4.263762065399363 10.969256131513724 0.6682376820380039 -0.953739404825093 0.4719882059505291
Ni 6.869810152624735 3.9425902382282945 2.2790128182999 -1.4573460090118515 1.37899189728198 0.14748079132420408
Ni 0.1413808679159461 8.142166698623834 12.002399632222751 -0.08790524575341635 0.3432589842022153 -0.20301456272545038
Ni 4.367837453264584 4.214082688436579 8.99653945831359 -1.2285695068309486 -0.41973181974897394 0.8878831684519161
Ni 4.407736613131825 5.392097178636778 11.355440615604078 -1.3766339385727646 -0.32889834460516904 -0.232705919142296
Ni 2.575816620383542 5.605527208657526 13.344899932739102 1.0905431760514253 -1.0580868552949325 0.31701033491833147
Ni 3.682190785933746 9.225839133025131 7.565984384416901 -1.0759794193046373 1.2407426518583728 -0.8607927399930271
Ni 0.9873612073751085 7.814862309630632 9.634001443413215 -1.8629161925484627 0.9607772855084807 -0.03747434279637417
Ni 1.732383075711675 3.5771495664665682 1.0135389945904736 1.8360566491534573 2.3072501271168333 -1.133523793378009
Ni 6.9220025671537755 7.713412483401798 3.1505398724811102 -2.0272204831879086 2.244135200934219 0.4245204993868689
Ni 5.494597229520166 0.21900841079748798 4.72824642369029 1.5577632711893494 -0.7274725564399213 0.7720290028940575
Ni 7.779529751609535 5.792814146384535 3.6837933162325265 -0.7471363534174359 -0.6112946889940569 3.776343506472599
Ni 4.178084363000541 7.479624973693203 5.581081354421594 -1.969357292322537 1.2904287062295905 -0.611482893745463
Ni 6.48991013785119 3.707161752496957 8.013351956239754 -0.7873944296065343 -1.521006266174974 0.15440502924786312
Ni 4.677203630077754 3.0693565689834323 11.295054573368342 0.38419943117031896 -1.086541768201516 -1.8997261622879607
Ni 9.000687845699083 7.859900068700517 1.9215660440203883 0.75410275743294 -3.6167451059492546 -0.4576969861388376
Ni 4.183513649384356 8.723147226721263 3.2042288571428914 -0.7772380578988227 1.0731920863674873 -0.09558693066839022
Ni 8.536385401321532 0.8249852233739088 10.203472634537427 1.7530208156772005 2.1764146576587935 1.51988217987286
Ni 9.003829142656903 0.5361265583420916 2.3208577068798215 -0.4789019023512268 3.0600444501509942 0.9504872164363823
Ni 1.2277595062038924 5.539147384286151 2.2277937369774916 -0.37743125920855 1.0254716403630728 0.40176752196106935
Ni 1.7886357337712715 2.858674001675045 5.447284608832468 -1.2258811613655083 1.476419994924167 1.9251379174928456
Ni 6.209893989330491 5.838189477664813 9.399125263326106 0.43822345079525815 1.101725675030806 0.07639775933444908
Ni 9.719079017438007 1.9562122052136868 13.302053579935016 -1.2562859989096107 -0.3801388879477002 0.800868295723253
P 2.2085474324821885 4.468433971961592 11.32010149367889 0.8120237981194403 0.328194376559609 0.6869393722125653
P 7.737998992725395 9.37513044307128 12.214671602021738 1.815101644168345 0.44170421025500706 0.779483916510206
P 6.430056709547405 9.014575191354401 6.584855135125874 -0.5075789585709453 0.6284030665395693 1.6262967972843732
P 3.533771537431113 6.354740598606469 8.809821704841328 -2.3324168561904477 0.6364773589072716 1.3580062961692483
P 3.732339013188742 0.8734615304868769 12.454817659393312 -1.7198330160713218 -0.6407240499987675 0.3575275783060875
P 9.05497133253139 3.8049170384231608 12.809189713456497 -1.5603256325998869 2.540482093965928 0.10957861696179191
P 4.8844167052237735 4.9133822762766295 0.09256136238907872 -0.13651709322384875 -0.024707015828376803 -0.30290629141678155
P 4.5469476418954144 1.615470566845689 3.150155415241496 -0.06144679445157159 -0.4626558728060096 2.826441987336358
Ni 2.2787530752380145 5.096046350122428 7.024921770198402 -0.5916126371840973 -1.9251489732364395 -1.2509334763484456
Ni 4.74488685826148 5.861697631316322 7.2990622868571 1.0027531157196345 0.36810535382193377 -0.5784192784222747
Ni 7.028956695813179 4.1183622127785755 13.533402130423525 -0.23801036207434495 0.193946281875595 -0.16918475866019897
Ni 3.5746834139295327 5.350557042746794 2.052165230616627 0.46447827072672915 -3.0832977642519803 -0.9135054970057105
Ni 2.0877153351733106 6.743511260908664 11.332397561442443 -1.2577088473990663 -1.3996769364351571 -0.2608571847655314
Ni 6.205824368794091 6.627489567597881 1.1457191443720514 0.2519652815925403 -1.0203327764746104 0.49498158152190885
Ni 5.959781112447074 2.195438378311941 5.842705443679399 1.695099260770068 0.1535614503006452 1.7533925971943223
Ni 7.57776471685902 5.529826640476976 7.216991918606556 -0.8615208764083034 1.142737084446161 0.12823582705166303
Ni 1.6745269496527133 0.7225189297115592 11.62422967502747 0.18977363855514415 -0.2962206518664899 -0.9458779997991452
Ni 8.343219080930186 9.047029008581317 8.240089832954649 -0.5485762269189133 -3.3834205793863537 -0.4163785870060248
Ni 1.170766064682601 7.452075330522826 4.209279786043159 0.16132721028899313 -0.17367724721391378 0.5829117669759897
Ni 8.080090919934964 1.774120128724388 7.878279000155227 -1.068496480664031 2.1221844355603197 0.16624418797463628
Ni 7.16368551578322 1.4164436178016924 13.696692372494539 0.14732421114168176 0.2706206919101985 0.9864556641111915
Ni 1.6915837232833861 0.42853198018352706 0.3033133195407133 0.7293021534494923 -2.743943771531126 -1.4080330217093364
Ni 5.509478537794974 3.527507697527161 4.00804173902109 -1.280034250369144 1.0840007469472168 1.3431885144301254
Ni 3.8234835099947557 5.303418834367799 4.341251766294994 1.181116712665624 0.13405577616754977 1.542552367776866
Ni 8.277983251271808 0.4926069365183887 5.847536477090352 -1.2972686119695593 0.18638492458856934 -2.415055711338602
Ni 5.4301678223643925 0.8333860829097633 9.599374973932191 -0.973648485044194 -1.0089713287152042 -0.9858110885486572
Ni 3.139355917610685 8.493119896356209 10.227572477257707 1.074904955293536 0.11853325505191843 -0.780925791163055
Ni 3.2042447980528266 1.4962981995712412 9.728917371969784 -0.8016247142733033 0.7948920235351601 -0.1047526563280583
Ni 2.019788304837635 8.919173533895103 2.371938946216319 -1.1337341096166023 -0.9582555475278914 0.43560066846043044
Ni 8.44256845784991 4.718368685733968 9.081135991938572 0.16301153996995152 -0.5014779878795299 1.3988932641915972
Ni 2.79512603306863 2.8186248097142954 12.773877784848256 -2.373924231405615 0.454400831886069 -1.02432287147061
Ni 3.783959430361284 7.360471360430443 1.4555607353815245 -1.3776217564073305 2.2522012657718053 -3.023514473545761
P 7.0741819949999485 9.20672879511457 1.6106170286207104 -0.04860156305778727 0.6877371855235124 -0.4965589533113578
P 6.789617998644793 2.1665196922883045 10.137486644411508 1.4880758339955404 2.9561464285137475 0.13099847739846474
P 1.617345968014537 7.172621802352782 0.6782013246905114 -0.8199515376069493 1.5534019088968603 0.40614251110031346
P 8.419144697251 7.797458586783723 4.646038213453838 0.5992632117508195 0.2000552229868103 0.8646815335244722
P 1.158772874207818 0.7949281688407813 9.194867820422191 0.1339408478562403 -0.9584836043782975 1.3323687981068022
P 1.7564163416904626 5.191429253570038 4.6656914800027804 -0.8459518183254527 -0.15786033478631523 0.4490771056803105
P 5.1422937429462205 7.4663846414411355 10.683833201423237 0.7146980303830723 -0.04084557326145224 1.5969893065695078
P 8.395814706710528 6.946401536360487 8.985724957473428 -0.2801157758848272 -0.7266276919411228 0.11568447274921366
Ni 5.323785691061487 8.815416964228586 0.42470803720024597 0.08563856120642671 0.6314107430176416 0.7032273107393116
Ni 0.6606147502296391 2.8982543433435826 11.21522062101165 0.5020364314861612 0.12372611210676757 -2.509699818477749
Ni 1.5879490546928443 6.961095304518412 7.607184134994739 -0.4522742724613695 2.9048719466094877 -0.09278699932574987
Ni 6.117136647519269 6.398071742612703 12.530163776752948 0.8855642905107524 0.45857321809620377 -0.3146690883796645
Ni 4.869901100176889 2.450483560269428 13.41818779731593 2.4031093376100032 -0.408421022721845 0.8828036970464797
Ni 0.7191338306017885 0.5658751093829434 7.0661355862850055 2.472124688437452 0.17540631408987856 -0.0025932146484729537
Ni 7.297045292900004 8.43301328889463 10.390492327597874 -1.915685256720378 -2.9362736008492205 -0.4338816288867947
Ni 1.1429444883427406 0.987379961386797 4.270420677249358 -0.39725909256775455 -0.7728489276921916 0.057845450253558445
Ni 3.814322175284934 7.671628545359863 12.440969697162537 0.8072420604600808 1.19730437816908 1.042157842769502
Ni -0.0018022605232629525 4.059399600029994 3.822682713695658 1.424688113767514 0.5530733434583185 -1.135074939915213
Ni 3.776504710715113 1.6982882824620178 5.255241653741262 -1.191057883038736 -0.5108650855213847 -0.2157780330387058
Ni 3.4395607597140327 1.2643579600139618 1.5227404183514142 -0.8345065526029887 -0.32368106207028774 -1.3994576213354994
Ni 9.20686007319639 5.3969450906582495 11.121773131570292 0.29351739400271387 0.515576374954125 1.6100988473682725
Ni 1.3903942955663933 2.674078264625334 8.144610346346843 1.899847261246857 0.13965795284567564 0.2521432019313012
Ni 5.267279853844097 8.03835386692225 8.691368553915133 0.8384225998279431 -0.6756110916839396 -1.7062362512234939
Ni 2.5182418044999073 3.4634627476110005 3.3601769036378646 0.41155571169608474 -0.6903424843568433 -1.0087679544551464
Ni 8.861992552256925 6.519166396085219 13.553700534974551 -0.12718064631427128 -1.4045496911464261 0.5163965568625751
Ni 5.620230353821295 0.14383951884830587 11.996265194999449 0.12392280149860593 -0.5715909426465318 -1.624752592725705
Ni 3.9376766871659123 3.755162645413623 6.55906743135363 1.4181978780574802 -1.6232739512976495 -1.1715272692049759
Ni 4.768704453105849 3.1782704918642812 1.8039080631897855 -0.03858223114857227 1.8366027514649146 -0.6702737386314263
Ni 6.3224555674847505 6.952674753270284 6.008466526790369 1.971977246443888 0.9699808063846198 -1.3617084276111837
Ni 9.184092703006575 5.167170939450989 5.805609070859 1.6433987470719824 0.11605779692823238 0.3297090134319225
Ni 6.683610947575659 1.710431505030309 3.1356904460261714 2.0019388258029847 -0.9091230516672989 -0.34108743047219325
Ni 8.817273611385746 3.4796193286806267 1.6387377314470022 1.7462796402986247 -2.6935524635627677 -2.2067899275165415
P 4.190893352983773 2.0914192524817854 7.885867810984971 0.6610023406318293 -0.18509988722855863 -0.03149652794638447
P 9.09155103232977 3.565090736950875 7.435480843280274 -0.8411448838551127 1.7612468031314183 -1.7051684720806117
P 8.424705261716632 5.487067493827241 1.8776075783231752 0.04497887870353544 1.5000168084075005 -3.154999917882973
P 1.114372751535341 1.9086239005541683 1.7932445321437156 0.3733378058654667 -2.2468587705129694 1.9481127811214645
P 5.832582028169957 4.871663977275606 5.720643083203757 0.4237699943740896 -1.8027384946173017 -0.6703647556833358
P 8.486809171423035 2.4617359672825163 4.581877926365793 -1.0507399280115581 -3.1042388852800213 0.5989012004257105
P 4.916251640064967 6.780437909923282 3.1351006323585686 0.8231229933563953 -0.803243737933965 1.2320325256788847
P 2.053770574017161 8.61835918641188 6.011787862260399 0.8636482071639513 -0.5365972001801662 -0.5301643000706289
