# total energy = -340869.65506096836 ev
CRYSTAL
PRIMVEC
9.27256514651505 0.00000000000000 0.00000000000000

0.00000000000000 9.27256514651505 0.00000000000000

0.00000000000000 0.00000000000000 13.57133637717321

PRIMCOORD
 96 1
Ni 6.436783026631199 2.850386577428502 6.2046925713425845 0.8276162532410586 1.1149473159274026 -0.30620964475840173
Ni 8.366153509146752 1.7260509428822575 0.19417029943827604 1.2060250458715296 0.25614383845026206 0.8739228496170821
Ni 8.283191867285161 8.088987259355225 10.75004567095226 -1.333773905984445 1.891958859637716 0.09892293702015867
Ni 1.631804589033906 4.930074616244293 0.2500894318190188 -0.9548650337891039 -0.8765618299018257 -1.2914298938005953
Ni 6.120319645040251 1.6003427749245536 13.320130944256677 -1.0858213450957235 0.5576643052631105 -1.0505098142786229
Ni 0.6971142420528563 6.650200389891102 10.957130799359444 -0.5492704247724605 0.2700617340829349 2.044759777623253
Ni 7.062226829604946 4.261995557958197 4.1687209689547196 -0.35810581940706065 -0.14903836561931105 0.5771391261582706
Ni 0.2844201776364271 9.000415521733817 7.167633643064855 -0.6822638211137669 -1.5961626969031544 -0.20998945138138675
Ni 8.898676935112004 1.3884924752026635 10.919674271774792 -0.9152692737743527 -0.8254441852904042 -1.3463417153471264
Ni 4.164262719551897 2.1356572430492275 5.2800369945440115 0.8991209461492644 0.2393439932841039 0.47472180283160814
Ni 3.5295092610032044 6.914487046461914 6.237318092398805 -0.6625928250474008 0.8878983379605676 0.8842455716993287
Ni 2.960090297654776 7.822484459674442 8.940213391434682 1.4827253683169044 2.081130345832487 0.8189009848552476
Ni 5.902785262781069 3.3163051667455155 1.3136656548907741 -1.021964912761395 0.7654354088369398 0.10744820088235042
Ni 1.414168208556273 6.658323157105896 7.714856866821903 -1.8827447972386158 -0.5698953001116636 -1.1056422364763927
Ni 5.501654087310811 6.045184048303416 12.1890281915445 0.13301525071817738 0.11636967174169636 0.3017310401617578
Ni 3.221928996982772 3.3997211643074765 9.187835393623727 -0.6493251614042173 -1.5453607837599386 -0.4318620273536046
Ni 0.8246899046647375 0.3380295139975295 12.4491496117764 0.17860785174631175 0.1355542150899472 0.5018407705355874
Ni 7.317825092476828 7.527830151701294 12.880582603435267 -1.5789743580493258 0.6174799918691624 -0.3390709142627967
Ni 6.5894094516945465 6.6518416339516255 4.001739685529247 1.5115883152951837 2.3869604957642823 2.1136751125377273
Ni 8.918093686878873 6.467150678033535 0.5462941127126153 2.550859837655826 0.6351344717261319 -1.3815000084158144
Ni 7.875393717354361 3.4739387770782564 11.333735112318458 -0.19113246657588373 0.2760657741851697 0.07065777152687831
Ni 4.581426160449525 8.49034097639301 12.777644146861864 0.7401115853601705 0.6121061291517588 -1.6148592448713932
Ni 1.694718944687297 7.183975612173704 4.755124490188235 -0.4517765068893445 0.5201290273218139 1.4037811884115179
Ni 6.4856030830077795 1.897778852491808 4.061439242788381 -0.394754580978346 -0.7731309777089846 -1.0311753756160693
P 4.600815094520452 7.733718191926481 10.614318496173112 0.7394430985382361 -0.334520832998269 -0.08374802905193318
P 1.386591599313357 7.614083554249245 13.078262568844776 0.7982794519501543 -1.675867152013333 -0.6610144248166874
P 9.142897760343988 5.281161756716562 8.990658001254221 -0.18365467014159984 -0.1533426494216198 -0.40854212168074155
P 0.5855105731938072 2.6813013489333533 12.585351541899609 0.8433007538558508 1.575093534937681 -0.29657263588926985
P 6.764354941467948 5.456932504802881 6.171334517626582 -0.3342958614716565 0.8204996968009353 -2.32565125533184
P 3.7923123071238245 7.304389145337291 3.0889177565840056 1.0535593997382242 -0.19185391812294056 -0.7697643752295968
P 7.852935564164602 5.4989464982392136 12.16016176846645 -0.6880454607925506 1.2804106598719562 -1.3930990261073233
P 3.3497513098319978 5.931446762165686 8.318007568268476 1.1076268710065893 -2.205917295103601 -1.1167247195427994
Ni 1.865501052634851 5.257618713385101 9.790470540438859 1.1360056792595985 -0.34812402560400046 -1.3348691959311527
Ni 2.545736444047196 3.8033373872818026 3.850622834098968 -1.2880036417278657 -0.520702897547413 0.3716722452375857
Ni 0.43136622918860806 3.1916447986682583 9.782369100124285 1.0501213205909528 0.8658845526936377 -0.524186228110323
Ni 0.857875488665905 8.678203149648382 9.546620617819423 0.1524507337349697 1.0609482360031275 -0.6424222636367969
Ni 2.763725182006749 3.992757351509875 11.498003243133144 0.19601422014821726 -1.0947302175495792 1.738990048615747
Ni 7.580340689072724 0.43217201511436776 2.1740326818564677 0.09600087827735725 0.0011312853909657937 0.9076863192207724
Ni 0.07182992720250453 0.14086881224558817 4.68464928477806 -0.5007737627236537 -0.49575471224250756 -1.3066857915184011
Ni 4.555425887309936 5.114125765155739 10.01466911538899 0.5386060030800789 0.7893497535606921 0.24012689419671546
Ni 2.1835685880250675 4.916332674449404 5.897505464091453 -0.5729505419982197 -0.5078221849300028 0.48318304622508396
Ni 4.137279554489058 0.8472018387333157 9.640290218105262 -1.3541385856837258 -0.6933406477532188 -0.03993771673520218
Ni 7.543426606558922 2.1974125280384076 8.282966543948039 0.7896109776418788 -0.6966784538772002 0.9728054203176085
Ni 9.18651590757959 7.466111956973369 3.13397407869976 -0.8505399519167675 0.18577788713218973 -0.09501923109037828
Ni 4.236236371516764 5.561795945935409 4.316580368190299 -0.8255814821992169 0.6519803396388771 -0.7805293270555849
Ni 6.734543643984432 6.556649478441278 10.042490520356186 -0.6388576862139901 -0.4097844787282749 0.4400875005871904
Ni 2.6762014380108234 8.696905913886097 11.242400343978604 -0.25760756747998215 -0.689453911104303 0.06911536674042291
Ni 8.455661582119806 7.311176663146912 5.653397764156296 -0.6324021603966334 1.1765033822633286 -1.0537571175713272
Ni 2.404200007099022 2.4640822338948367 0.4066715332451872 -0.5138992443620182 -0.08206935579792962 -0.7499709946527535
Ni 8.15706643388834 5.462579497078919 2.3584677149719 -1.3578574292962098 -1.206204251761871 0.296282872562993
Ni 5.657117917360148 7.74763631246233 6.040018302167158 1.0301047682597098 1.115552296501253 -0.8301603598191509
Ni 3.1374373818444234 6.486919787282324 0.6075764968707967 0.7542909621843461 1.4906754764019168 1.836184175870257
Ni 3.5300099795301434 4.167879020024237 1.757650918214784 0.21593384189027973 0.6208062280289179 0.4871230047094385
Ni 3.5465336909191403 -0.018613747610702586 4.380501724436757 1.2761462281686473 -0.3420423381862948 1.140637778714971
Ni 9.041465168377526 2.7222675424892384 4.167675950843867 -0.04727950181225406 0.15647913816807243 -0.17635890781113497
Ni 7.00256714437666 4.719605928754143 8.082830275986934 2.1647855580602973 -2.4336087917504408 1.792457167295952
P 6.9089142347083845 8.924834841861925 4.287891051109741 0.5735467808213219 -0.1612642182615416 0.5165189413730523
P 3.1575403034445046 3.08692971858075 6.99605131273073 -0.9549948744987489 0.3945316663342625 -0.3841307827159126
P 2.414557462554415 8.940969105507747 6.153094454398022 -0.7042320978547421 -1.0125140517611402 0.3392156673707771
P 7.411923085280161 7.59520461127057 1.58701809856878 -0.41424791381626724 -0.13878120666767713 0.429047440722945
P 1.3335339805884192 1.4617179234848785 2.842245265083082 -0.7994734722582554 0.7749459194305364 0.4559118692139567
P 5.9321885673907815 3.3397276667278986 9.58581482414386 0.3361097747519437 0.42418574175526946 1.733107107472409
P 7.782946241176864 2.8519814586624572 2.143999770061955 0.35016908105848726 -0.4031926844433701 0.8009994219844786
P 4.499002327376129 0.3780155973997576 7.060582803774828 0.02220456112149724 -0.7359425415841454 -1.1062562159113076
Ni 0.326217193044419 3.3765861138498185 7.322740479349616 0.579105505856022 -0.4050713895233218 0.10140970799775438
Ni 5.846565699284161 8.860909776589343 8.510164793777149 -0.09925846598270648 -1.222715362043017 0.6786467931864699
Ni 1.7550277094875406 1.7738881073355874 5.2236616519498345 0.6842445989892215 0.08320912582932766 0.3414694964019603
Ni 6.094894270950111 1.3540912578888713 10.785982425081999 0.8520574170025583 0.3699385503759306 -0.05279966029953488
Ni 5.227176881460255 -0.16156795979533978 2.613594931525847 0.22319412299711883 -0.7907003540513156 1.1312067152090584
Ni 2.6505535223531553 9.192552347598802 0.46553377785649536 0.14265200247699303 0.306728236266033 0.1851284264736489
Ni 1.9656540305880237 1.071426376866326 7.723759456779577 1.547197579858361 2.033590648380311 1.586512832518216
Ni 3.4762383732760513 1.8196945799852193 2.6052218050475844 0.49233823036179086 -0.8812155266237532 -0.1802433304672057
Ni 4.573711386108535 4.825962252902175 6.359039984528154 0.7432899830881521 -2.0335567098185816 1.5654233588377684
Ni 8.389297832169722 4.302776300207808 0.19264218067457983 -0.5529280761297058 -2.165055523892233 -0.4242914140951983
Ni 3.12350998874326 6.3570389649334595 11.966214010595701 -0.6465200878552543 -0.023340988718785607 -1.6216744680210138
Ni 8.942953434484878 5.143603250287961 5.899663190039949 0.28004661320978863 -0.8013007552749812 -0.3589792231509495
Ni 2.1299453428159945 8.659565293367864 2.8209109468093425 -1.634366461666385 0.07378011920594389 -1.566757761378476
Ni 5.565504972060885 6.33741821672969 7.859242763090974 -1.9003797367115594 1.717051853781759 1.0420835378881408
Ni 2.012665936728435 6.03856343666944 2.7677522571224853 0.5809240471219995 -0.45603502505538235 -1.742812507685631
Ni 8.113466831783368 6.992626954360384 7.934699190587662 -0.2541928853714784 0.18533514316781632 0.9814633531029225
Ni 5.671555301553565 5.521562285039305 2.5216899004192026 -1.3639409164861285 -1.7635327709521176 -2.690337813280212
Ni 5.6019090634824344 3.6069351813725214 11.921550845249248 -0.9059845060383172 -0.26749757290018444 -0.16073354256905223
Ni 0.5872927602470985 3.547154952795158 1.78495676855054 0.7627300940906349 -0.9974715556057208 1.9983778479246033
Ni 5.113782680239132 2.23467896803413 8.010061037918152 -0.7702055765320736 0.13788594854691738 -1.0047027832468376
Ni 5.278574710994042 7.249133928633008 0.9035289639878609 1.3603046052851215 0.05259525759821265 1.6795931947146685
Ni 3.596457182568051 1.5849410439385134 12.000318505819457 0.620298435154564 0.08999658106480629 0.089510128346691
Ni 7.24444201058428 0.3308163854400095 6.48030010290488 -0.6856473928740192 0.43781541672356217 -0.33687442083211017
Ni 0.36370895637726436 8.723481086075132 1.0730574211050041 -0.7709884774446851 0.6514152111640266 1.035261629870301
P 7.90245106293971 -0.09489265165071588 8.74555906408703 1.7148257926647177 0.24780189424347002 0.5974251301008162
P 4.704519464988769 3.4401959119017365 3.5586084254706285 1.4302594372077047 0.6581828689051632 -0.37396258393365917
P 7.465351606617646 0.35515037859272786 12.335938080091957 0.8621317705194249 -1.3864550384282446 -1.2140576863680188
P 4.602289432405329 0.7768323405677174 0.8385839165307717 -1.1662379957815787 0.3412357831245994 -0.04202493828153408
P 8.961415112024435 1.6029298206470732 6.2221861930633935 -0.3301229610408895 1.8133782337193352 0.20002694085203615
P 0.3922322945387081 5.2608455661142655 3.8060681577666844 -0.015586284474031223 -0.8397891411581666 1.85192575497523
P 2.116472305415202 1.3637625435110508 10.330080988073366 -0.9841599260984792 0.5102300230405471 -0.6039135660386373
P 4.079965828285135 4.455004004962667 13.370426265774665 0.08241028407711613 0.4435338072645781 -1.8262075242735194
