# total energy = -340865.90440926154 ev
CRYSTAL
PRIMVEC
9.30135178144116 0.00000000000000 0.00000000000000
0.00000000000000 9.30135178144116 0.00000000000000
0.00000000000000 0.00000000000000 13.61346852718811
PRIMCOORD
 96 1
Ni 0.47606177224117896 7.0276733278088335 1.186352038111599 -0.36751220032262516 0.1816818626859452 0.27276010685070445
Ni 1.196488650971363 9.613225811113784 1.3512157029633678 -1.1718633123881559 -0.419228140639678 1.1470154001065407
Ni 0.5865441554395289 3.270717938515805 7.429659136740085 0.01105702914510999 -1.1791325923560596 1.1163146285885743
Ni 2.627185332598677 4.229380333099479 13.276861670987905 -0.6975726835566954 -0.5830794029021055 -0.8194985092299305
Ni 7.936889737842586 3.24631119219169 4.305218902517798 -0.3333967466961549 0.663505052449025 0.18949441675182846
Ni 7.496991620215797 2.2474390550930967 7.222366426906577 0.36148784850541615 -0.8248037234929279 -0.6347009837331391
Ni 4.819151127372787 1.014851858967812 9.07641226157994 0.49282108353548026 0.2298843905331009 1.5382773945505959
Ni 5.088527568033112 6.8759682849177075 10.575391094670652 0.9145046276941863 1.5090398378417174 1.0231707601440378
Ni 1.2984500660647122 3.2249366864550986 9.871547595521744 1.334519525901218 -0.4388245747143668 -1.0868078773787089
Ni 8.709571609274324 1.4433837250671362 9.129518327943329 1.6304979798499146 0.8271236298753561 0.7207213537590168
Ni 5.66110946474279 2.0147936514883846 4.127916540311137 -0.6771498969259693 0.7066738745270152 0.32433952158989304
Ni 3.667002018980332 4.9716467851410275 10.996170284298502 -0.10533552541472181 0.43581612690534627 2.331504885899139
Ni 6.046892319368931 4.883814122969299 1.0643238873019214 1.4653069157301408 -0.6223632881033927 1.6185271806412835
Ni 2.323254371132678 7.756843476944761 3.0253343340380456 0.1762468077133029 0.23874569757847272 -0.0389306156269265
Ni 7.387031042836343 4.060830542650055 12.984593674162078 0.4055367591955145 -1.3355109432802097 -0.8276288516465488
Ni 7.62007640455536 0.9332418009465526 3.660239936443125 2.327074618041928 -1.2533181745305384 0.08511457038215664
Ni 9.245803824339703 8.472238324515896 8.263538320201123 -1.4096715857540238 1.036655167783718 -0.6308983221575973
Ni 6.55743420160382 7.258384050302488 8.578962961710074 1.340520223569343 2.6495272070217535 -1.2938742415760298
Ni 8.377429648722563 6.610275179449588 10.108299545811706 -2.071112813695485 -1.5330058617390114 -1.271282729428759
Ni 7.115189744029717 8.66879448431818 1.9469030869229442 0.38515948109074316 -0.22314501492673824 -0.7776903149448929
Ni 8.698251864504336 1.9473309490917359 13.529336625845811 1.1962193726350172 0.2582667983305359 0.297074772336669
Ni 2.971763200099883 5.663072049908335 4.417025798169104 -1.3303466254704506 -0.2349854592050921 0.9722068675016611
Ni 8.319612447826717 6.313050492411824 7.125820258653891 -1.599941447219296 1.5985862187429822 1.1499366875183938
Ni 3.3642244250997715 6.474252215179825 9.100549268710685 -0.010335834708369296 -0.9408126694610959 1.0302706044136127
P 4.370342315013336 2.645527597747745 5.8397698242677905 -0.7791594432912518 1.7520684790662602 0.5105832926149076
P 9.45742817356465 8.603898954934282 3.2478738192429293 -0.7964966490181186 -0.1451536858529242 -0.19907074758635393
P 3.431324374788097 4.073945448258669 9.229046509485462 -0.1826722516236725 -1.3489950938095736 -2.1982908889065946
P 3.1602922935615774 8.5699769260303 1.1017339230167045 0.7108699148862339 -0.5300542568553259 -0.5968936830773784
P 6.860481534677749 0.6043543832830561 5.677592389727914 0.41213241013516116 0.13300136676110644 -0.6452332507230306
P 7.910362283377504 5.686911413791226 4.929423300027339 0.3708381793720646 0.07976384759320457 0.1640278970496078
P 7.689650513741481 6.373825523083229 0.746010246018476 0.053212322356921256 1.0475900695286668 -1.1129639669487863
P 4.690187888888087 5.249552565122701 13.25814270110327 -2.357653519270049 0.6088847940009837 -1.948487905072696
Ni 0.30375144538213644 8.430028791429448 10.643037033691762 1.95380726040308 1.1519475473008354 -0.8177830692007206
Ni 0.513375073900409 6.181408464696427 3.6321824096570374 -2.1155964979301563 2.853448597832189 1.549732944685705
Ni 3.363396604816675 2.189026567701541 10.896763950460958 -0.48392249549426974 0.11954986924189089 -0.2770240243333809
Ni 9.056288787619488 4.273515245945487 0.9313861813232062 1.3221969997801228 0.8891496938691655 1.1169386353258184
Ni 2.162480510533468 0.10335103700677262 12.798633613983432 1.6211964999433304 -0.9480274420419802 -0.0755832338529537
Ni 0.8026024589223681 1.4271156613015579 11.561196693188409 0.9320279812899303 0.03494154907219143 -1.6617355977079575
Ni 5.124328469939179 0.6844483210105539 11.541498290991301 0.41995010640736713 -0.1959255170891529 -0.30230079662229875
Ni 8.157694520993564 8.15357402228107 5.2620954376143425 0.5110772015321908 -0.36517686732122917 -0.5983085611470341
Ni 2.8626304430035256 6.288280993379385 0.5699170595062256 0.19672101640725476 2.4977261910556408 -0.5246590539816834
Ni 4.378546107032342 2.9569368458161027 0.9503953533744994 1.7281502776877657 -0.2754435672201385 0.8439705262293657
Ni 1.097578079168528 0.7295422031957453 6.935231845971098 0.6764960653920543 0.08496621772975044 -0.4158846780887418
Ni 6.743228697725845 8.437655899655736 13.04531010631906 0.2892190237376761 0.03880231757917833 -0.7312137686499084
Ni 2.4038226777864447 6.872145429453069 7.254454229295652 -2.6329559329266328 -0.3855616016251682 -2.3496879845660694
Ni 3.6870743355075577 7.764675214903947 5.534991509680554 -0.42336118897144503 -0.8694475874545478 -1.2030507937345538
Ni 5.337496843512375 7.188298366784117 0.9176229715153582 -0.3065973671151236 -0.15575691529006724 1.4859101938027892
Ni 7.229596367424007 2.422564901049818 1.787162606474881 0.9860460873775985 -0.2123335261335311 -0.46546583145097903
Ni 1.6475018836352395 1.4664789808303895 3.9681900118903166 -1.3640237060079219 -0.39443010775939163 -0.07479776183718086
Ni 0.8284937009451602 3.9819271779139775 3.649117380324841 0.8198764613946397 -2.35012892875823 -0.19194082140979202
Ni 5.963505703212037 6.886227675617212 5.4441759040842275 0.9471658653726334 -0.6725499362601127 -0.4188139359203949
Ni 5.786798627501085 3.3767905509701523 8.07908972964049 -2.5944667757124993 -1.5191792402685642 0.9575320390983058
Ni -0.23343787875212607 9.012423613966849 12.766193290372678 -0.2622738626073999 0.8979978882884149 1.9397055308943756
Ni 3.6956036748289045 4.9622059133731256 2.3443619280813497 2.765923618236327 -0.8400521650115662 -0.39904086705852565
Ni 6.698693826765532 4.523293739004856 6.4361073726969 1.3491928116426763 0.7970538070731692 -0.6762402406275064
Ni 3.294352672665796 8.321547128937775 10.597240899468662 -1.283151198731571 1.070468259678421 0.04385582084268576
P 7.0051082490808225 0.3863995342302905 8.732358990303078 -2.143916427920772 -0.3145032522257616 -1.6640961275203339
P 1.5838620367032292 8.887246025540804 5.102709338658256 1.0349852362804626 -0.7599337622924203 0.5139560657418827
P 0.19892242362273357 4.676561408947221 12.405980781142736 0.5122766211569307 -1.3336003565210581 0.2546425713143873
P 7.735654998238078 1.1488471286115622 11.59306591381734 -0.36154415566464837 -1.0060371857875448 0.9007690232756487
P 3.0050434357506766 2.101910109594963 13.14493316164645 -0.003817059753245039 -0.5505438921682454 -1.7289154379885643
P 6.170823526694583 3.7495515135026345 2.8727819380256823 -1.8986763808672074 2.0634902641532205 1.9869899178026362
P 7.10427925872553 4.691397064582497 10.41488883353511 -0.4531286500418648 -0.9786117425867406 -0.6646635915335005
P 1.71036041704163 5.331823019100138 2.213073351722781 -0.8933444486768035 0.009814672097576645 -1.4656306176181468
Ni 2.072238798324411 3.4087592960600848 5.8192268593548935 1.663742343725341 -0.38399014337299026 -1.4573467803427997
Ni 6.339531440119429 1.7323953187344001 13.354363322053615 0.20299579367237297 -1.2445532838537148 -0.1680249340241429
Ni 1.0684183422302276 5.5719653120101995 10.628633890901027 1.7640567617763876 -0.08994850143569025 0.10273511167739727
Ni 4.377597369179804 7.923514394392099 12.571820157766378 -0.7524253697305171 -0.10752199154307934 0.9306110463377456
Ni 5.0544846215596895 4.605061920001538 4.699260427136768 0.3541959428296932 -0.7873921156136892 -1.001069043148992
Ni 3.5825271446984677 0.6386196320572205 5.881358957209489 -1.0025728813880284 1.7936840977245174 -0.9692403286741695
Ni 3.1314022958166454 2.1517467509076944 7.81136706927606 -0.2601424180866939 1.2604987514393775 0.7043495972692128
Ni 8.295512646101953 4.34096864699064 8.613404936162652 -0.8068741355977007 0.425244522037087 0.6282799106981438
Ni 3.7406501201214692 0.6623966768850922 2.8512046628264893 -0.3399268345051888 0.10020463194605969 -1.2827632192645326
Ni 5.1922283358561145 3.2941387415814 12.23544515214903 -0.838930135591981 0.940051365815039 -0.9392484102977695
Ni 3.1473820176858642 8.91481523137338 8.229872078463266 -0.48880424906660336 0.21097469811279151 -0.3885322542177179
Ni 2.1322418168216926 2.4626537259952967 1.4310882685252733 -0.5874405080842787 0.8231209364738662 1.1354343801371607
Ni 3.427399204457008 2.879791436512669 3.724046277566904 0.3421012164486883 1.141919473640872 0.03502253882177194
Ni 6.694303588859671 5.968891185727914 12.010958894076145 -0.8896232910714744 1.6439062828360205 1.1332384009271061
Ni 6.582147892527286 2.3165760007589298 10.058869373559325 -0.3707247937226519 0.28962165849273347 0.34893957952676036
Ni 0.533917108678156 5.191660953414892 6.123950295968307 1.5951712795241626 -0.5547232203569156 -1.7087147946709733
Ni 5.452080192585078 8.951750898161894 4.112764638725015 0.40517757608388283 -1.100176842486447 0.24831688620667558
Ni 8.993820910975908 6.856788898134047 12.326205879771534 -0.4079728794408328 -1.3488415989508449 1.4529450517306783
Ni 8.629356753977385 3.070106389461494 11.06203222410278 -0.8928333133683397 2.1288937292596946 0.06357489653816793
Ni 4.107802367702182 4.855268275229699 6.977147456350288 -0.6772979924680593 -0.08934532063405257 0.07561048754646334
Ni 7.087332196300783 8.520493736074396 10.434804887357211 -0.30004053983321227 0.610598948478613 2.515755023532893
Ni 5.423748275929874 9.307025319882891 7.121668135346313 0.5999054733205087 -1.3277264142387843 -0.18434346867850832
Ni 5.526974674826607 5.450005991201588 8.933253300442852 -0.25002975513272424 -2.807228390522385 0.23480933863854397
Ni 7.070022381167711 6.4219042089633165 2.808663071491655 -0.42361701373599303 -0.3815668786434784 1.5741296283625148
P 9.157933956761992 2.0577379913429725 5.824481192814685 0.10278730507157137 1.0669777300266592 -1.3483775148302326
P 4.711274052728318 6.851040662909846 3.48405373641592 0.06123133600665583 -0.04347272647165416 0.5026864063653341
P 1.5201663816622462 0.8901449189274387 9.18190260943067 1.0289413440792279 -0.06402869624613489 0.9064151658178324
P 5.65922129038921 0.9428407956898782 1.668806629235615 -1.064756039784992 -0.71454145020055 0.7540235674555724
P 0.6651452262520037 6.6347284325311815 8.688414755162727 1.4188586515699306 -1.9915227726759834 -0.9304863478344233
P 4.8259690180189665 7.03876984014293 7.290978776348066 -1.1384914217959294 -0.1931042455902739 0.7956409858860426
P 0.054070616513470005 2.3623479514681414 2.0547485369723284 0.7903185452318647 -0.41851594506400175 0.9343111208971521
P 1.8897741860377635 7.190977156014812 12.110241519938798 0.6197024534417779 0.48598811977404693 0.005064301896784826
