# total energy = -340862.55828797375 ev
CRYSTAL
PRIMVEC
9.34971076161586 0.00000000000000 0.00000000000000

0.00000000000000 9.34971076161586 0.00000000000000

0.00000000000000 0.00000000000000 13.68424678287384

PRIMCOORD
 96 1
Ni 2.706788049424145 5.224188355185364 3.313585220756011 0.6331719486831225 -0.20687096035706307 0.4701894621788934
Ni 7.292288304423976 4.50456915758937 1.6566144983856685 0.41186810073018104 0.18737017131997408 -0.17708061646850792
Ni 4.682942941831141 0.8200294826618326 9.12012592816746 0.409952628875023 0.27559757629949955 -1.7195800195202515
Ni 7.526031076519807 8.684815544040331 5.740404592503565 0.3082819539063981 0.011320310108825664 -0.20862985202969878
Ni 4.099670578054088 4.843440078863023 10.506805858597067 -2.0795357476518577 -0.05754488829400412 0.2747653102061913
Ni 6.551604208206705 1.5061449262766984 5.0459015232548134 -1.995729611668479 0.46888359888327635 -0.8415063809595894
Ni 5.399373888015747 0.17672262529968577 11.143095757940896 1.0406303503813819 0.10183445423999882 2.009606112540255
Ni 0.9696211169188111 9.151908400374875 3.569194161695864 0.12004532082107068 1.2461543097922474 2.0121504762286637
Ni 7.057591861817993 3.4791863649593773 12.936457257771334 0.939899156507891 -0.01356154073451858 0.4918432930032432
Ni 6.165199356799645 5.083437807540138 9.844871572241058 1.5530728076922156 -1.1809040824341857 -0.9590127374088903
Ni 2.663050101909573 1.988646106147797 7.472433858878232 -0.9796018744141517 -0.026526585535618836 -0.28600000257974617
Ni 6.645148065599457 2.3922357261593428 9.914784035374922 1.1479967901832033 -0.3536858359624941 0.48845894991204264
Ni 8.299373712854306 4.01911346907898 10.53557024413118 0.5174396534151089 0.41687352436457237 0.6491544401543078
Ni 2.8676124263369607 2.636702616638931 13.317126061551162 -2.233884469740488 -0.1716188220229883 -0.009533393411731969
Ni 1.5202442902895188 4.147307355007218 1.0118677855474116 -0.06744363546495481 -1.224167006887879 -1.0811180260827833
Ni 1.2105164178407748 9.149271781905634 8.431343947008525 -0.41461635289927945 0.5477059084988181 -0.8655035152051352
Ni 0.24858543812391654 2.2333560891103645 12.749393852234128 -1.0056088400008745 -0.09860437733847534 0.4668112897352799
Ni 4.947829600881021 1.8489053272780254 6.844887809152963 -1.2241423242975304 -1.2516595558811927 -0.31580217354284323
Ni 7.852158341858795 2.5999769522872342 3.145802789003447 0.08669117084065715 0.24764428561968319 0.8074575189049965
Ni 5.089300076264301 8.893276697906279 5.632381772836109 0.12577656687789307 1.1481209744658938 -0.5156095421849055
Ni 3.7714302780553535 1.5883569340782442 3.3283371945885234 0.44399737716455795 -0.538230364908215 1.1717386138848334
Ni 2.562176071183896 9.127627201209558 2.110535482027066 1.6226296328454315 -0.4418168245734714 -1.667725239632489
Ni 2.930115243595386 8.040975753157808 9.559308962542671 1.5595396463634819 -0.633654801856812 0.4913707242421989
Ni 1.7158589414010779 6.361935973217264 8.079617173269602 -0.04439498117560741 0.7325617980373706 2.634317074940218
P 2.636375376757997 1.0173233418481282 9.489546094782948 -0.5074187788439971 -1.1753702971001498 -0.5154033397113704
P 7.0368916019211865 5.239428383926012 6.609299404128665 -0.8201996490620133 0.20772636637882289 0.9759642776615645
P 0.8456504953968008 3.582042534392427 7.456217720321313 0.24133274157935858 0.30792688455982453 1.0032845627430722
P 3.8395055230005433 5.828965053995234 5.2811748430223275 -1.3011337513519203 -1.8738778337662887 -0.9191364700392428
P 0.1579325113364461 7.3265549948132245 6.970755487013303 -0.6502366174748929 1.5989641709076914 -0.5805895466007162
P 4.6939382018305285 1.6979916439020726 13.136507411726184 0.7850776085478997 -2.2023707154029233 -0.6113684796547858
P 3.8435632975241267 7.036704607703509 11.687728571548332 0.15479686536964307 0.9514598647622968 -0.4698390208180102
P 5.793408103504016 5.244187386765883 0.23434956833219203 -0.7902835782288713 0.9436496246892586 1.2565693344779842
Ni 1.1031910866052528 6.6976186430795295 4.050304104587448 -1.4177990999571648 -0.29232414502556103 -0.979134704969746
Ni 2.168235352804466 6.997248827773733 6.04148585232694 0.5782246459129655 0.15257517512797594 -0.1308177288462263
Ni 4.101792962424717 2.1877949479734453 10.95304885966066 2.0689703134311848 1.1136113707247983 0.6120431371243072
Ni 4.7034468577993875 3.920315074169514 12.66809624615702 0.470610608876712 -0.09429906509490212 -0.33030448092407627
Ni 6.946966082640478 7.021492628095514 2.6526363939271596 1.0633234211035236 -0.07217780771583053 -0.25828016806697457
Ni 2.917053697490671 -0.07273514084969239 11.709582585768205 -0.9941494332110234 0.5465363136707491 -1.5111437715585976
Ni 3.204940645314781 8.983202217186987 7.0446088532847035 1.3362190250908277 0.39666542484781364 0.750465674900985
Ni 3.217712350382097 7.874214309833758 4.124172430396261 -1.0041970472550126 -0.3098642107918534 1.0662421374122155
Ni 1.4752441318056295 -0.2048138316501628 0.008136118411111695 -0.06015764332650285 -0.035111756101468564 -1.3466595036978615
Ni 2.732462355511151 4.405228479448642 7.9183486850898035 2.391192017347127 -0.6993883966091955 -0.5100011948591926
Ni 0.1286258425710708 7.005467223640624 11.999469436750365 0.8012038246858009 0.6639313413531662 -0.4275114636943928
Ni 7.41137557195136 7.644463864285322 7.904691562401789 -1.0190868198826513 -0.4300077477536852 0.3273839648431716
Ni 7.181625126402926 5.8789673078019735 12.304833799129625 -1.0742405822366596 0.7569782792085221 -0.7714571895509874
Ni 6.178326350880546 7.641930092635803 0.3911638542469317 -0.49275089241917724 -1.43163780561247 -0.5143993239268883
Ni 4.212007354323344 6.81020786154265 1.5056643511372694 -1.1612117462115807 0.08234986315282591 0.11620820646316761
Ni 9.143549758844728 4.9579646874790955 12.97144855075408 0.3355778135078737 -1.6081941741463917 1.6103970953349815
Ni 9.212990061578957 1.718000025193476 7.764250490186818 0.9836912139921768 -0.0814008689759953 0.020091885653868623
Ni 4.968183921475125 4.417196109379948 6.720744217979602 0.24129854590731348 1.929019254825123 1.1152856731034275
Ni 8.744878086758076 1.348434003088199 5.071313102465983 1.9063724639598842 -1.4709386600946215 -0.3583408182360022
Ni -0.3809240508869575 1.6163125696209055 10.083551926654643 1.9865746846420882 1.2484281934280888 1.950275850211054
Ni 3.687002388774339 3.389718981511977 5.33254589450246 -1.6435995502288792 -1.2107155093686632 -1.8915364273883166
Ni 5.8983960070185795 7.279759691839639 10.624052168051422 -0.7823398979017623 0.123820985813419 -0.34010269796142073
Ni 7.585803778200153 9.45508212549405 9.554149792076972 -3.3779261319306855 -0.11407856171467451 -2.1719069995964273
Ni 5.406554465974531 5.372661764020636 2.9632141550952444 -1.1792850587735237 -1.9666463211492777 -0.7790411725458325
P 7.370694979895801 1.2663154923954916 7.03968249062001 -0.5880688856968969 -2.5151996652500554 -0.932181476148659
P 0.6950416125956612 9.558396430760407 11.593841579766144 -0.2630876167579469 -0.36180049464982855 0.1776092352784683
P 5.005582765010458 3.079953710219698 9.01787748994186 -3.111024540743287 2.2060486784751427 -1.219852952893557
P 7.7290880974948974 2.2794875626111977 1.0558432157184328 0.9285474789404976 -0.5043103151220024 -0.5039218214343322
P -0.35137896449404443 4.4951072501749305 4.027848903957746 0.6411801636995796 0.2534560072054538 -1.3220203649929425
P 8.252213771156251 7.181484880739668 13.793857534835848 -0.6633065632849737 -0.7825111333723039 -1.1245933236575987
P 5.222112719369153 8.166000087096425 8.69154920581887 0.47036198320101574 -0.3655872153857704 -0.2370611107871982
P 2.454710494285117 1.2529828046751452 5.233294038615129 1.8881955359405416 0.09896176067789407 1.5061635447351867
Ni 1.1956690769572476 9.140660698181623 6.013569485569992 -1.9633098005768768 0.019366063231437615 -0.3113783334435347
Ni 6.60854394748925 3.107507308194354 7.503702096987037 2.7875694786408762 2.1736509788707274 0.8890735892155914
Ni 1.4160885110436165 4.14957933475199 9.763874091883324 -0.8115070063840218 0.5944503637432085 0.13572005124385014
Ni 5.6201486111157015 6.817491286321156 4.718410135097874 0.8893422694959459 0.3577569207080742 0.5199629340575949
Ni 9.164988645901357 7.962073543009138 9.761219708963404 1.3396277936620606 -1.1335484759683574 0.14181485128767835
Ni 7.080433205507198 -0.016232968036511287 3.105147441167275 -0.29340323702235277 1.0740395219694472 0.13738612609236342
Ni 7.729808025232953 8.556668406666514 11.672676471996448 -0.12212148662380903 0.6857620640750125 1.259240196441928
Ni 8.645154070471111 3.4448074780395226 5.870637650375567 -0.5209360966041415 0.792212676930784 1.3250491245169373
Ni 9.565221719705606 5.669636630823831 1.8204017986775711 -1.7192540036394004 0.4196667708389934 1.5032458568677594
Ni 5.4583051157165485 2.7375579479428405 1.229866579485956 1.2240266246552727 -0.4513790143406098 0.6174941329365494
Ni 1.940308100878379 2.2444541959294746 10.98279870472193 -2.513460828182078 0.46693316002512486 1.1863743615201376
Ni 1.440266863389209 4.667908606729937 5.724818624460216 0.13092057297267776 0.38658515779367614 -1.4374173884087245
Ni 4.1141719796349125 8.60597878186785 13.452408898271523 -0.20060955282838352 -0.578747608295971 -0.6391327942522477
Ni 4.99146470157587 0.28849654897373556 1.5739209804736054 1.1162099846899098 1.3290600454485435 -0.9747910832890695
Ni 8.176873800854324 6.364245351805571 5.024321455563837 0.03375884161799993 -0.8703911823147398 0.6220411288772836
Ni 3.1125468023607405 5.5939413715083175 13.212715035198132 -0.9498719514498867 0.7358582094004552 -0.3740859968854009
Ni 9.352141808663045 8.090435723733286 1.5458409937761892 -0.9133396608518077 1.3712891293210834 1.8758688960543886
Ni 3.766194439960407 4.28519689112199 1.4353274111292802 0.6745312283561996 -0.1407756113898866 -0.05095875043605417
Ni 6.633984510804161 4.301240994998649 4.689673798696412 0.614556133354148 0.10561063345297941 -0.019345494406147325
Ni 8.701158838665272 5.65851047487207 8.00652954831959 -0.011014091722316516 -1.8749677243963578 0.7272784381512443
Ni 7.4132174649954745 0.13552499423225134 0.41188094362332944 1.1432158238547925 1.5862318109426876 0.142469968373174
Ni 0.43757488410319156 1.1480509994258847 1.7255012982355753 -0.7376016744541232 1.6594480872253616 -0.6424245776296419
Ni 1.3627671098731153 2.2731578083428428 3.8585742583481215 -1.00690750420764 1.6302043598688953 -0.9770814219851431
Ni 4.485664042182259 6.945797368779999 7.051027429806454 0.2948816213400921 -0.22430869621753627 0.6848830039041689
P 5.491487239643273 2.8479312849264917 3.6042387480306473 0.08908769609729174 0.45108359458737796 -0.37196843632176585
P 2.43669360141197 2.312295698102569 1.859429361848868 -1.047544303892396 0.17573053019851673 -0.9279530398896083
P 8.658112769756105 8.01632056555714 3.765384754997867 -1.4526460324330206 -0.15321049471912968 0.10997662373115898
P 1.566216818705327 4.559695052960451 11.95554356004703 0.4300290879099239 -0.9453223844059913 -0.3278735028850805
P 1.7316132042403372 6.998847628334869 1.1684735729094418 3.1502534043369232 -0.18609259015913113 -0.4647508076618254
P 7.353800052328714 1.7384291434746515 11.772968015734063 0.8354007822824838 -1.9435976668599302 0.08357036582348833
P 8.022042588618044 6.206272636712324 10.20438385023295 -0.15545121112419036 -0.23732773418502354 0.19869716629701908
P 4.8638224485897785 8.313501125999778 3.085578496287412 2.4182842455782287 -0.4447903053794985 0.30687401781527796
