# total energy = -381165.28027902846 ev
CRYSTAL
PRIMVEC
9.28779810350182 0.00000000000000 0.00000000000000

0.00000000000000 9.28779810350182 0.00000000000000

0.00000000000000 0.00000000000000 13.59363134949694

PRIMCOORD
 96 1
Ni 8.589300056718516 7.597028847282058 6.786552356085749 -0.35588232939318065 -1.5519307236679722 -0.6258777290145543
Ni 8.377296774804211 2.527590692343845 2.2200168956407036 1.6815513468823042 -0.5940896379696801 1.9485763510214442
Ni 8.430878082670837 4.286597507312219 9.637436443601146 -2.1034531776994028 0.24292939664251714 -1.1838996747273998
Ni 7.777174981340143 0.8124120683430252 0.8051313633271387 0.10110914603820007 -0.9876005763489122 -0.4506426503952175
Ni 4.260535945538297 6.683889678584664 1.411902291528895 0.6189108107784179 -0.3783964513352967 0.26129684340611126
Ni 3.618386865179362 8.863485147640805 5.62450112417206 0.8883865904508957 -0.4147431082851309 -0.05825759809031258
Ni 5.485039261387848 1.5457682558922987 8.476567548399439 0.4374258945946273 -0.15002489790229648 -0.46439522409461964
Ni 6.987721421389475 0.17245212202190618 9.881306161169878 -0.9963906638367162 1.5951357983005368 0.7374520362501363
Ni 8.35357573817891 8.033620377683603 2.2178147586853947 0.6853864259031487 -1.482422235254189 -0.8622148171515344
Ni 1.827169966022833 3.7484439034973325 3.752317844130227 -0.15437649000277284 0.973036305381492 -0.007202945506342434
Ni 2.0968876260066844 3.5155245000167876 6.153211823548048 0.4641304004690071 1.729674684752092 0.21404382395641844
Ni 4.612571361046834 3.1281675879201454 3.14049621126252 -0.9727552838059633 -0.5281377565589034 1.799797666821423
Ni 3.947351389937214 3.1396101553133997 9.344547584645953 1.0548372380093836 -0.257265353649215 -0.03416713280001212
Ni 0.12309490478064647 4.609543538830762 7.496996474233708 0.09244298572276982 -0.1635815535408086 -0.026346865424644945
Ni 0.05901838493806418 2.497219592201035 6.034050301308834 1.3003277105108573 0.2749578858329716 -0.560582250240854
Ni 0.287612460792766 5.742979993242927 3.270844886444247 -0.35629139190614123 0.38798306658246734 -0.5120045984424666
Ni 2.6932757245908117 6.331714946102995 3.802804457633678 0.35912037671450414 -0.8271439415903303 1.2146685804791404
Ni 0.6597197370103629 8.688419439202939 11.109979698415184 -0.15495473110374602 -1.6912924854294675 -1.2199159449210086
Ni 2.6939165826672196 7.248559946285704 10.440344308037094 -0.8428981191007935 2.9309352193554425 -1.0949914416307658
Ni 7.514144536066635 5.205262915943854 0.42060351456489986 0.09005006001056104 -0.2950268886687048 4.104116993444706
Ni 0.6766634672826956 0.34587389017681214 7.1633137479857805 0.5493771255536538 1.166964589534958 1.8485635233712165
Ni 2.0339627931419946 1.2226271806113707 5.227906567976935 -0.6754640245831142 0.33703151523526476 -0.9045511160259003
Ni 8.224558933260326 0.22083133411177816 5.721029210956225 0.6148682652779281 2.4244106701909405 -1.080278046679991
Ni 5.0992426993902855 5.541137562569062 3.833104970510101 -0.35823617433733784 0.31016734385456907 -0.6410017291401864
P 8.89747848908505 3.8689809486512727 4.098602254987869 0.8318706576420384 -1.052359723003168 -0.3355834699348285
Ni 6.2587871545674165 4.753550850058366 8.13875175194859 -0.4567410499834715 -1.4264896857526272 -0.8723596188950201
P 6.6001230265394035 6.381804041843108 2.261545427771757 -0.3892683610527941 0.13272805849506175 -0.79508794159605
Ni 6.237945335386846 2.2827364681649787 1.7474611530150024 -0.7698538496196096 -0.7476176639292286 -0.15573171847908662
P -0.14942767026226544 0.6028942012293987 3.738113085549673 1.4338278712852532 1.2487076723417203 -1.5587660014222509
P 4.343178774000291 8.333551245240715 11.886407121377994 0.41352029162162335 -0.2137013530153352 0.471696128631407
P 2.4439819328681343 5.472927972523559 11.31029521506352 -0.9678015393451139 -2.217044515365014 0.5649847501839237
Ni 7.205761772139507 6.737991103150984 4.320667937481598 0.6615841812772283 0.01555928789083772 -0.8922262759119602
Ni 0.9742435931131568 5.662361904790454 5.626539795878894 0.10582532056694678 -0.27569219289583485 -0.8356123840726576
Ni 8.401705108496964 8.082176986719263 9.040907170484246 1.9572893054144098 -1.2748599052570562 0.36553605043286075
Ni 3.969957890777458 6.048622856698457 5.986676028985155 -1.52903247891356 1.3993072118005643 -1.159100870516165
Ni 1.7364003141281303 4.034638117503613 9.148459873742269 0.47254022179925714 0.3351173289316874 1.0433798881020613
Ni 9.284566055033636 7.967184757095984 4.564292457177618 0.80013064622628 -1.9752700582625464 -1.986487524244921
Ni 6.159834952450751 7.414170676147001 11.134652734356889 1.7100867353178355 0.11866823796788595 1.241346603990959
Ni 4.8377540286194405 4.291204255223789 1.1498145577735814 -0.20619553155659326 0.6014687040425706 -0.35468265265812465
Ni 4.726616235252815 6.207267737903146 12.788657275455378 0.32602925058749016 0.4692255556037274 -0.6723128805486422
Ni 0.22143132587606731 4.090197726388716 11.631092050076544 2.0993067596311974 -0.462316744299036 0.30843184922070105
Ni 5.398792767220835 1.3875877645980506 6.033247835543592 -0.12019932990043171 0.7924983264920029 0.06500802944026869
Ni 5.9908991908307 8.593033751598457 1.3814661767986236 -0.30864267967992653 -0.8012493332117555 -0.4031186366723251
Ni 8.321997224268955 3.144597702951531 13.425777013084243 0.62628113510056 -1.9116972186069077 -0.879801419885046
Ni 5.330898962314432 4.120364494970932 5.669903596936008 0.04874837304829669 -1.790112578323175 0.44497105393173697
Ni 7.238018295318704 2.851261172122675 11.017665485678357 -0.31509923393854766 -2.7317706265037014 0.045052412253948224
Ni 7.506983643647641 2.1602768487818147 4.777400058298949 -1.435285429667386 1.1800898140630063 -1.4489590704997368
Ni 4.722167379910795 1.7150290904496577 13.33075819350901 1.9438437214324653 -1.3051189612519136 -0.3080073600887728
Ni 4.642886734400391 8.804693384979034 9.540378023539256 -1.468539820845142 -1.5192342618762158 0.21208207224435732
Ni 5.001683667004942 1.1706433740366593 10.914217989228627 -0.16282282099791312 2.3223260476133487 0.5678499875468608
Ni 7.5308997240353275 2.78337665501448 7.2612554376573275 -2.4688539881059803 -0.6981648086147395 0.4122632792860706
Ni 2.8668089463242232 1.8791073336065005 7.484123585916296 0.8303706760577441 -0.45075783581684303 0.3994303891874605
Ni 2.9352971703159905 2.4145767637390407 0.5325279844398102 -1.3314244319156616 0.8403550409639657 0.552104808897462
Ni 5.094087971384396 8.358944085543602 7.385719363893952 -0.6305211413238366 -0.0033784295539296657 0.16002237543464054
Ni 7.174006790063584 7.302048376170242 13.528667241641443 0.3734357648959117 0.912382439144861 -1.1135668906401082
Ni 7.2685565758292725 4.880737958729814 11.92569265024162 -0.9248515181461492 2.1734077525116695 -2.3168570540789775
P 2.1146644717783474 5.044054602433534 1.9347542477947666 0.3260387636691869 -0.9243365261829436 -0.3550073829873951
Ni 6.323550971477451 8.592727254257566 5.560257423961719 -1.959185493995858 -1.680657631423441 -0.816080227577001
P 7.9594387333898355 6.068768091013367 8.05445755296507 0.3762205267299005 -0.4923117479992295 0.6587657379918268
Ni 2.9140838392070676 4.714365629415395 13.261743351358803 -0.8637870467346608 -0.14567639112561362 0.6567636199601334
P 3.78905944506446 2.615741185143663 5.146399637235877 -0.31993573609524256 -0.35507577433148524 -0.17929227940784606
P 4.947721559411754 0.719940891816468 2.5220672387490652 -1.0250553787612604 0.8607767991534272 1.072181899935418
P 5.772050801636503 4.130543921807789 10.031760133134217 0.4060664064467394 -0.4813261955220033 0.7743440241804792
Ni 2.4436289965361992 8.135349631464702 13.205533596599084 -0.11641080939227694 -1.6410014504843997 -1.3599505643798129
Ni 2.7313742728433517 0.3243624207453866 11.398993687957658 0.442299934857477 0.5520163629487138 0.727475898874031
Ni 0.6844178500072313 6.054724940121645 13.28313965209244 0.0007741591618631829 -0.6833534546335199 -0.2839611177728464
Ni 4.544231741826408 5.989208811556697 10.248524340410357 -0.009824185179273403 -1.9914474393533574 -0.15927289886312568
Ni 0.1541393702935949 8.308799263014235 -0.023098754145311224 -0.33252180029036926 -1.1498428422530067 -0.2970290067003981
Ni 6.339423818616307 0.14050116740377785 12.487518065351301 -0.02594011690452952 -0.35327214546384317 0.4657005731696044
Ni 2.1285497301005187 0.4149165957216453 9.200087957645582 -0.726856005901845 0.691941453412847 0.6083322639316233
Ni 4.913746793563926 3.6261793278765535 11.97654706055414 -0.5756977657260537 1.2355415672734076 -0.6040755455377984
Ni 6.902069346307827 4.086334002333851 3.2138605293139126 -0.05790484273658415 1.3389461942140037 -0.14841667287491214
Ni 7.073020560139189 0.14847195582657885 3.408888502441974 -1.7151492374424075 0.8647028736807109 0.14875425871998896
Ni 3.5555920614895955 4.741987541288397 7.688013976095205 0.15884429596613933 -0.6806396552467827 0.6351447561387771
Ni 0.4799079636877954 6.017397279120436 10.054488304130995 1.006385570265899 1.1617516778754509 0.17556340849303312
Ni 0.07239188557893014 2.5095166370295 8.522527289055915 1.4008015369579037 -2.2617508571334533 0.9427893335714925
Ni 1.0479329841018576 1.8103776268613043 12.935210372172017 1.0663714639012278 0.3199395927499845 0.0035481223625745345
Ni 8.631113724254579 0.6357005620625585 12.265805319189507 -2.4034698062732156 1.7795497152056643 -1.4348264877530965
Ni 2.287278201489087 8.691800197750947 3.6020403403318553 -0.48885747090204196 0.4422492841251996 -0.22100071489022585
Ni 2.0245728291528877 7.091577580960393 1.7893844165699302 -1.785251136465816 1.6895541625821224 -1.416643903306799
Ni 2.8675333945845107 2.6025432238889437 11.279641765855164 -0.7702228029232542 0.8456831380450983 0.8005957587881567
Ni 3.4753454849654744 -0.16694260012443993 1.1979847944037552 0.3244359379584412 1.1032053449001258 1.6338455561659089
Ni 1.572591417119343 7.808456285707416 6.169809118947193 0.47102404226504685 -0.5482080449462172 -2.8783109082915077
Ni 0.8158996365704334 3.446293252168316 1.108886946186638 2.0255634072004596 1.2914000690039245 0.6462506362439514
Ni 0.7671052599006275 0.5156056161033579 1.4695535125706223 1.0393743664870938 0.945773355900481 1.676114749247765
Ni 7.847511477175463 4.6456637860648256 5.702148045977535 -0.6088899362073061 0.41649840041334074 0.20716869410313998
Ni 6.160029996213137 6.185042036789462 6.3081657337445565 0.8478426075902623 2.0974977314469165 0.584146153603723
Ni 6.206747621203452 6.956096468488476 8.973332865836225 0.050692127038228826 0.5863927835460546 -1.4150557328840727
P 0.8538681556480499 2.0175698293034445 10.685152093224918 -0.5808381722764125 -0.3878622247338868 -0.3311601440561523
Ni 2.529596856756948 1.8953609804719185 2.6935785068124187 0.29853130227753744 -1.7390386424654956 0.41070004856400877
P 2.667399918781066 8.370563121102824 7.726551837203022 2.4113335252920085 0.19464870725925834 1.2190155445939264
Ni 4.613862364997859 7.846731302125923 3.4416623559814026 0.3568896876117724 1.4541431858038376 0.7917977008805525
P 8.549817626532862 6.928168059274584 11.590256387691868 -0.5751472925392224 0.20404043288680343 1.035855554700558
P 7.609279453119479 0.4313049156610911 7.648076443797321 -0.7290650977380218 1.0064786442003375 2.427860062192122
P 6.320495285866752 3.3552449663273483 13.50776040787341 -0.948017157629335 0.05750889284974612 -0.46068357957098727
Ni 1.7608272234173012 6.334491997767429 7.908801657555402 0.49175818948860467 -0.36101656529595244 0.8899678188950866
