# total energy = -340856.6709694257 ev
CRYSTAL
PRIMVEC
9.42572789728457 0.00000000000000 0.00000000000000
0.00000000000000 9.42572789728457 0.00000000000000
0.00000000000000 0.00000000000000 13.79550554485171
PRIMCOORD
 96 1
Ni 1.845840259209899 4.300356311601325 5.25714967891001 0.24890206928618425 -1.3509457897780413 -1.4488968498032337
Ni 4.200028865760391 4.083866197351552 7.813926393897535 -0.8807177610517284 -0.08205752872338772 -1.5610403992787245
Ni 2.268980027970818 0.10183650484874468 12.26392838648387 -0.8950187510554327 1.988935728675097 0.36728979989917393
Ni 1.2298689527738735 1.361225894265724 8.450188464394232 -1.641280415177399 0.317121406574899 0.6507618938507438
Ni 2.8716893355062245 5.954401863185207 4.074005943584717 1.1652517206089092 0.6582160361359438 -0.5014695032390977
Ni 1.3514325631656932 7.669196229917981 11.373001061902716 -0.6147353392444896 -0.03196215472889335 -0.9924890147894649
Ni 7.789317703968796 1.3710097996380364 10.612923574662135 -0.787819947179727 -1.2194215217830937 -0.42876744758868096
Ni 5.821715894084978 6.553472839821082 13.065777871256703 -1.2661451510918775 0.44561434394269056 -1.2799918271669826
Ni 7.541967757167049 6.359849541017581 10.243632045787034 -0.6075563049975472 1.1364458521208105 -0.9117242367355718
Ni 9.167830382871148 9.370540083195756 4.339059292188272 0.1121332650628456 0.5495799855930793 -0.022262410942626175
Ni 3.673055280447073 3.2518760630517036 3.5668970794391712 -2.037814456653671 1.6641760888286499 -0.7357507372883135
Ni 2.1965338847226574 5.754981741834526 9.669103778985866 -0.09292378201393028 -0.06171804583508726 -0.2061227693371289
Ni 5.53142233179551 4.363932845065915 0.3176649330126441 -2.1802029210566323 0.16838874512146484 -0.3101855986870142
Ni 2.6749272693722985 9.420194816819398 7.028368336914206 1.3618228417018612 -0.5709067720953135 0.5811341062502765
Ni 6.835773385004846 4.672295527392689 11.778726798702802 -0.4356454056554368 -0.3407961244840195 -0.6368838503170708
Ni 5.245247812519242 1.8120207481541613 4.062376480725026 1.4737540180562296 -2.9206178965898344 2.0366821428214408
Ni 2.615394373099155 3.4059584340740403 10.788733190649516 0.506535090687463 0.5889428036614179 1.0853222939721179
Ni 3.29719496192461 5.1874115472355165 13.136466116285272 -0.35020867604717104 -0.6302504041609532 -0.05388466583359753
Ni 8.82600636714196 6.610743561441668 12.571430499869898 -0.3983826646492365 0.2555221457058631 0.24087714209917868
Ni 1.7848558008680309 1.1976706668858021 3.646537880655237 0.7683952627962122 -0.17021988479293262 1.9946798302477262
Ni 7.622548303436697 7.169736343816397 3.545486538925484 -1.4333889839756218 -1.2767602076035625 1.5794448699278412
Ni 5.577655526257159 7.914887248641186 7.644958913661369 -0.6468399330885183 0.6479331661526969 0.3915527862115966
Ni 7.081341869267704 5.97229189439585 7.669804189355856 0.08136153109762763 -0.0016218518741391423 1.4604148777451624
Ni 5.310784897349382 0.9173655482601485 7.104754434348904 0.5775936971971859 -0.7687719294093405 0.2496505174164346
P 1.4425982016637686 5.6706591816604375 11.92402062119995 1.139324459220186 -1.1778323854873973 1.000629127398096
P 0.4772387330040648 0.11146111542260581 10.398444910707594 -1.0124225204885982 1.813044247418684 1.8876288648037942
P 9.346353665868827 2.471397530736138 13.53984673202887 0.9190369683469011 -0.07329829447351892 1.0628539376662727
P 7.712450894420429 4.9714209965548495 13.623447281459683 0.13781909986472393 1.344437299235562 -1.2751630383197716
P 6.989016866260193 7.88889109159221 11.895836752747398 -0.5852815527597468 -0.4600094363220981 -3.0637337260771234
P 3.217019721946877 0.9613299700598356 10.484349107992928 0.6561612104894441 0.9932233218523282 0.5609306347192081
P 3.948258252658437 9.10424442367884 4.863080739580002 1.8283857628717608 0.3673142253792061 -0.655731064930561
P 0.045413156150095974 8.400086008703939 0.1570477049627312 1.2505133580918915 -1.1669974996554227 0.6796441241027328
Ni 2.4271720162786345 2.499919782813803 13.145267860829263 -0.25072755253069723 0.26829410065955084 -0.07690632353975142
Ni 1.4901981266446704 4.603940149974569 2.32292818057046 0.8194229187969888 0.8704212642217268 -0.635048596880545
Ni 4.771972598021012 3.2158886346205984 12.053670563401893 0.01668157442073901 -0.4132151016763787 -0.2987722146437499
Ni 7.135115645904545 7.97694623994302 5.9673839179725725 0.3674733766648897 -0.14718999955666265 -1.368806986329178
Ni 5.451407329189001 7.956105955956331 10.172116221864739 0.9677514028334688 0.16017535607273703 0.1853503126764679
Ni 7.298963070843755 2.5609042411556713 12.822645937609204 -0.4860220583357759 -0.0435917685480217 -0.22574260045058542
Ni 7.6705064060709205 1.1916193496902103 1.2691478453244502 -3.770886082902454 0.4770219117196946 -5.234289096741663
Ni 3.332616846692576 2.308247609648132 8.805008673502364 0.31718594126424726 -1.2332869669112758 0.38819286860042823
Ni 8.144507401603512 3.7100135588332344 9.198414984173729 -1.6474533767573307 -0.8591235798207204 -1.8926779971919276
Ni 5.375586775417442 0.9884572144350902 9.809694163351242 -0.5604344118090799 0.055068915949685805 -0.2774623974223802
Ni 6.863192826939389 6.292153964539791 1.236903373370556 0.8138312836418242 -0.5396568129420964 1.8245324505639418
Ni 9.404369019979214 3.4869537123633254 6.545056607540796 -0.089922019073129 0.4898722853198015 1.287180374495622
Ni 2.300527938646279 2.3397578174127176 6.621414427792337 -0.28236420559937175 0.964234390819146 -0.6587312852094656
Ni 4.224611163651518 0.09804170686907912 2.5438908026228937 -1.1130858372386314 -0.4110445763876211 -0.6718791354453332
Ni 9.182628775389963 6.426470584535405 1.8980550204820186 0.5887078048324764 -1.000230863518413 -0.7596725382112336
Ni 2.6858234106154515 2.228685041972134 1.8088800956781936 0.01763056859756964 0.811093572995687 -1.3443102867393946
Ni 6.550089003569965 0.11288534288094529 2.9490377997410318 -1.2331347576041278 0.4040072099248655 1.2939714292755264
Ni 8.398436506353116 0.8752655354032777 7.002157273273237 -0.1196797099515358 -0.35487754227775015 -0.49105216456051565
Ni 3.7617985069213677 7.85986927594544 11.825479350761766 -0.13672535257991292 -1.3266964303123732 -0.9703222488844386
Ni 7.34746786568568 8.93870036775021 13.601044211817188 -1.7898279572032207 -2.7369328874309313 2.7133147337913592
Ni 5.934089419950782 0.5717806671710828 12.137437005640562 0.22956351685857238 0.8658156471289153 -2.1210192116076247
Ni 1.5207846130927944 6.588847595950454 0.4012617121523704 0.21964651485517653 0.39193716613420887 -1.5780554457794824
Ni 2.1119945328110323 8.208696607369838 4.930044879586798 -1.5401185615243929 -0.6461063973566034 -1.138994072463961
Ni 9.398854969263605 4.9309751989126624 10.5119957099655 1.1154412248446854 2.7051774493962055 1.2598302646174433
P 7.265690251995719 0.5365642632673906 4.974217609969075 -2.0088412093497725 0.5929863776031724 0.8210110892197151
P 3.4331987871819227 7.579538707854944 9.420812201984994 -0.38404490787032575 -0.010088751694569721 -0.39185823326715735
P 3.5123843257491623 4.599189583204198 1.4619511058163999 -0.16862271550914185 -0.396476191655143 -0.03203054607298355
P 5.123797310860049 6.300410902021627 5.641464875196409 0.5605819931305378 -0.41858690751125327 1.2527563884897972
P 7.74101084940897 8.064388715992093 8.112847324768195 0.7871072373834186 -0.39905243702275145 0.08034003181164874
P 1.1536430927103978 0.6917466167145336 5.770632220139138 -0.5959421177973866 0.483151164545884 0.9220549292376186
P 0.9813219385518143 3.378039428570391 9.471166324605383 0.4780246419525961 -0.6294842154188901 -1.8757603955009823
P 7.108016678712447 1.608066851770646 8.599194138467121 -0.10581375060272101 0.18892311762939076 -0.0070059990041879345
Ni 8.402630955188066 8.701501929701815 2.1462221778770023 1.758354826295604 -0.8813795630054433 -1.9251199197707172
Ni 8.734058393243208 4.711280337238432 3.6535327131954998 -0.5827976099956286 -0.802111938322367 -1.0216278411369502
Ni 3.414262500194471 7.127867261288642 6.812013953143587 -0.7143622443102083 -1.0369747559066658 -0.10078981502556836
Ni 7.100485522264974 4.708066164086257 5.912063379417045 0.19672667283420958 -0.7070299723148533 -1.9264954599620046
Ni 4.743318385755281 6.02318139835068 8.63365459900775 0.3827886668657214 -0.008812456085307403 1.0436619381188543
Ni 6.119559464277358 5.169653476212938 3.2014955483936998 0.2521339459599206 -0.6562974789569922 0.004215580743244352
Ni 2.4079341060041757 7.652908572419566 2.240279629639264 -0.21444902981463712 0.07814533815317509 1.1980847079785302
Ni 5.166731500620051 7.372804221794327 3.8756537571845975 -0.41568901713816797 1.2152851310172168 -1.001683022583907
Ni 8.918321944421752 1.8931762638146692 2.544594904483502 3.3600993881619097 1.8448387662214616 4.0463471336240895
Ni 0.20579756872534982 8.124430601562063 6.4913092229415685 0.049902541257397924 -0.16618479549161058 0.9959679744770008
Ni 1.2906837480167996 8.448147794343072 8.904212572599196 1.4475609046006297 -1.6939772313504826 -1.1399865182842175
Ni 1.0835156784811086 0.20062567192593975 1.756098848170163 0.9042734368844815 -0.1772449099605141 -1.539115059960543
Ni 8.044283638767487 2.5773615617530283 4.942281359311591 -0.3025355383409241 -0.14169452365973015 -0.6803133822556154
Ni 5.418407856444815 1.8840615851104054 0.3329657168188813 -0.9642518743206424 -0.1811200766452042 1.1609595209914587
Ni 0.098668517762392 6.385336708769731 8.366974369799898 -0.7548758881535387 -0.35709589008530757 -0.3471758027581182
Ni 5.008039948743128 4.183477287885844 5.115690242448945 -0.11926550523225266 0.7157843214687156 1.393806336586993
Ni 9.348399048783849 2.7951430007003024 11.215773325540553 0.6741913285182777 -1.1132519305028505 2.017303995405145
Ni 0.3551557650149286 4.482480222587658 13.694342892498069 1.1856282273827323 0.603375177036664 0.10340591249217676
Ni 8.862116330033412 5.983074926906376 5.452328222787146 1.8818485106765912 1.3507755827487642 1.1858305732015253
Ni 6.201751809986954 3.167035087853071 7.424161241844018 0.6506729336813633 0.15409238310345075 0.18237786031170525
Ni 4.305012621094507 5.598448681605251 11.014304050983762 0.8186269052582547 -0.6194815956802235 -0.29166028618931705
Ni 8.871174454371362 0.6610093186229058 12.717620709073124 2.7114442562415233 0.4830521770741746 -2.3886168004207833
Ni 4.787195148287181 8.763994504478722 13.57469458997875 -0.9611812058151189 0.3803803145345449 1.9844296132746275
Ni 7.4177649430139105 3.6754965439262914 1.3135524486086143 1.6969517405977743 -1.7664702563138868 3.1362277794817923
P 3.0542091270567555 0.616444477967519 0.4865042233518324 0.309923346164563 -0.45593758024556963 -0.010363345512195055
P 1.366381767328012 5.470419021998204 6.826319380102699 -0.9762255017427509 1.5616047564226265 1.1910193164913165
P 0.8001613369383618 3.124459075746391 3.628866526327674 0.24908487472095164 0.23534412809609148 1.2946036635428866
P 4.291392444540565 2.3277682917541616 5.93118441066779 -0.32952260845272924 1.241432735946862 0.9257532040248121
P 6.115902281922389 4.531682521280788 9.747504154434115 -0.6605894214641269 0.8319747873200704 -1.3074496662676194
P 0.33546259209164186 7.467768428563155 3.6149466116322686 1.5637302874060617 -1.0733316972691451 0.5421865213424856
P 5.918376731843225 8.080600967668758 1.4442373357141012 -0.8737153615919662 0.9844273208272528 1.5001769881344487
P 5.654399801345179 2.980452807655655 2.4845841238150057 0.39950855072356356 1.360638334475457 -1.949499891276978
