# total energy = -340870.5418616008 ev
CRYSTAL
PRIMVEC
9.28136274178392 0.00000000000000 0.00000000000000
0.00000000000000 9.28136274178392 0.00000000000000
0.00000000000000 0.00000000000000 13.58421254712375
PRIMCOORD
 96 1
Ni 5.156177618373297 0.4294672234045178 4.424636374111881 -0.01580919911811471 0.10431274057716228 -0.46117106073036707
Ni 3.5684055883111805 7.924334817395904 4.791233501607478 0.15986708080369885 -0.7083854579014832 -0.13077144898932316
Ni -0.3868806179439955 0.3454653204795323 1.736483595019785 0.5318128914176454 0.4416245060570072 0.5509591253287931
Ni 6.300978042033542 6.679045077782151 1.4991944152349348 -0.8947968648526139 -1.1549449393662625 0.10007427701578249
Ni 1.7012738167800854 5.2960291943211555 8.599349777280148 1.0524409698630648 -0.9802338515711956 0.40286589723157074
Ni 7.230979884451334 6.729572817326891 7.0650810917036315 0.8562719693045382 -0.5717089562816348 -0.9039736462558754
Ni 4.235809830629907 4.093962761661821 6.672347646324495 0.5565877843694802 -1.7771128236293974 -0.39550071511575113
Ni 4.460205341095221 8.670927647847568 7.117067861493858 0.7048548190404054 1.4912547459441543 0.07109434484366467
Ni 5.855630406733167 1.3366276317628678 7.472811363231996 -0.4384232255108901 0.9882932315405625 0.2933785544320044
Ni 7.1863643730642 0.4875156512947943 11.011227011789877 0.8595395843122164 0.22883126667823814 1.74563506473609
Ni 4.881375026080746 3.074302953777058 12.330960706829869 -0.7075627048898717 -0.9408198685499474 -1.3841775552479774
Ni 7.587180029243402 7.346440038737992 10.416292579011799 -0.5151202612533128 1.015363348284477 0.6625622289197814
Ni 5.638956990187989 5.503532624336171 10.947095578664916 0.40911702034760505 -0.12026386458977999 -0.14264506049845754
Ni 8.225208758031801 4.0734045428720345 3.916097507746772 -0.8810908281204308 -0.9800109369271124 0.0342244684005088
Ni 6.642476508016119 4.59811711220016 5.943691049647666 -1.1520653038256223 -1.8613925568150849 0.5612522797246849
Ni 6.513985320239232 0.1287157967586993 1.3853455055450754 -0.39428946841646934 -0.3174175976590791 0.281049086332374
Ni 4.778936623921434 6.499877648654367 6.559708098218522 -0.918800941076695 -1.4295199879385188 -0.5212474571969733
Ni 2.39104614365113 5.9357285684288135 3.8166207884839936 0.05374016983593326 0.3538488439029196 -0.08542695941625288
Ni 3.3564749482001255 4.799736158146224 10.493478249034201 0.06263207300892439 0.12230712027205387 -0.2657314821386972
Ni 4.1813560745849045 0.10025171306365746 1.9151024956010785 -0.7812932018048028 1.5926767952370828 1.3303278564173733
Ni 7.884991120127323 8.82593568938627 7.8314478657813185 -0.6915655581306671 0.6402802775931294 0.14391312857760374
Ni 0.1895774057393525 1.6673782795248706 4.5702591015014935 -0.06419247551750881 -0.3061312261119824 -0.7016352836618432
Ni 1.6619208381486203 1.4974922132818662 2.1140429402185963 0.1639548777198273 0.6970533207181155 -0.13862385515420642
Ni 6.94343398091798 1.9439536121284153 5.268093220174258 1.439158025248915 0.9039883015438948 0.48178050945060247
P 4.086565515442652 6.90603008849232 11.81019642927293 0.3496299207255656 -0.611836934650772 -0.21801489278902453
P 3.927659301492342 1.5914196056758352 6.148282916125727 0.0672150643939165 0.17238552498568374 0.34180656802640486
P 4.683060145321662 5.082576410696996 4.58590840746152 -0.5398830700202896 0.12045669732687642 1.3369458759545232
P 8.068038158940945 8.561110562194857 12.502406970173805 -0.33806407026483715 -0.8138071152721081 0.3870584978856689
P 2.2530508402802276 0.8357180456890482 11.057304337831365 -0.43573950803113987 -0.9635031690800759 -0.34577146621142385
P 6.695612310531483 4.142225848662674 2.2867254810987845 0.5588979205598955 1.3577430152055325 -2.5026519104920317
P 3.637737369060484 2.1417672992917214 2.7715736687004937 0.6187452317348312 0.7922813253851904 0.06136117671630078
P 7.8591796499447515 5.867436300322606 4.960180293926543 2.0875218511811275 2.473539823617424 -0.34594681544702355
Ni 6.352471043318299 7.205632482413002 12.627761985431926 -0.3624435275504661 -0.6651983809910479 1.1066814763741846
Ni 3.7066143630284327 8.724314047160819 9.560854421601459 -1.1683059340542008 -1.701845835465282 -0.18303811960352348
Ni 2.15718364304334 2.996311661456256 11.593582413450214 0.5248354316585477 -0.2918623748977941 0.10628914757724275
Ni 2.3333624733222247 5.347912012847073 6.184688133904986 -0.7336591448666074 1.202663071377832 -0.1731242029239212
Ni 1.9881050553713118 7.671334146519699 11.596190476420837 0.6737992352861815 0.91683147605515 -1.187686909683974
Ni 0.023059546087234713 9.38475726731596 9.865412135166325 1.6112242192219672 -1.3126702912366104 0.3976164759071733
Ni 4.323537272616843 8.122491914985947 13.643575596537236 -0.23388811237585527 -0.5426601185447945 -1.0346823603280633
Ni 5.684621295581104 3.0651236858840116 3.6642458695957023 -1.5188840776256487 -0.7616610293961721 0.7880464613682364
Ni 0.094230892960301 4.863842531591397 7.002498718044141 -1.4904096243350395 -1.2420531431396802 -1.6030753648625877
Ni 4.283423222228825 4.749988053083807 2.4720278910934077 0.5932658565168041 0.01797432509023356 0.6765659993980413
Ni 1.164272722992512 0.4015460994382356 6.515586355336857 -0.02723441023592084 -1.3586066487574087 -1.374283436062717
Ni 8.731154411606902 8.12712331506545 5.238860639632357 -0.44254238988558625 0.5960593601015413 1.7912292084261217
Ni 6.773668572392478 4.4785638768813145 12.976169497945934 0.33264341346989806 0.059865308897064644 1.3045157804502758
Ni 4.4732363745854515 5.00094682412536 0.04541092418636074 -0.6303203381669402 1.814153935543095 -0.6948858807531516
Ni 1.9853299278687626 2.7365448770370473 6.5813475957843846 -1.3244418299502414 0.5968857126575784 0.6403939203528585
Ni 8.562771926151232 5.198454226313468 1.6362727199528206 -0.6047170357765391 0.19834183984012937 -0.8728920943597224
Ni 1.2844199655359831 6.49133879480037 13.435832707359793 -0.5070855638742944 0.5082232770231635 0.9602502093604172
Ni 0.8515771104502708 5.34149859109369 10.934761575527332 0.24291576979576232 -0.15481254909892692 0.4793166212911422
Ni 8.4540036345045 6.241243190507101 12.597564143150008 -0.08701153029455337 0.8009050624984594 0.37721477232236966
Ni 3.1989516573196477 6.602158267644638 1.563053904427372 0.31562373898345 0.13170038856149577 0.3632354273241422
Ni 5.06262148049472 2.96752087378767 1.1032867437492029 1.0997842350337188 -1.5426796373833496 0.4901317096287753
Ni 2.6800770652460484 0.9098835602287444 4.417871188705164 0.6058789172951242 1.0055741301081973 0.4893884037048475
Ni 4.475018396259329 1.4933341627094852 9.923050326817094 0.24435764444861144 0.6283056217297566 0.5544293432655807
Ni 2.8951076805606206 0.9760002768747597 13.255570077411605 -0.8791799842509633 1.198839840977 -0.10522625353036716
P 4.97546948300664 0.9948600062566317 13.18292113756728 2.401141415250355 -0.30042826218993424 0.3362609556178273
P 5.014757492097912 7.652622918943983 2.923186587695944 -0.18789699035772156 0.2019573251055296 0.46262013447206785
P 0.7967335371641087 3.7465056607072147 4.885657446915784 1.810081051025302 0.41455078976866666 1.0795923334668762
P 5.198565602668086 3.4346704305043927 10.068170004338354 -0.017940643638820714 0.39948978167048615 1.213824230200974
P 7.551688097572006 1.106654022203801 3.277978749738391 -0.16543120515503765 0.4161279044477994 -0.19526242958385726
P 1.554554032297491 7.717703835492057 5.7059804959878475 0.47652697436114705 -0.9485833145454502 -0.8260301397008611
P 3.9001679046276245 5.491791700286925 8.316024109450503 -0.36916156300059005 1.1013392382256646 0.12286350699615614
P 2.146992706595852 3.050254942542595 8.809525311669692 -1.080422028457023 0.22178078758936 0.757581717120476
Ni 7.3269584580428395 1.6693737725450981 13.197225574045303 -0.10257878860519107 -0.11003318800070726 0.3250753713146531
Ni 2.4912755814438636 7.628760534967215 7.743436414090108 1.2900075595317717 -0.5853574003030048 0.14214858047801326
Ni 9.138402052265258 3.22662868144206 9.424169646669888 1.5921556326262902 3.124806167908412 -0.22186820509684368
Ni 3.108161365580734 3.3679652754514824 4.703180283783287 0.41494339722139506 0.5604837769897767 -2.3022868695742864
Ni 8.383381744314214 5.847017301976091 8.971692996537714 -0.3907590866657077 -2.088208849945823 0.7188261936188329
Ni 0.3268051403996831 7.212509972310624 7.636826967450377 -1.124795412366076 0.8727586541056518 -1.5155997504474221
Ni 9.258159477567569 2.066467602207505 11.324125886179296 0.8215237671900754 -2.128140653143754 1.2670915741655469
Ni 6.248529060371653 7.238729822460125 4.932739944557693 -0.6573688576443001 1.4588763296134488 -1.5911462175251694
Ni 1.4134216282715335 8.593168389598885 3.508883279994801 -1.3516528431473949 -1.3691090909506292 -0.2716771581991708
Ni 1.1161859818864694 4.190442528849104 2.7472574260786597 0.6658786948875243 -0.4840605637340309 0.05496401494070534
Ni 5.7384067934984015 6.846026077442219 8.745027264710783 -0.9763769397189507 1.0711133494615876 1.1860282910346285
Ni 8.468863096483034 7.2566521341906345 3.2128969050540284 -0.49274934975728035 -0.9292311352710835 0.3995987964445247
Ni 0.01846898400442276 4.014115196764062 12.852445218146668 0.11857413559218288 0.46602813171235224 0.4546661697323137
Ni 2.0194760619218663 8.613225414792893 1.1382914038691487 -0.43263592940515166 -0.857963240964032 0.5785702021778423
Ni 5.857672306567818 4.398280087927972 8.325981155553295 1.7590652220990672 0.18782268547636038 0.02308310707170863
Ni 0.7151132319553577 -0.017646655252831295 12.97224440958196 -0.4731693707428238 0.9638173578863852 -0.4282745671126624
Ni 2.7359137443608823 1.0523116425134167 8.059812087016164 0.6262173717421602 -0.061841715897145114 0.7753866065123808
Ni 8.492085066420751 2.678638453998908 1.8350507407198549 -0.37771716588008497 0.6247955516939692 -0.05263048171152227
Ni 2.682248904161087 3.531864862633804 0.9658631723320035 -0.6927109845890199 -0.5606454993786215 -0.6927685772998327
Ni 9.16928114658292 1.5257910887175592 7.959968753919438 2.58587826271254 0.5246032610430836 -2.1847396325847215
Ni 8.364605547198305 7.604452645571977 1.0308568440689605 0.33395801851626356 -0.11259632074219318 -2.7876373557643346
Ni 5.230010860121719 8.741104032619386 11.319968763743201 -1.1568562974563625 0.443275668507185 0.4727577371267019
Ni 7.192183787592956 2.9076096763664183 11.190158694300388 -1.5155331588755447 1.7285464846849197 -0.46726251834008564
Ni 7.514868931008086 1.6734946976659404 9.227931934924419 -2.9455354857671208 0.37397646789073014 -0.3696248757902537
P 0.6057277296767886 2.227415715992467 0.15563824607857923 0.5812366932664119 -1.712768910135689 0.6055109924327443
P 6.688771946085399 9.27197014554012 5.960548789055291 0.46370539711644654 -2.085707680790524 0.2758801405369249
P 7.731895039342885 3.1858556542892233 7.50942077099472 -0.36865094191275866 0.20196760951817472 -0.4053575533051728
P 0.9869801291674538 7.080528992089059 9.668183173864762 0.015068207187032114 1.419491400057923 0.08859944360696353
P 6.100147911932684 9.091911705575397 9.254217682750403 -0.9413420596020046 -0.7336660868451429 -0.5368849066239141
P 7.863189198710977 4.996426800400472 11.034075870939628 0.16293286421321618 -0.3650470266115842 -0.8863595327185381
P 0.9515531670362505 6.733665898359079 1.970023104199184 0.6390289216845317 0.031854168396119334 1.6426245879101193
P 2.326512827513258 4.889394123613195 12.770490783874065 1.0658664992403515 -1.437498378158305 -0.7875533237819018
