# total energy = -340895.6737237558 ev
CRYSTAL
PRIMVEC
9.03175179028976 0.00000000000000 0.00000000000000

0.00000000000000 9.03175179028976 0.00000000000000

0.00000000000000 0.00000000000000 13.21888168855640

PRIMCOORD
 96 1
Ni 6.380562191666984 2.108941089915785 11.570883129527504 -0.07868655536862577 0.02503945946713107 -0.38558654132583275
Ni 4.5652614092219475 0.2896347256436293 5.935158652819416 -0.3970246079594453 0.3289988747387753 0.3739566703963882
Ni 2.7145110018131207 1.602341111866397 4.819630757634084 -0.11334631153434029 -0.48976429898702756 -0.0033390916755619915
Ni 3.4470944362240243 4.272108816336688 4.79596847166144 -0.5558763601247524 0.48478330083266835 -0.2409519612011721
Ni 5.139852413189144 4.708568211591483 2.4691417938535736 -0.22373765420541467 -0.09275434631560155 0.908369718441042
Ni 7.402378438776068 6.221260157243724 2.5845422901815525 -0.7427279399370951 -0.6674380689548441 -0.7069770075897308
Ni 5.109803775672068 4.481519008543159 11.337953353023403 0.8895530999551713 -0.6500602397980288 -0.3003616706180569
Ni 5.691827911192181 8.001454521285131 12.432926787955846 -0.7309126924697218 -0.256961449255551 -0.4504043091321662
Ni 1.9277370579034327 6.5154062428031265 0.2634724508327744 0.44920951749311666 -0.5479794738751789 0.34673614411753834
Ni 2.6443704190185273 1.462827645161776 0.4761268482079051 0.9579845532546921 0.5399432338342637 -0.4904428131112908
Ni 0.3746524096459559 8.96362508093922 4.6637273713315555 1.430338627185072 -0.01389115615979543 1.23824173981339
Ni 8.795851263530983 2.2977588885127176 1.521069798420753 0.7011591153563731 0.5372132364976102 -0.457847909894405
Ni 6.83485026454688 0.6078702990255587 4.771408429581431 0.7032062276933888 1.678508446290922 0.7079020905071615
Ni 0.8531311259661083 7.3260691696501965 2.3854129408021603 0.19242341747316535 0.2803453753971301 0.5317033624229746
Ni 7.315095591476692 3.9291822404767958 3.9346663200380725 0.6667929791716775 0.030424635038444378 -0.5894220572906816
Ni 7.687041185173184 3.9950056460146532 12.738494426567277 0.3569354532480433 -0.750643595239746 -0.9722729448529063
Ni 7.897462933556965 8.887360970571264 7.117521509719915 -0.43494580848525094 -0.12228578011581519 -0.5785586322136165
Ni 7.144413550058687 0.5388072041948327 0.3197673584504285 0.010265386481750063 0.9650160061801767 0.6867799638165657
Ni 1.5202153947209889 6.543016307392758 9.27629709534594 0.9856059145163865 -0.06930125749898387 -0.273183053320736
Ni 0.30003117489097114 4.99493795903781 1.3315113961940044 -0.5078252702537963 -1.0595261588446203 0.1183602198091639
Ni 6.412543624022851 1.8555552992510516 6.976317299118931 -0.22490133549621266 0.5047551159689049 -0.11103617534392489
Ni 3.336916098661412 4.207080204938147 0.3921478156376385 0.16625395816664915 -0.26125981952058874 0.12144348672017795
Ni 5.87247197460638 5.794184751883802 4.878123993587072 -0.7091794145576883 0.904648817946029 -0.9729051791202663
Ni 5.50102312724696 2.8688546046172427 9.077009690313846 0.04886381558023843 0.2823652340406363 0.4393817327694175
P 0.1870837022929709 5.592433485019827 12.337168544970861 0.6780418126126194 -0.04685475557000963 0.4837911121227281
P 4.0917176419668175 5.852069247780087 12.551962564296035 -0.3890331051135365 2.3990490514977005 0.39291881332118783
P 2.5588126362715293 8.42393276508924 1.3189735186463025 -0.07630134296590084 -0.29071591999817675 1.232922898703638
P 6.242954424546404 7.934917607372207 5.884398402571904 0.22457120585030355 -1.65038751968499 0.6178512591656521
P 4.623209127379314 1.0617365891065214 12.640106137521284 0.5292998951878045 0.5084233088491116 -0.8652158087613874
P 3.713802060473876 6.061587821005555 8.277848699107892 0.2761097400492277 0.9503038967809827 0.7530370351725869
P 4.888182655325204 0.982212016417055 3.6838645135012724 -0.47647478096697293 0.7147666788374787 0.595285200939678
P 0.16931282787800278 5.543183343637014 3.5770297303747354 0.3080652099099017 -0.31138347564985724 -0.4680235648758262
Ni 1.6542194929599003 0.8440930521568693 2.7100032545979804 -0.806454788672095 1.1452374822705116 -0.4041717605271878
Ni 1.605574478933158 6.444570215136633 4.906874768401652 1.5244605432721616 0.8495673035908531 -0.8684415147875366
Ni 5.780546806993274 5.512376038986956 9.080420079711635 0.8016691943579936 -0.07992582709236558 0.2836327878991502
Ni 8.484066167129725 2.3082086250944 10.179490317162184 0.987618574071041 -0.6544974496337761 0.3943234069781983
Ni 2.2587778486799253 5.172077702837755 6.937506959391061 -0.8543405566097801 -0.2607281153868349 0.25409646900293015
Ni 0.43126794444481115 0.0882275685149713 9.20377845235951 0.11405336490369389 -0.23436505201227378 0.470158608940958
Ni 1.4769352411346264 0.9697572309839176 11.495813016718838 0.51866555540241 1.1308416185601557 -0.7564823134087102
Ni 4.315786366992708 6.9525972099361555 1.6139324618481872 -0.8727085175940067 0.3339433632282442 -0.08445688219349971
Ni 5.301891068342093 7.8257327624837405 8.005684993726671 1.4538570220219864 0.23482270837498267 0.6326158190693363
Ni 5.172953782741319 2.7244368968029815 5.017860544555796 0.2027870200956766 -0.416914662015153 -0.5773430146389605
Ni 0.7030821210397651 7.5333839954893795 6.912284889920009 0.07831940183719416 -0.9629380406052255 0.29825362313611864
Ni 4.899689106842113 4.831815493694886 6.889720864939874 -1.1092178696427928 -0.9262059752915146 0.5427843028274846
Ni 8.055265697217425 7.167426453092504 9.112713107497118 -0.05788787345571966 0.02585578472083934 0.4105095298197575
Ni 4.487362551817443 0.38928113768515277 10.505388428587242 0.7358605233933004 -0.963778791338966 -0.6205434612858345
Ni 8.094237705298635 7.027136255751733 4.694633122073871 -0.3977596863532569 0.535741022827458 0.8819218086621585
Ni 7.260760573952578 6.291509121057315 6.9809307178275954 -0.4167202866161598 -0.6576318814976997 -0.28781802962509145
Ni 2.449645854886228 5.337259407541633 2.5717596521659476 -0.9559225285193408 -1.10280990923392 -0.7139930338962477
Ni 2.2333444362218287 5.272736574231747 11.301019811274507 0.9743629946127155 -0.036302433975460055 -0.06533790197586166
Ni 0.9424452141965302 3.473981960687005 3.7131048092516585 0.4255918780741767 -0.7090413463179273 -0.227291432994944
Ni 3.8500911918633194 2.6295944734285253 2.6722758218849267 -0.6093187962146087 0.13388916868269846 0.07102621060989057
Ni 1.0717618333637966 3.311563971967564 8.17669759725262 -0.05009434555322985 0.010831800508181345 -0.29283502322370863
Ni 3.5471662437651132 2.528664649487039 7.047157842661218 0.34313351436794454 0.3072229165142644 -0.017169826911067203
Ni 3.855790227112275 6.912577518671303 6.165418643555543 0.3210775630091696 0.20978813400385807 -0.9006497240889649
Ni 0.719479266038939 7.52504768877815 11.392322691203534 0.4976059065186333 -0.34861819163159957 0.04117775978989037
P 0.13632706474609255 5.654020999065196 7.887270601895401 0.06802599033098607 -0.9564370062619141 0.0388370274718557
P 8.398652892408057 1.7855863197365374 8.077635539538525 0.3987850422939777 -1.5138503718564833 -1.0160495757182242
P 1.8408606394252978 3.2421549610512037 10.260773371884888 -0.08336750578406288 -0.10835322919512307 0.9201389431618282
P 3.77249038226106 6.2474703003379695 3.839001104094393 1.898843759683007 0.1417459457229559 0.7300565151170136
P 7.0696216151987805 3.9210085052940626 10.161367204435475 -1.9262445202934633 1.03037704808449 0.9513855598809358
P 6.340370897122052 7.76197762805842 10.30670886043669 -1.123472322679278 -0.035394834559526134 -0.8192326571630537
P 2.3673485344607403 8.487696931266143 5.836188718971468 -0.1264969899836854 0.48246519422245293 -0.6790800240691466
P 7.00987657847637 3.9849442747510455 1.520264166179538 -0.11370960841102996 -0.13485513214039357 1.1200003049702776
Ni 5.271571478277523 2.8264414991828604 0.6296738505223948 0.5224574183446744 0.058788530893118106 -0.6448311301886056
Ni 1.337755949238581 0.8244399607119767 7.126483716815855 -0.07465532272204561 1.8794913232983244 -0.9033671230201281
Ni 6.816497745329958 0.634105731024237 9.203077588436658 -0.9005646205743263 -0.11445574254843513 0.14647986086351547
Ni 2.6038449496650196 1.4712633011404201 9.172674003082365 0.31444180286020684 0.33791571761243094 0.1416364167282851
Ni 6.636657507806658 1.9467850219922556 2.5434713030324234 -0.5727065443082137 0.271501551853255 0.24394883904596695
Ni 4.2382758749062805 6.80170373623679 10.47419185544395 -0.541215415678468 0.5111149967486617 -0.16518360792060582
Ni 8.387318044171229 7.22349556692058 0.2733378330870281 -1.0725071444853207 -0.1989203380514187 0.23252594192100598
Ni 7.730872275606117 3.824233287080816 7.8684068855388745 -0.4766832974333532 1.1880818311295473 0.24988885867948574
Ni 3.162458785081658 8.263312094934843 12.445193712956055 0.5809338173140124 0.12579250771749304 -0.789983273379633
Ni 0.04544958031663068 4.596077745623589 10.425321950802788 0.4817062045692414 0.7305298552090064 -1.1157533567684657
Ni 8.610131355727065 2.315406931106155 5.721872032833466 0.32021290101602917 0.3077253100719797 1.004733636484773
Ni 3.725407861258199 2.562082130344623 11.20596333538753 -0.4523591188656919 0.43373224779312397 0.6967111068873486
Ni 1.2250035624747766 3.3962185795562485 12.531235597587907 -0.6821846311363993 -0.6374716044997408 0.1390725126558508
Ni 3.0061281969292475 8.278458342339754 8.209374474480386 -0.07536134765013472 -0.23460802126101532 -0.9762267872943315
Ni 5.775489026106721 7.986389559644469 3.6055158748679297 -0.8195776992072983 -1.358875586148079 -1.006847340393666
Ni 3.294665564755526 8.414494584684869 3.718774942895548 -0.34113011078467054 -0.6628579057833294 -0.02844488560425424
Ni 3.4756167077235514 4.04132949988453 9.034114289344922 -0.5435692606226251 0.5808155465685932 0.3760114960428879
Ni 7.224489059594725 6.068000364629578 11.310656690213708 0.10342596709683478 -0.42424899089303714 0.13837034438250365
Ni 0.6663210857461063 9.111140679546496 0.3760252358865918 -0.2650959054372273 -0.10672803488687425 0.4591833408763769
Ni 4.869550151809206 0.4825764220134188 1.5141695402112414 -0.3913771798656808 -1.0825735275823873 0.04684241427483545
Ni 6.11978842820725 5.777114741391685 0.4704350383602161 -0.15969430267126045 -0.6268241520882237 -1.1990920661971218
Ni 7.910811862396832 8.955361028240656 11.277384620556612 -0.009847325107724975 -0.34243803096281666 -0.17194792322763292
Ni 0.04809407718017138 4.770480868693845 5.7087588327099175 -0.5868290997525248 -0.18091901637799165 0.7845263640301199
Ni 8.008128985705065 8.802092203874926 2.738304248183721 -0.22419016836180097 -0.40355341021689856 -1.4209975522898044
P 8.519181617284938 1.6478250128390437 3.714756716616213 0.2809017621212324 0.5402293976161147 -1.2798133926075894
P 1.920502624885345 3.1517651912072315 1.6616923642197827 -0.7830178978053934 0.15656038502796907 0.33114394610623615
P 4.7281400172721275 1.0445581975954068 8.24453688974383 -0.42965267840711163 -0.8026588119647725 -0.3571174873518624
P 8.656075876030451 1.627395190758002 12.347188370177186 -0.7407775010789436 1.3013880334545715 1.3621611988778863
P 6.411830115647784 7.775760080974278 1.2885193554831436 0.549493339416544 -0.02903469666945322 1.2659975697704198
P 1.7676311975892736 3.1979806640581114 5.918066966123498 -0.22973475232911403 0.1673001400429764 0.055427327730369055
P 6.582060569486632 4.0969831531397825 5.97753834077294 1.9463803718113897 -0.9467920269729824 0.18035363079282488
P 2.4024188258580366 8.521394396422805 10.224421474937943 -0.4819304047649055 -0.7610668474555989 0.8124153771309042
