# total energy = -340891.91064270516 ev
CRYSTAL
PRIMVEC
9.08119544524208 0.00000000000000 0.00000000000000

0.00000000000000 9.08119544524208 0.00000000000000

0.00000000000000 0.00000000000000 13.29124747541445

PRIMCOORD
 96 1
Ni 6.0774991128532525 2.3939029625222026 11.444600840088633 0.984375127433079 -0.9598177498086888 0.17916629535294304
Ni 4.742754115381407 0.23006118436614928 6.213790599368723 -1.770079313821384 -0.08609184669376141 -1.1203967690777477
Ni 2.7798083549086394 1.3435355944792604 4.8591468868528205 -0.04330303366300929 0.889200601711759 -0.1944417334547748
Ni 3.275986701283746 4.604719947496389 4.826158536967353 0.1702697641942616 -0.8953583937830386 0.19901264065490887
Ni 5.15539454660031 4.5828978352971985 2.5766411302919296 0.16440739187621364 -0.4592031383707188 0.06551787919715167
Ni 7.2098242680779245 6.139133185052965 2.8992197156830124 0.3064780679284399 -0.37888881759068294 -1.7894348355298602
Ni 4.991551621798896 4.514698058927693 11.731878095162648 0.8481513970799328 1.0585609667178737 -0.7835783982945538
Ni 5.840788677320959 7.9855672103964705 12.359345097586917 -0.6624041060753625 -0.2688065215195951 1.2293053565557086
Ni 1.9253859368956339 6.531949367028909 0.395413403819043 -0.012570380465842867 -0.1542322511154247 -0.8131543121794577
Ni 2.798942433312175 1.6215927120102713 0.38437067038824163 0.8009158611317367 -1.073325526621558 0.23567862861737476
Ni 0.6739681708500604 9.027007763503166 4.828324402035812 -0.40614045421778444 -0.42791127023597275 -0.49838340811460624
Ni 8.74248483495017 2.65284416404019 1.4865199218981024 0.43662885261462864 -1.2566912047678291 0.3559563771642256
Ni 6.750261300973371 0.6448238909162849 4.861818574497017 0.37900605989483765 0.21373169203263837 -0.6239486303126416
Ni 0.5875624142321414 7.36472221555258 2.385566425277568 0.414981449548182 -0.4278140825364761 0.31729341337638906
Ni 7.7148022926557 3.7762515855238687 3.8495840534518355 -0.5701197574176439 -0.07939309451734713 -0.12300851721445266
Ni 7.872869577274558 3.728148494254991 12.639178496909924 -0.1307303113387426 0.1376118689499243 -0.7849074015186225
Ni 8.201717819870103 8.98475296197889 6.7179149915924725 -0.032492059090434365 -0.471896160457355 0.6759314511378359
Ni 7.17453474331469 0.6526001184136495 0.47851451348345164 -1.086911749946425 0.10355272248268618 -0.14921165797238176
Ni 1.7731941856071456 6.197715975646798 9.218835299604216 1.2524493987723397 1.5055932740540134 0.5726013861889171
Ni -0.1422560155593433 5.076951181982495 1.1426659122622156 0.5453898587711318 0.1685502103999936 0.9083702326616743
Ni 6.469307282155826 1.5855494480408217 7.075768571834383 0.5674694642789904 1.065949802982777 -0.12069066771455343
Ni 3.732280438096286 4.582371125972374 0.45663700599320184 -1.5037022276788878 0.4467217180742565 0.514828698154823
Ni 5.880019440825122 5.4739901197522896 4.788264525404813 0.3429499376022287 0.2218000708630696 -0.5708900599247652
Ni 5.376830411712698 2.878421054189127 8.80192943097376 -0.17045642628377095 1.1394255035744245 1.09595149155119
P 0.2540991082077047 5.583118843138755 12.362680620604298 -0.17324427344155327 -1.2095626267111428 1.2310884165980605
P 4.0521564597793045 6.433000663523964 12.576457405638116 0.7127740738874822 -0.26825399145023476 0.7954990609915397
P 2.4076246485534045 8.470103464453906 1.2344032386146937 0.048479178547310056 0.8273941099279235 0.910007254044465
P 6.298635298522205 7.740819917062976 5.937824881105075 0.5332308548110946 -0.3257600560865035 -0.11482958094808611
P 4.959531327327674 1.2205762107185272 12.837869600385151 -0.7705938131094278 -1.6642650489980306 0.6047214066519133
P 3.8177889726229526 6.466510274017103 8.358280350435107 0.9386629701079447 -1.2068771094591795 -0.7972314703016141
P 4.696966728902706 0.9336286030322906 3.8552189351079313 0.4885047155483135 -0.13371587632962775 -0.1673191662063699
P 0.1938971404998001 5.420320255791734 3.527058138993236 -0.29024283701650017 0.895229067294026 -0.6350398551297967
Ni 1.5127273432862192 1.0510938636633897 2.5197810424380838 -0.5291494856528693 0.4974722091542464 0.2568043548523964
Ni 1.7177807321575154 6.540313147859309 4.674345471521023 0.23730356581530745 0.6602302383524952 0.0735572045618604
Ni 5.9365498812911905 5.660154622491953 8.96705916114289 -0.6020906538972857 0.5797961041651435 0.914132074846116
Ni 8.458979000265805 2.464127845433705 10.17629749958481 -0.06250094674769882 0.09503697170219116 0.30984595595940834
Ni 2.37021012410036 5.127724144656518 7.0913991251083095 0.08508166026169219 0.19961427879464977 -0.23374258793692645
Ni 0.3685857367949693 8.962313328502319 9.023680413561515 0.49438868513291634 0.6590488164498843 0.10708259001281559
Ni 1.2346883881457194 1.1848417073877677 11.432599132438842 0.7761245131196697 0.021899371176252607 -0.1309660814986325
Ni 4.104863717042767 6.940957320145574 1.6280185657731292 0.6842011473457958 0.42777757287158585 -2.1401114523523854
Ni 5.732631641826843 8.060069336273358 7.989554763233202 0.11119944039466656 -0.4875053277495217 1.638658918394152
Ni 4.99313174977337 2.7915594215693775 4.926400402676694 1.338512706221011 0.5717135842673251 -0.09425149968641831
Ni 0.8881863019733017 7.237258558945073 6.96523862001998 -0.26466575987834423 0.6547784712093045 -0.25386069884304024
Ni 5.042660588697375 4.887926102737322 6.753442443671405 -0.6807676961842146 -1.1679025279681952 2.016927585902333
Ni 8.42554203933471 6.871141091020574 9.459819345623792 -1.5246688026282258 0.9210344583929041 0.07862304912054201
Ni 4.453763238762662 0.6396557826963267 10.789515198533529 1.0595726958118399 -0.6520618436090899 -1.188092629762825
Ni 8.065581621793504 7.264347764392507 4.773032636602607 0.42603282226633726 0.023886833919926603 0.47329406924614614
Ni 7.243161335861208 6.019779035808702 6.939227352449383 0.6894389987059676 0.32549034736488464 0.09888539891400389
Ni 2.2228949746641256 5.263515257313404 2.538535526879935 -0.3136910407371114 -0.9423566169094479 -0.6920599812685823
Ni 2.614457951694797 5.290177646583826 11.50039751997805 -1.2082045700213515 -0.3793464739533918 -0.512211315136634
Ni 1.102039369047268 3.3514877586387484 3.922712194486552 0.4431666537331464 -0.6146114120721158 -0.31515682664936046
Ni 3.689081192265429 2.5682891550153606 2.6678054332237795 -0.3490717342292505 0.2798152139252729 0.18663535003647858
Ni 1.1310991938651667 3.36743433750757 8.29942694022266 -1.0808807132609966 0.5238974932253108 -0.16333087098258323
Ni 3.788865365733888 2.71040077957014 6.9851881897574675 -0.550271098122833 -0.2503544854619946 0.4199513919589477
Ni 3.7708028683705126 6.813085009751566 6.02510878930421 0.651308253272517 0.8898822011598159 -0.01435781138356882
Ni 0.8900016329048949 7.2385208450856 11.363138886167858 -0.24889307042511974 1.1198540092004003 0.04145106805593506
P 0.12669447936935865 5.520276971970048 8.076014098903128 -0.5152768414358351 -1.314627414962981 -1.0841583555710037
P 8.519995551188135 1.7591728201325096 8.05966613120401 0.02206160778572975 -1.3815997672184723 0.31152462921341184
P 1.8939740825065365 3.3545935274161613 10.293074405615537 0.887555095688536 -0.9807935807294077 0.9768448804943048
P 3.9783989919133753 6.141476133428908 3.5102715495632717 -0.26891425074205305 -0.08880924562492447 2.347995684465311
P 6.646236209320549 4.022406464121981 10.270253361938229 0.8227578967074927 1.3489706683295413 0.050965949524905775
P 6.454613908232276 8.005872762987977 10.336483427056796 0.1214594275597779 -1.5918578988802132 -1.404775176893671
P 2.428393342102946 8.584090627302112 5.934422157242804 0.2228961321407258 -0.3444545471722132 0.09229360462909911
P 6.984383595857822 3.9527627777068357 1.4708757468312919 0.5220041328573397 -0.5315089870239814 1.5973340915034362
Ni 5.258729467413707 2.935469122784764 0.7176659743004499 0.28805637088814257 -0.753042948709858 -0.46981433822766183
Ni 1.4801712582949171 1.2912279098070432 7.104982776971626 -0.04853317171369706 -0.7341376271649228 -0.24469523029368825
Ni 6.755782667688772 0.8748169663180172 9.538250904687773 -0.2840739892016269 -0.14788008364515176 -0.9765507462926537
Ni 2.750412525866284 1.4264287447723158 9.355070482709099 -0.8979179269800988 1.6510922590614987 0.1701473796837844
Ni 6.596525746491432 1.8396594536828332 2.6422736527626793 -0.11853659748602811 1.107378245330893 0.28069993052307146
Ni 4.217770217655559 7.115779410011 10.508312354965978 0.13719843556158953 0.3083295193148819 -0.7737143610162804
Ni 8.16042562504292 7.291091884420229 0.2497346857678666 0.3577728615476741 -0.20820253468429306 -0.5962457650807343
Ni 7.501394204149259 3.83749516632759 8.145594216951485 1.330475180628515 -0.005812492916719022 0.2653435026716591
Ni 3.2924509082821367 8.655169142567642 12.468531940623018 -0.6681749471208687 -1.2002686030037264 0.5328266773941405
Ni 9.329202698023542 4.708227411019641 10.364860345991476 -0.5292674992879723 -0.010288269299885508 0.0784664689380197
Ni 8.685482172330811 2.491716516620198 5.849145193195155 0.35118723791035644 -0.6276314784808674 0.19706837244434447
Ni 3.5044786551097284 2.7322682977456085 11.649007647857733 0.18788876282760544 -0.04119164374696132 -0.5458511146782664
Ni 1.4456808787141737 3.379430596440209 12.65305456326047 -1.566164350768851 0.9205071251345244 -0.02355773271528201
Ni 3.0736213462081046 8.607583679428332 8.094130175318512 -0.5074735433413325 -1.8418753127177632 -0.1274153880328967
Ni 5.40701630474229 7.760816709015792 3.929850013957448 -0.0944895838391534 0.6615762108574283 -0.5900553199993064
Ni 2.8446753326193424 8.245216745144393 3.3898794197012947 0.9727491131583764 0.259572661626153 0.4781866214517571
Ni 3.6050074865891464 4.3930554484790205 9.224152339426364 -0.25308679679149315 0.0043865591034698646 0.2429021429490075
Ni 7.312005877093861 5.882489525934642 11.399756081677463 -0.37657688162805464 0.48201216584543444 -0.6222195634366768
Ni 0.5551625257992356 -0.004718589054806274 0.3750588127731562 0.020959375860486483 0.7393037447468944 -0.5135616585169414
Ni 5.0645371880681 0.18582214167852656 1.8123940730474397 -1.130222496918918 0.6534471539923908 -0.8044102474382404
Ni 6.379022038924718 5.566654636140363 0.26228126513299427 -1.2830750940779967 1.1438380308198237 0.8621379411670119
Ni 8.130457680699461 8.934270597553045 11.376948659793042 0.03527733514505537 -1.1456380601430398 -0.13284607213016478
Ni 0.1572036629500499 5.063601824956773 5.654667764318523 -0.45692848340392916 -0.895671297037767 1.2138694816166127
Ni 7.826046934536719 8.769138143025337 2.7459318641271744 0.017145915651667246 -0.13740026715975046 0.0215800401636209
P 8.702809092878484 1.478209720119709 3.7270914431272404 -0.8607932542136594 1.271540611075836 -0.6064417317771297
P 1.83303018114625 3.1357185593658516 1.5174086994404774 0.21843141150115286 0.9487110983725661 1.0996014295989514
P 4.670712993418785 0.9593283856056195 8.383082002797657 0.6822357960893088 0.20020151875668749 -0.3088748502953906
P 8.408551123011495 1.6616680266732047 12.341521435658766 0.6946179718037456 0.90896158638877 0.8203261473375485
P 6.407173744217057 7.669986594069348 1.4071175830612968 0.20777650289046795 -0.8185482295015192 0.2552202981947282
P 1.826037660799443 3.260067366000691 6.140502629297509 0.18807696757901157 -0.5088436842159817 -1.3825683017793284
P 6.874710000756021 3.6630181618818765 6.079123738684479 -1.5254905271985728 0.9642824704482619 -1.4660399372414237
P 2.1793597246088114 8.537231659783252 10.338610242985656 1.2028034536104382 0.8534267865462591 -0.7037096496923687
