# total energy = -340878.33765354956 ev
CRYSTAL
PRIMVEC
9.17541880035306 0.00000000000000 0.00000000000000

0.00000000000000 9.17541880035306 0.00000000000000

0.00000000000000 0.00000000000000 13.42915287986352

PRIMCOORD
 96 1
Ni 2.3324557280174867 0.24152088316337905 6.01024441571958 -1.3038892026098707 -0.2353870655188849 -0.3730287592654801
Ni 0.8878373948312394 4.003097661740664 7.843968410985663 1.9431071003767568 0.45901364806773204 -1.5455741853223255
Ni 0.6942305494862812 5.863423031660744 11.491863583710273 0.04108211475229054 1.2258418234871402 0.5936646346171196
Ni 4.095466604428915 1.6637511940828804 5.143956409861979 -1.3316656013921906 -0.22347694434486032 -1.6591467539348588
Ni 2.927564226459647 7.119941605962894 9.947242359259574 -2.1353114598605805 -1.4791358511934334 0.2909149233828603
Ni 1.1313933859203413 8.294606267706994 8.074963253516087 1.7493755056151292 1.803954369302274 0.2431379131088974
Ni 9.285707497701702 0.8265914732613505 2.753298246744227 -0.0446178958196909 -0.5587392834948441 -0.642226602686223
Ni 0.20013056822678452 2.2768710399470167 12.94821452512295 -0.060465147264592636 0.9808807411265753 -0.3055820384767318
Ni 7.700626345797134 2.4298069232019843 10.858383483169945 -0.6677358027009209 0.024241389045867926 0.23565137492386515
Ni 7.623626229869867 6.782176083141809 9.54536176135925 -1.1294830476497322 -1.7454584299489102 -1.0403837815882147
Ni 1.845727278351885 2.1290458650537616 1.6272100880675873 -0.9669386771241862 -0.27019131768226373 -1.4142859445975835
Ni 4.2679644809104 0.9827607741584494 11.634185342310252 1.1256582745870034 0.1824411094494729 -1.6381704087935078
Ni 7.703498251932171 8.792473675992198 4.345916087784003 0.8250202103791082 -0.3280074573597835 -0.91835099802347
Ni 5.941661829147851 3.2807169268796392 7.893991877623397 0.8052548548267229 -0.4430324421481273 1.3916674358671193
Ni 0.007545864554168773 5.704431371891001 4.998290211050431 0.06590791554671875 0.6496771454269973 0.7931632137695114
Ni 6.3906884822994945 4.8204439828561245 10.748748237079415 1.113780806423127 -0.5978871573388993 -0.5113564233355063
Ni 1.256059803354061 8.036409978122474 12.591429276335989 1.1506725372431539 -0.7712152487435106 -0.3494275749067724
Ni 4.821728541510774 6.06333706000003 7.0154968943790434 1.0943615213562508 0.5485245477453714 0.46919855902053387
Ni 7.1372189198679274 7.701415431827847 1.5318233500828073 -1.0633874415722395 0.039964199097763435 2.5632767232629403
Ni 5.226245237278817 6.899318657026868 11.000719004898366 0.08860947090929255 -0.017559863260634273 0.027521345348720343
Ni 1.0481998621938722 7.860517196625131 4.1020426271988235 -0.02092543729875751 0.061478676130771535 -0.2363946808477929
Ni 4.14128864672405 4.733424309422593 11.695879024325475 -1.3219388610227298 0.5168688685133034 -1.0300530890861679
Ni 6.898887412335664 4.436030630033343 5.873737120115682 1.296875747406515 0.8704945406618234 0.07864181817361938
Ni 2.2852848991349703 0.5353930367550963 9.983178805165284 0.2328445016026893 -0.9611629509826736 0.20507093103384685
P 0.13391890991477978 7.8706835608347845 6.145556154232757 -0.471928042136555 0.3640347832969859 -0.4549343357920358
P 5.054958516100287 3.024777790359717 10.538017307326085 -0.8924543327623661 -0.004828274626578781 0.1667784632115515
P 5.165623244198329 3.074930630404813 1.4525238741637179 -0.8032424523823845 -0.801276329794949 0.39188420140908636
P 1.8857321050252507 0.9664835809202498 12.929628796473965 1.1025741390740302 -0.03169681688264864 -0.13844259238133574
P 6.9237527977220905 5.943276702885123 3.6514405546114426 0.7664098569350671 -0.05584718887660705 1.5309530929750408
P 6.779928105496172 5.193562394936953 8.305931487331522 -0.49766735588418803 1.6465290651708482 -0.4476912810763774
P 2.181465033582417 1.0895259491977343 3.689310261292402 0.47919655077351025 0.08315230444946324 1.0001835552202452
P 2.9129110823776823 6.3373609472936225 12.41681004299054 -0.8500164753131296 0.3570020448199207 -0.5123180159178273
Ni 4.12954411045297 4.994841171062697 0.6688210617554208 0.9347970593946352 -0.0468059046099452 -0.40344722365633745
Ni 5.541063037276488 0.9860731004036524 0.6527292119802491 0.32711065657712696 0.37765931605895603 -0.31345372791532466
Ni 8.992562037291759 5.876250267369313 2.6984677781124153 -0.039421182110099845 -0.2599423862607459 -0.973302414558685
Ni 7.619671624297339 2.5796506902668312 1.1031147446801322 -0.6175733229139171 -0.4681834874924582 0.728319734931565
Ni 0.40884015318283434 1.9975345850745532 9.37552292129289 1.6108449815056773 0.25399465331774324 1.1546428347448112
Ni 9.1919347159123 6.41122306993596 7.766871953159297 -1.006233103848435 -1.8975962604291512 -0.45133556269718395
Ni 3.645228795974317 2.408960371320817 13.282426408180138 -1.2410239305442177 0.6936594645452182 1.3732187422436286
Ni 3.4760340703190735 8.198264368608294 4.403500099646245 0.7452967291055358 0.018137075920342957 -0.5445578497881395
Ni 6.608338595491904 1.8486358861627694 5.020556200244985 -0.07223668597822398 0.09236430996603447 1.4849822826718813
Ni 2.0134172352973962 4.7895228209549225 9.915173352446253 0.7242252531472172 -0.6073665575842443 -1.0842504010641778
Ni 2.6199032532521644 2.683993554700206 11.076942880381466 -0.8665581817218946 0.10178688883151502 0.06749582885912891
Ni 3.768748286037814 6.612247323969622 2.4592003778460496 0.9580889400430403 -1.3340374440584768 2.0730838213789267
Ni 9.37213994432168 1.322379731609815 5.100499790575192 -0.8572163354956785 -0.08994824432537411 0.10864864894835483
Ni 3.6225196340439085 2.724805818242208 3.012185445376569 -0.37970539995470737 1.1538686755829481 -0.22588375401414001
Ni 9.287817844062914 0.3941227811681375 11.353207404985525 0.12834638448759833 2.28443030100884 -0.8139698661022176
Ni 5.301492848184384 1.0680004163133958 6.920499194158243 0.6369149606653225 -1.0145827613647107 -0.3592011093537685
Ni 2.176189167679393 4.560486012830943 1.87996076649829 -0.0022581999065574014 0.1629287504481581 2.109202678588671
Ni 1.847599063820088 4.286443774699427 12.970695219121211 -0.07371764139912466 -0.040925534569768225 -0.25858535801221916
Ni 4.857072255351555 5.932559813537764 4.724751703419917 0.07121775779540637 0.466905392110983 -0.5256872381358817
Ni 4.480329552780823 5.1835611882686115 9.177872468811476 0.05521469749893071 -0.6306751504031978 0.6970533207181155
Ni 7.135815080766775 7.02049841525511 5.8400697553192185 -0.7347685758807023 -0.3293930248534005 0.2357418777551424
Ni 2.429421555605589 6.931726236799878 6.239775778925599 -0.7976276772987683 -0.713041725726572 -0.1541558893515345
Ni 3.630538950216505 8.393664090818383 7.860499763329104 -0.4450294179734981 -0.14891058179219518 -0.1541242647826507
Ni 1.8242934996571643 2.667156660905338 6.083661530542271 0.2541772016421945 -0.8175971784421597 1.0910555969114692
P 6.8084820093052345 1.3186636869302937 8.714512893699633 1.3005128299384698 -0.41425537001543494 -0.6664188836617103
P 2.294001547148662 5.791359291134915 4.051629205255213 -0.14696142848562432 0.5413938502378611 -0.7965555272805122
P 0.1904908730655373 4.0318350739289635 1.3853111776429827 -0.887510872714162 -0.7124094914592118 -0.643184595724118
P 2.8367092279000903 5.253129214836836 7.635212031392908 -1.0257819725146398 0.383771599604281 1.8696617388024124
P 0.6448447744663905 7.690937103373494 10.201711593661818 1.5546026140731806 0.27018231882119914 -1.3217686539934526
P 0.3712622248248599 3.8014127775417546 11.191600750811675 0.3465579666684612 -1.719933031984296 0.15378307939314803
P 2.4693438035082984 1.1395044562825558 7.917076314189342 -0.3063189166427563 1.3056524651578805 0.2741739564790956
P 4.697227281618366 8.195282357445715 1.3976255074315893 2.44576368194542 0.3536603820411974 0.8664095719591723
Ni 5.700752028887327 7.670154779425059 3.5117640692981453 0.18669217141634298 1.4490410886905818 -0.22359881463470527
Ni 6.579261692802019 0.03062754849442529 10.605378645634 -1.3006534692813922 0.25022721585551094 0.6635950410596702
Ni 3.6344018015994153 8.491987880412829 13.047080581978037 -0.4273988493759284 -0.7177370743197123 -0.31610967748093305
Ni 8.256023630972704 8.893880406357804 9.124532088219055 0.8303596203141506 1.1580454326684573 -1.3090751176861841
Ni 1.1998511867941901 3.1882011774880006 3.8673005435644083 0.04947213858819867 0.9483591143497861 -0.9727910221399054
Ni 8.216780364073168 7.575308473617128 11.50159962077062 -1.6950786919447776 -0.5559979733042811 2.151258727218456
Ni 7.965841830887417 4.5626330608679995 12.849389757653189 0.6019371590385568 -0.32359210190090726 0.06272257584020166
Ni 8.651043768115304 6.712507126965004 0.30332008249666326 0.9579444440453758 -1.0900541522301486 -0.6643386040939139
Ni 3.5527497482585253 3.1694190948732346 7.663829245592807 -0.3658767216017311 -0.5526699373723127 0.3577538353842807
Ni 4.734507008860083 0.7013864587345742 2.9434019171295773 1.2238301923737505 -0.5037104767544744 0.0876098260001846
Ni 7.772607507552306 3.3539459456136145 3.5196329085997684 2.577904500478444 0.45953429645789245 0.22362683965916325
Ni 8.440559657132047 2.3165363761187963 7.513490005904024 -1.440849554018725 0.8210900220867666 -1.604973353216249
Ni 6.397744379481103 4.722789998845888 2.007054082247401 1.2326061387941674 1.4387471629637416 -3.351531958207873
Ni 4.664994034805629 1.292568795402988 9.087911156058796 -1.1197398522200392 1.2662513376524387 1.5217125482133793
Ni 5.696136793149551 3.420339277221062 12.737901076932381 1.9586226795138528 -0.9176120629749165 0.22282234147999688
Ni 8.525459808785406 4.383042585529058 9.36032108715701 -1.0139253302863698 0.2396928919830904 0.720755806541378
Ni 5.597161548808818 3.8554468198076832 3.8346002679265165 -2.0717774438626773 -0.8203474874937873 1.3463555993041973
Ni 8.690654051773313 -0.000570711059422784 0.33705259276775523 -0.5428179842788974 0.7970633201548659 0.24150680526337762
Ni 2.685874515587371 8.781206261507132 1.999399030207587 -1.257480276328028 1.3564469221019284 0.9310481338751644
Ni 7.734465290928182 9.424072815645362 6.598642930274989 -0.1191516053622077 -0.8645843458249756 1.0109166253670334
Ni 3.213039036617542 4.59462774678773 5.6135607751192085 -0.35743270459943605 -1.0533118025037924 -0.3652342029217258
Ni 6.3705484376783845 8.097068672878809 12.894122677717561 -1.140315876599178 0.16458042711896817 -0.2812879418160575
Ni 5.882893270697643 8.28391690461652 8.311826694014465 1.3769450420552802 -0.5289671944387341 0.20886227975547902
Ni 2.1753358537159473 6.75493426424428 0.9796998543927994 -1.419671120168897 -0.9269261412869907 -1.6317969011669962
P 6.091386315766195 5.823298924540874 12.80387876206086 0.2659196868901033 -0.11874305706987937 0.30558280980768016
P 5.067253577509074 3.338191751256236 5.948510361860925 -0.47860982503210475 0.06983244741210554 -0.5559048993698427
P 9.092720910678562 3.6980241566804053 5.653350896988869 -0.31202496588859807 -1.5281279648214199 0.8494058383123241
P 7.10725200153875 1.0552832856323673 12.51307028086048 0.5619251374219935 0.42024989703597304 0.33250765922298214
P 4.33390821698872 8.567997051092224 10.066520053137038 1.2521514079159468 1.1630130610863776 0.1712393271963825
P 7.14408213325134 1.2895867842404094 3.123728261069253 -0.4468543869973788 -0.23771777053459062 -1.8773081996040766
P 0.5185763288819438 7.909688266841316 1.8701036139076488 -0.6106238881792774 0.18352174410816136 0.22585084389367557
P 5.055132849060561 8.104372306372387 6.0018507424533425 0.13117948306101923 0.05041573344839059 0.15688460113660724
