# total energy = -340893.2699959578 ev
CRYSTAL
PRIMVEC
9.05190442897916 0.00000000000000 0.00000000000000
0.00000000000000 9.05190442897916 0.00000000000000
0.00000000000000 0.00000000000000 13.24837711233569
PRIMCOORD
 96 1
Ni 6.369870272334145 2.090446764898427 11.237326298499235 -0.04645726302127483 0.11445162878337709 1.8848898686060764
Ni 4.798604526953835 0.384773819428942 5.948309514078897 -1.1379337495202466 -0.5052132865522461 -0.06312983858094935
Ni 2.686206894276425 1.436428579839792 4.771548385184193 0.381678207410362 0.2889613992009153 0.3599423583951672
Ni 3.2555626189899702 4.169216573328858 4.7217086004455995 0.8525832075990414 0.3592910979644135 -0.21018562655259285
Ni 4.824112793098652 4.461937052601765 2.656207073248338 1.9116717646856107 -0.3041797588125665 0.004950144916423733
Ni 7.227601562285995 6.160128599217917 2.614262359386788 -0.41977604272334806 -0.8456630834404404 -0.41728361531879754
Ni 5.175399092796314 4.643826016375338 11.297950521947882 0.23475508836184084 -0.3898782267226511 0.062431526962344094
Ni 5.434274502120512 7.867942320039869 12.52261794883578 -0.1125227871917804 1.016714977216365 -0.2798242127863374
Ni 1.749995594574556 6.3413658258863 0.3734507924166815 0.29887197344640787 0.05850853775885407 -0.6132708388838213
Ni 2.765800288247811 1.526531234632374 0.3299174693612299 -0.461280846835354 -0.871403682739654 0.11678336224034726
Ni 0.5451301133993612 0.05788240165472846 5.079175540357484 -0.6667271589307485 1.115346351138034 -1.2398638487978453
Ni 8.727683132732722 2.3206004820730497 1.3431604741349166 -0.06562663686087407 0.7944976163102189 0.4504814422270048
Ni 6.946069236652191 0.7835500295248166 4.847779901921304 -0.00863273597433352 -0.35904812871567193 -0.242465312521905
Ni 0.6538796909237818 7.321668951135152 2.5364947345003594 0.4828351759673619 0.6789602106618307 -0.32904232638220104
Ni 7.5529451044353815 3.9159986041538835 3.822859035489198 1.0229252197921352 -0.08731877712232704 -0.08736994207523661
Ni 7.607274633676398 3.93036397618079 12.529308211258646 0.15290196233977538 -0.36111426721608125 0.11012857592799098
Ni 7.8950708770434215 -0.30712477448804104 6.942467483955589 0.0777802415042725 0.49101205535119946 0.29183280721143934
Ni 6.714132294342532 0.7944602897037898 0.2989400426753574 -0.40508424503912815 -0.26348639485826236 0.4719329272325614
Ni 1.9040137451969978 6.784012995065733 9.133245555436392 -0.017326664203905644 -1.076368941433572 0.04021642431788557
Ni 9.2935900819313 4.967105724358288 1.563599687680506 -0.7529367621492968 -1.364767783262798 0.1721826649462583
Ni 6.483037179127079 2.03400814196978 7.110006463939461 -0.49984122360705524 -0.7686053219244892 0.07239043794726888
Ni 3.3748757687610196 4.368811061793439 0.21582364757424743 -0.2481474505083468 -0.7206259658317331 0.4543920901353207
Ni 6.157132418914889 5.623169639774883 4.847462180082524 -0.292607994814567 0.15693756586172972 0.09497038013031386
Ni 5.327706433517632 2.862438417900775 9.2070656448843 -0.3728809208337062 -0.45831687911102365 -0.6668104626731742
P 0.06401325639563823 5.532379040260154 12.450771174511923 1.0831911065617281 0.7292826130654666 0.25241985263145555
P 4.112995196101941 6.078860602962362 12.523836335146317 -1.0401359272434667 1.1668054382492745 -0.6763047753168546
P 2.363787117196157 8.173335465247035 1.3659739883878546 -0.3767470886573318 1.397331319021116 0.4175736357553905
P 6.282827161174262 7.807928194936913 5.702075089024123 1.1870559609681945 -0.5023429069829864 0.32976146393641276
P 4.664971264677074 1.100593880677687 12.49001298976778 0.5472909324485864 -1.0795131434895084 0.27388625003534767
P 3.8074391166184767 6.176829362538423 8.11700184440756 0.5372348337641651 -0.2050794156742791 0.843974639994424
P 4.7687241910617 1.0868802457559708 3.7755619306512718 -0.1352675370874638 -0.8640644687657635 -0.7765063219391207
P 0.06694969413069085 5.609302122481107 3.694787263176728 -0.14331071910691448 -1.8096840726971994 -0.9947703546244739
Ni 1.3273078742415825 0.7693466865837837 2.566939004026569 0.2456269980793383 0.4719843492957871 -0.15404224659180565
Ni 1.5834405565814362 6.633307841394676 4.735420424986468 1.8110153899141133 -0.32512396516440134 0.32159332630332355
Ni 5.935369816969594 5.5979148269487515 9.06143951468161 0.2530898821152867 0.5178687705327274 1.0904971533048382
Ni 8.758903150452193 2.5034670515044084 10.27536142604768 0.03348630468290362 -0.22093746575245818 0.6735853195031626
Ni 2.39732442240075 5.338532510987184 6.646750824379653 -1.3378493616053992 -0.9315615831764731 1.2832779541174222
Ni 0.5626618415289848 -0.21180098133054404 9.16002018298421 0.27026176590888296 0.6765580289782412 0.18331194209020044
Ni 1.0956243852506096 0.9301555757661407 11.509341452016411 0.6939793097784822 0.1259629718570863 -0.5564306899663256
Ni 4.166745403471677 6.835617901130883 1.6743832280873752 0.7179659025010667 0.8126025534410457 -1.4754851418147235
Ni 5.723392323506395 7.852916159003533 7.912990931864888 -0.667450153139702 0.8054590004177289 0.8220557284341455
Ni 5.399795798875088 2.7433334619272167 4.869732580081137 -0.16174809987649563 1.6624639912335497 0.7117021809795421
Ni 0.9186687092871587 7.569953632500004 7.021467073008913 -0.14660301670494105 -0.7869763682325092 0.04758083510275676
Ni 5.150388681384631 4.636457766324991 7.07503081115133 0.12460671493950796 -0.9080444738911393 -0.7913320740980436
Ni 8.081033197724436 7.107926336345395 9.118288188872272 -0.04952947418869535 0.2617758399250589 0.9181987887163219
Ni 4.702627186310301 0.31765304430813873 10.290133228574907 -0.4994781838406817 0.156878173378704 0.5495882131231954
Ni 8.31029982828366 7.249009315810653 4.735910133005785 -2.0619812837078615 0.45177085046238974 0.6113111440542891
Ni 7.284818648979175 6.262786245189655 7.128236093885893 0.5068857891586626 -1.2326035676910063 -1.4126216695212834
Ni 2.6629706560955366 5.261745207329812 2.3676703841145836 -2.227344354629125 -0.8279849494343869 1.4255139521029192
Ni 2.234525924666714 5.57427125307712 11.18259758028129 0.767803394848484 -1.048598456188523 1.7417025624509035
Ni 1.2079675687578166 3.3391479027306477 3.719375855850886 -1.2592545946196312 0.03400746729369627 -0.32213531484972263
Ni 3.437795555124616 2.514781931802854 2.6600622792636246 0.31790893547320087 -0.09486727889354629 0.18648776871502076
Ni 1.3275251199433125 3.4492552658908817 8.407089124737412 0.19298160396948055 0.39983019572904044 -0.7577005020865274
Ni 3.6974132205963914 2.700472695356705 6.989313803962426 -0.19308959030225456 -0.08518373305719523 0.033173401428175125
Ni 4.325895983797494 6.7182237550584505 6.103394884211088 -0.42593383479462776 1.1914782584056063 -1.348908190522722
Ni 0.7598195573724924 7.513705099560371 11.2716927581321 -0.4124489129343155 -0.9005124271801522 0.48153085533364165
P 0.3678730090247598 5.592012985385082 8.08194744005255 -0.33019135238497976 -0.09510047795027493 -1.3646052895430048
P 8.538425918908802 1.3434926790204789 8.261926452031746 0.49780156746920723 1.9242246616499572 -1.5969836501425527
P 1.9084491782739885 3.21712823359221 10.538607094738348 -0.55199270879963 0.9423951834568672 -0.6659365447086532
P 4.1288450804240036 6.1593682392618625 3.849859055452561 -1.1590491913426233 -0.9084296251447 0.30143819151168727
P 6.94156138834129 3.9822766469900586 10.172527267943286 0.5888854680609213 0.3704229462115169 0.9163596786250541
P 6.255137386107907 7.711480155272962 10.231880604036814 0.15712654194408424 0.06276808436615643 0.06921538265339693
P 2.4432718883166777 8.442982640615353 5.733645415437634 1.0920765819768161 0.65723670294181 1.1193277043832852
P 6.724143700430597 4.1111757633499515 1.5014918571271259 0.8676406161527961 -0.47613513823936715 0.511855474459112
Ni 5.141925150921393 2.7268952038296352 0.6939099270388348 -0.09882497798971368 0.5054752819643812 -0.36950814770673135
Ni 1.5233630681488093 1.1787480218751105 7.079217316861755 0.04306340684837745 -0.29847268112546016 0.7602718623581294
Ni 6.993564578192946 0.6546391456894135 9.52266843288236 -0.18882490148862965 -0.7142028359142086 -1.1228822545037629
Ni 2.898130076314192 1.7127108010151177 9.258124721123854 -0.28193046049606285 -0.7056624025433653 0.18630624883183397
Ni 6.587595724988955 2.089251913538911 2.6946405534556743 -0.8729959669274385 -0.3555984796041747 -0.8603929334514472
Ni 4.131832208822793 6.996361616602722 10.255197404165425 -0.00833911599331467 -0.18139749867630695 0.4173862023349328
Ni 8.265854978471365 7.09901021067022 0.6093325545935895 -1.1175222757434304 -0.29768335245494537 -0.8822066868924291
Ni 7.947698648287552 3.5443636237274965 8.294133127313241 -0.3035611513919611 1.1827779024181309 -1.062806629368105
Ni 2.8931967885040697 8.105219885850392 12.432329730006304 0.7912726816150178 0.523694118965253 -0.2527990903477453
Ni 0.14546772187851248 5.044218896568254 10.204589112756961 -0.6991505695667766 -0.9047999988119126 -0.1723788401174644
Ni 8.676883846144822 2.3114942664088605 5.9607495460742195 0.15065610372839214 0.20761195228814566 -0.32242970616168987
Ni 3.6583723576146343 2.805456680717803 11.650265117967066 0.48927887471017667 0.07957924238622424 -0.7614501989369467
Ni 1.1538914928354853 3.064703218115789 12.593138619188661 -0.8594133431469975 1.3909056180004304 0.12433083557030201
Ni 3.2949293505243222 8.430101780883602 8.070434323051275 -0.7033000729587758 -0.10045711427649795 -0.5802828139935748
Ni 5.587052541862244 7.713335795641907 3.5006184861128578 0.023771905608617125 1.479563425649155 1.3596942253946322
Ni 3.043376931729279 8.341782351226055 3.5963650031983048 0.919340615630249 -0.5562777093282292 -0.34280878403867415
Ni 3.5976702877895335 4.447191500596831 9.464905516363585 -0.7603698213885745 -0.04275667424123604 -0.6745235150467157
Ni 7.32663844656223 6.236997370013438 11.443735965665175 -0.20932944919988467 -0.8661282932733276 -0.7154719324346194
Ni 0.33703860242585965 0.0131524168589132 0.30633001729587817 0.7730242769277912 0.3099644838151436 0.7113252572560975
Ni 4.4969860258142305 0.4127260997182221 1.606219673598267 0.2143083904717148 -0.6366714771959486 0.34385496591500136
Ni 6.084753392621793 5.7018397395139155 0.1248800708778847 -0.204421470375306 -0.03986289763320877 1.7762365916720315
Ni 7.813431752714076 8.59426711615769 11.632299803624408 -0.6072086918501414 1.2515795945728767 0.1409861847387959
Ni -0.1701477387854821 4.9449014032606184 5.772887230693491 1.7168744476636302 -0.2231856383566866 0.5738954224099923
Ni 7.732806441659473 8.84745792961995 2.7071602422082988 0.6639393117729662 -0.4622162141654298 -0.6741910714079614
P 8.606813055432607 1.6218025267452862 3.5549235752124293 -0.18509525924286832 0.483334998421916 1.0657695686511708
P 1.7812427680067435 3.165894455600848 1.5004979580417104 -0.16515378312393492 0.6737814946743687 -0.12188134558854494
P 4.701341815908397 0.9634303757478097 8.089035081071495 1.0096431579712482 1.5739990163219215 0.32628199002824454
P 8.308742900754595 1.7695115001133148 12.502983463351494 0.2097840202388 -0.682845661759166 -1.0736129759549897
P 6.202826431512133 7.939153650686166 1.4362430158028974 0.8256390749100297 -0.7810286352895065 -1.178279500327145
P 1.707686994162608 3.120607778694349 5.9773498332576755 0.6941132642531853 0.4741011385284738 0.2620247227110713
P 7.08168486595724 3.9512829268765564 6.130858361671475 -1.803420865396307 -0.2998687901420384 -0.10927882633318599
P 2.382515507066144 8.700780873335137 10.301765830712132 1.3214218121769952 -0.2023069951354645 -0.4326184459036549
