# total energy = -381163.0976001861 ev
CRYSTAL
PRIMVEC
9.28083527930702 0.00000000000000 0.00000000000000

0.00000000000000 9.28083527930702 0.00000000000000

0.00000000000000 0.00000000000000 13.58344055247660

PRIMCOORD
 96 1
Ni 2.0971717899637863 8.69741414594674 11.39482210245424 -0.35906561221716865 -0.153295084013136 0.1509309546563336
Ni 7.169278210431591 4.809987789228217 10.11116007411563 -0.15234171896093118 0.629642081152993 1.0859085054928912
Ni 5.807937446840029 1.5532405949884025 12.180991451383573 -1.8504571408495034 -2.7586273416852296 0.427231984780761
Ni 4.497381413983269 5.97228247824571 7.577155144231357 0.6897660430280831 1.3915183118837648 1.189532704643461
Ni 7.70328819247651 5.506607286478632 12.638331524972118 -0.2128207501825948 -0.22099480135295488 -0.7093917876788105
Ni 4.237434498202735 3.5819662246508055 11.962569776963916 0.7405782405839438 -0.041143049897213006 0.6414473013180372
Ni 0.8337902429120344 2.773224956200254 9.059652572182838 -1.8971368042942296 2.385795528921904 -1.5431192960239295
Ni 1.2205504921648527 1.7922035421667089 1.2463929780440663 0.23563929073900708 0.5995324062518061 0.559530669047888
Ni 1.0794910765145855 8.347600902003727 9.147686863458064 0.03699817449090402 -0.23526288123619482 -0.3356271786885704
Ni 0.2612063251300794 7.933378661112698 5.17050926093472 -0.07231047663895288 -0.9428615815703245 -1.2321482253211424
Ni 2.793735602202431 5.330503436754055 6.348628702213892 -2.7381798724641553 -0.34331374869955067 0.05599682708059388
Ni 1.5707813736961467 7.975754955070138 2.873971207579183 -0.5341178854017383 0.47554507006385194 -1.597497356554178
Ni 9.170291265902817 9.229809262650312 1.2452690688898296 -0.1763499089500705 -0.7475693271897964 -0.6314413391452609
Ni 1.6688426794242026 3.8775701096351245 4.280250703753162 1.1238335626734386 0.3282977349066927 -0.4261513501220725
Ni 3.1313352668970897 1.6065404320881778 12.444699889709211 -1.3751277863408833 -0.5855067813966756 -0.28685335171897697
Ni 2.616211784677705 3.80810305745128 10.330247184425943 -0.3096829480189828 0.09797394284332805 -0.12085727519940476
Ni 9.142819993429313 0.6274364386266009 12.602241140760052 0.734470070803677 -0.6475631844077879 0.8764055068296196
Ni 2.025597988167954 1.19864772086841 8.27844104546815 0.3941179758356116 -1.553057638183564 0.984053482427602
Ni 7.96111907780976 3.405983025785067 7.476230700814762 -1.0412348167346004 -0.3235985296588104 -0.6358798345325888
Ni 5.198548520528285 5.596863409723507 11.238925415417693 0.950452249433389 0.41614101707392204 0.3170136773524411
Ni 8.837220648832169 3.0016541553186187 4.955728458201333 -1.4395439478334242 0.21359310957224503 0.25935643185028884
Ni 5.747714106610107 7.519564776974655 1.7606858255045397 -0.19900081358036698 0.23205208760838097 0.6043969334329591
Ni 4.09028685459888 3.3257409238236084 3.142950232268911 0.4906112203683551 -1.9644014909791587 -0.04958398157571461
Ni 8.487463089900924 7.656549905930372 13.024047680254238 -1.0704515475078726 -0.009450861000254692 0.5097402278883222
P 4.750636847516033 8.311609822729316 5.168539867685099 -1.4585240884803528 -3.008049545140942 0.5325109459259345
Ni 1.1675847651357012 6.942101924078065 13.559289229142816 0.4319957247179915 -0.902185444007201 1.2252556119663673
P 7.311562696340811 2.462651083884934 9.319543802951602 -0.8192527117677116 0.23809649403024802 -2.2141224566222126
Ni 0.7839985615538079 5.708187029088264 2.9215132144618767 1.295470382418556 0.01680447315184848 0.20428340213554497
P 1.952576376066085 2.05461916013574 3.3588855709130088 -0.09551545400050646 -0.23838188648115072 0.0804819567061517
P 8.21030950548327 8.848366932021586 2.955838383800814 -0.18837598687666912 -1.586280661902752 2.2775621131340973
P 6.426319502552727 5.7026742129229735 0.7895717031485171 -1.022032789884853 -1.15155673962032 0.08429361714275806
Ni 9.247099458805087 3.5437663065761624 2.3080574261238183 0.3901281379499281 0.6768264521482795 0.5076481212459838
Ni 8.303869606093201 6.0924136103055195 1.6173804477128577 -0.3482641507262905 0.7520039659223823 -0.3000107150365414
Ni 5.652297838941156 5.3241739070827965 3.1761886157947923 1.41549821973813 -0.08731106381284319 -0.8341921066863633
Ni 4.582672290345264 5.5065237589609755 5.253653480092957 0.8493824412735564 0.2886443821811287 -0.9677354619938688
Ni 6.256944258417101 3.087492600963025 1.7210353128732723 1.2028409917165932 0.2624828932944125 1.5156401167670541
Ni 2.934767175346813 3.565037981072538 8.064407349976019 -0.20814314220126737 -0.20448600506465428 -0.8366161427468237
Ni 8.1384294361227 6.980515301364495 9.45377623615879 -0.23893827320525302 -0.06304164974251725 -0.23313657892181142
Ni 5.975744229810783 7.283265429526043 12.890875118437748 0.24401157396310233 -1.168400036429904 0.5006392940283184
Ni 0.2213711238764392 4.527785430410026 0.14987249684649684 -0.22533559482015386 0.023644378891817343 -0.03230565411124114
Ni 2.144624700827647 9.167005850208351 0.20871392070097802 -0.4401605199169709 -0.7599383902781106 0.5551389677380956
Ni 7.513986994962298 0.8431369721377323 5.100921557892039 -0.30683416571627803 -0.2049284919187116 -0.6727515107479575
Ni 4.405631076255883 2.120800796625118 0.5862805745104676 0.7537757131108245 -0.7376919201750843 0.7740280356019572
Ni 8.979783559800243 6.374968640864923 7.007764761874446 -0.2322168953210194 1.2037773874879334 -0.45237917347034995
Ni 5.604065337912506 1.7236367310064895 6.152388224149532 1.5155910086966735 1.4067814086904225 -0.5250969128500504
Ni 4.714710734088691 4.283421037089969 0.6645402900528924 -0.4994419312861076 2.800968525655602 -0.3406937945782003
Ni 7.580493460687005 0.9914901962464209 7.495437389457976 -1.5507405600146131 1.6848868390134402 0.5571498275205373
Ni 2.3332762398712017 4.621688921925876 1.1630315873399237 0.11971981916085189 -0.2670118915130176 0.9177167068735809
Ni 6.77245753571888 3.3798389127587622 12.137333474071879 0.20193341384612964 3.3779035062228657 0.17533046654662063
Ni 1.9267106880986336 0.2844566737113709 4.630649568403298 0.45112344668637794 0.7135410339604936 -0.1142449120892097
Ni 6.823065930583076 5.565419939743697 7.712337934972765 0.14373520823884278 0.2695063758000971 1.5079921133034933
Ni 8.063755835338302 9.28464043757378 9.549417100041884 0.3409056534786903 1.0184095913099687 -0.2081089465292222
Ni 3.4311804936112704 6.763909886412091 13.322611223614166 1.1508278318740954 -0.35912346203829765 0.16612463167763647
Ni 8.08197411502259 6.208823127411994 4.427685125167636 1.3830344427824697 -1.0749082977276456 -1.5068343455499662
Ni 8.026316945757857 1.8550440779498498 11.055549103155874 -0.7117047520827033 -0.020991000429370302 1.2522259699076241
Ni 2.075668094585033 5.789617077967495 8.613789179520216 -0.5679847133525122 -0.23958670542252933 0.308087835617721
P 6.898593368214622 0.13927192677243044 0.20418116074284984 -0.1230321713635365 0.05799071758217109 -1.0018799690860616
Ni 3.3095087428924734 0.9106504084919576 2.232220936676945 0.2901183956234939 -1.4169246677720113 -0.3621097983601312
P 8.251739154240608 8.31956349857722 7.495056875210877 0.528534991997322 -0.6859767511889798 -0.13920261047581187
Ni 3.849180034467405 3.0406429443933454 5.721195975921409 -1.0974283332070325 0.810421743739643 -0.7851719680339188
P 5.983261706399815 6.904551664474079 9.59160684920989 -0.9676770979521078 -0.14257744048531573 -0.2882669442370519
P 3.204774516587238 6.034324862193471 10.833744564271154 -1.225696813268844 0.5883535068168513 -1.012247942583947
P 3.3142605305635655 1.2017939240334499 10.3918617218666 0.45564576003676366 -0.5833087453040923 -1.820172630933349
Ni 4.3450829067906325 8.193771056987398 11.347062924025643 0.6426827163870351 -0.533649430405752 -0.5222812977781263
Ni 2.223521081671316 5.023279945980268 12.46253487089581 -0.18436892259980503 -1.2062199354911551 -0.23922212299425896
Ni 1.4909290668170823 2.3682557080984434 6.050594166465786 1.2958154244628006 -0.21346275464196784 0.7554785547345441
Ni 6.121935947379241 0.7713589919654074 2.130617136116748 -0.4972927461535887 -0.6592475627242518 -0.22877984461501247
Ni 6.679602778591378 4.618561280431426 5.477998183597948 1.2386844837777635 -1.474872190821073 0.3079741928579922
Ni 5.455581254026157 0.2802385340697467 9.737397634693602 0.4034374534643245 -0.10013135550596304 0.16318020433733188
Ni 2.7790533207655783 7.243404241933576 4.6951838566277955 0.29506416966454346 -0.03990223551157644 0.9387434456368929
Ni 2.008020086119029 8.102726062742438 7.0478904532728235 0.0400583014734665 -0.4446846330395696 -0.7027861094368348
Ni 0.9663112900908071 1.6045636141703206 10.8949655942953 2.597521760488739 -0.4205556012018499 0.4808502843268493
Ni 8.152870415841878 1.6373992094443943 3.004561841016574 0.020351052852526242 1.3504156283061841 -0.4518968345172927
Ni 4.4545874824375495 1.6055288210410115 8.086751889032508 0.6658522125249628 1.3663281857713823 3.0571388464684253
Ni 0.6945610079819613 4.406132241361819 7.027949650557765 1.6959641798735243 -1.5822340026372042 -1.2738407199639223
Ni 0.16770283761544832 3.9715107244921546 11.213293604499677 -0.9450272217630756 -2.9276403506542548 1.0279938925642942
Ni 3.308125898433503 5.376657030676602 3.2401391394792274 -0.5796621496904404 2.1062896187069335 -0.907869638876172
Ni 0.187763363105813 0.5628891572326906 6.295367844622356 0.9184188751469279 0.3259078945182774 1.16302951614661
Ni 9.002215338708506 4.923678021593226 8.964826565638655 1.474166937223932 -0.7233688186841929 -0.26493649704122757
Ni 7.089927068658462 8.876534267142224 11.635249565442114 -0.5567723895764605 0.2666331680173602 -0.970658806288251
Ni 3.328998497012189 0.7399888405844305 6.575648142450931 -0.13400846786938211 -1.745301592656072 -3.2095152753220337
Ni 0.7785182283120496 5.919632299616591 10.804893231589267 0.9642264203993458 3.8330610137693015 -0.1384194524528842
Ni 5.60032516128858 8.95775085680967 6.907301575972018 0.2799100876319244 -1.4336486653949116 2.033448466375492
Ni 5.231068567402325 3.8453748919964132 7.4521200188016135 0.9459921567795063 -0.7430099899538881 -0.22426267347094925
Ni 6.496668234089606 6.819502089829756 5.788637949843862 -1.3570896978922498 1.1371580476964869 3.0203278482876628
Ni 5.414959037939491 3.4460855150952057 9.77858319748268 -1.3221628041080777 -1.1566619220573693 0.33420175909595345
Ni 8.123292393756387 2.449277400224691 0.36942921742274343 0.23341348673228188 -0.7233155968487543 0.043363968807931766
Ni 4.44283794495395 8.80299292826383 0.04034379102781181 0.8989016310496067 2.5163330075235506 1.0057049992591067
P 1.1783134107368398 2.7287511934661213 12.959186706627353 -0.1758382594209746 0.2820379326082046 -1.5046746188944862
Ni 4.6407610384573115 0.7234633852579705 4.15665503587769 0.19211128554938525 2.4379429003494204 -0.6721524437113778
P 6.110177129060346 2.9491710317248123 4.387628111950443 -0.3953693317442094 -0.9991535712938342 -1.6940016568305147
Ni 3.487988486452595 7.531175101928828 9.052887771336238 0.655526919339555 1.0775819879050668 0.8575906881159616
P 0.03604119578500216 8.095227147823996 11.017705569156563 -0.7741437352442151 0.13681225586676438 0.982328015096063
P 3.4837285830521427 7.741293213009955 1.7724891918328516 -0.41588519230937404 0.03246660516913763 -0.31313413979237686
P 0.9787104860450643 5.696335402416418 5.092173442542875 -0.9780792671220381 1.7237346651185734 1.0000382878916325
Ni 6.607063769924854 8.03565346606473 4.069870873116713 0.051983335045826605 1.0025291726342864 -2.440784997783906
