# total energy = -340896.5721779355 ev
CRYSTAL
PRIMVEC
9.03182250031058 0.00000000000000 0.00000000000000

0.00000000000000 9.03182250031058 0.00000000000000

0.00000000000000 0.00000000000000 13.21898517981993

PRIMCOORD
 96 1
Ni 6.448558687109089 2.151154322240907 11.36397815060385 -0.3034372242195871 -1.2325670580261159 0.15886126524700384
Ni 4.711937921823743 0.4585528534213441 6.1562663316833675 -0.44019651536122906 -0.6794680035361846 -0.23844127896417644
Ni 2.7385027707751712 1.4487314233249005 4.752344489292375 0.6791648704734691 0.1764244709417478 0.6542822482991764
Ni 3.4857235092558465 4.170100826831085 4.937806641907854 -0.08055960402162254 0.26972954755449674 -0.4163595608426313
Ni 5.122605858752355 4.497657933180244 2.592930565381733 -0.8001111058422543 -0.3191605484921149 0.4897959235559113
Ni 7.187641753523682 6.0815325164660585 2.6196331485819226 0.15402476309030894 0.3042700045335276 -0.6574873855000355
Ni 5.069543901606703 4.5669410435231015 11.412769862074867 0.3571375419565205 0.9476024386894196 -0.5428542368334716
Ni 5.6859838503905245 7.746621247607821 12.419738589992683 -0.809236208071974 0.6374291812975796 0.7191884620542581
Ni 1.9026617899943905 6.578851758391329 0.470897548404608 -0.08074472344923513 -0.09033776645430894 -0.38833556482587955
Ni 2.6868678415833953 1.4698026652007818 0.42953360775173133 0.2447175988911915 0.26941792985134894 -0.913084350307892
Ni 0.6181812841604469 9.124037400528968 4.562678023306463 -0.028912055048659888 -1.130198585659518 0.9785320383887406
Ni 8.611951128827844 2.4768328095115475 1.242724584084876 0.47002336891467433 -0.7560269710388463 0.8041048003826797
Ni 6.96792460773947 0.6229500864366858 4.90687445623425 0.08863003973458283 0.13986415531921076 -0.5259831721097457
Ni 0.631264782223628 7.361865609411273 2.4470458589300406 0.04845912394265203 -0.14826009269238982 0.43416085069011034
Ni 7.4642684128355095 3.9205244758854234 3.8236446319155815 1.434580947401194 -0.7158221166851866 -0.3659075748396666
Ni 7.693053508402569 3.826178058124833 12.62631172450301 -0.14681256161258588 0.6821910588943025 -0.21921714062724182
Ni 7.8652090769392915 8.518851102571272 7.154828239224812 1.1106690002670225 0.7328865283666409 -0.3387760087301972
Ni 6.869188724247342 1.0271801402923737 0.2827014631205363 -1.2193595581969066 -0.8933308218300485 0.09993440900380852
Ni 1.7908749230000556 6.575356443086585 9.275008829408646 0.7079848800289549 -0.22202684216189503 -0.6994279915978793
Ni 0.004351532077067992 4.905498909668585 1.3917875888718116 0.38375437321310035 0.09822385407060504 0.41307446233345635
Ni 6.500663271070495 1.8567801317305768 7.115501877726327 0.020205785523913587 0.4245333549026753 -0.09591217521829289
Ni 3.293598581187373 4.562181273069355 0.5805790975758534 0.4993470575794562 -1.1163848197048774 -0.6005505631036754
Ni 6.1310630310169945 5.718200361222616 4.7623643931659725 -0.6974523559287472 -0.5240209061770523 0.3448204151520642
Ni 5.475144986116811 2.906937228444829 9.261286781495219 -0.6676789813210566 0.12396702447298005 -0.49148668099477294
P 0.3587611498797988 5.666782195770668 12.576146272830826 -1.4679770063631363 -0.5568472086784538 -1.1823968649296281
P 3.947565752429096 6.230376951148667 12.572220139593172 -0.04783254610224665 -0.3878069460159192 -0.38256343822879274
P 2.3435411731616735 8.502503503859163 1.2648534523746733 0.18557065621739005 0.6117338334140046 1.1018508877547606
P 6.363668587498541 7.678846451621275 5.90962622623014 -0.10740372079766018 0.11624651590027077 -0.4897696983036663
P 4.728710016193016 1.1488658847389015 12.62099830333045 0.29378298895927474 -1.2385687841355055 0.0459821231570692
P 3.981019622942711 6.054418985342443 8.116985579844219 -0.10360980097286673 1.222457223285624 0.2927581472391861
P 4.792574033040147 1.0317231470062906 3.820194475723303 -0.6475896667703492 0.23463887449895074 0.10042857503140769
P 0.24543887306167492 5.560188626709738 3.7158697004725822 0.006474037760117882 0.11205793174021993 -0.9458682296071323
Ni 1.5050267729230011 1.1081594607635061 2.6396070240249196 -0.3853705686602847 -0.23637976844945743 -1.7089626490157215
Ni 2.0712046295339626 6.239056532564321 4.850164545983726 -0.20839253920791206 0.7522124823887626 0.06019106766759956
Ni 5.829291777884999 5.536985874725537 9.091475874077648 0.15386201226019952 0.2826855934945325 1.1862823160269633
Ni 8.673773953791585 2.4069716625291466 10.053884299362355 0.2644785835682026 -0.5149616241882614 0.7394248437057911
Ni 2.323644068209866 5.143939023480529 7.119639355610315 -0.1393000552856246 0.028317873108086714 -1.0393903073266937
Ni 0.516212008215869 -0.13319138312020334 8.998771441646262 0.25795415218612344 0.29215779465102587 0.7455139873226645
Ni 1.6064541395180063 1.188380108145237 11.262826254594877 -1.3318417219587386 -0.6370327171901093 2.0347810691439863
Ni 4.099327465776903 6.915458750878351 1.5538654498709827 0.542037397359131 0.4599770404222659 0.34711306784098284
Ni 5.731260376547315 7.881872789438649 8.075095083940006 -1.763404987125002 0.12396445336981876 -0.18172145767462897
Ni 5.423925520759707 2.7926124193299957 4.784743442938823 -0.016143699639398004 0.27731070233586436 0.5992850661276905
Ni 1.0385602366333984 7.405471248406882 6.910316934333155 -0.7693290874643912 -0.3285815846956986 -0.0609099481114951
Ni 5.079289238076518 4.474382926616101 6.920932035309034 -0.2645104652474025 -0.6061419411485238 -0.012588892408604125
Ni 8.147408370729224 6.942400677374601 9.15692316940778 -0.17655996807834756 0.5300910236305322 0.6805350113481183
Ni 4.812660806264304 0.21078918925000278 10.532226779047843 -0.9900994315113658 1.0395587145837581 -0.33976948299171805
Ni 8.126833879090452 7.290342607090183 4.649963362242123 0.32380473213234556 -0.13712515912149287 0.16822239474692963
Ni 7.146736629453443 5.9428669457329235 7.137815898377228 0.57159171397748 0.43225360636506843 -1.276473272490763
Ni 2.3384833525656625 5.258236737127883 2.6135122824785 -0.5323191416301025 -0.15380082000496093 0.2996407332916323
Ni 2.2572782365322084 5.316880360574132 11.39532038101863 0.13293091853448719 -0.8641310603376409 0.17898888923481432
Ni 1.237142917784278 3.2616710886750537 3.700971709270582 -0.966857944484922 0.8555572026257008 0.4254376118844996
Ni 3.4525315615945247 2.6043802067559527 2.6722182254999494 0.7754154028677871 0.6454422814100432 -0.33330392987203245
Ni 1.0353539396484273 3.3772151938264257 8.187522307149086 -0.24911881328268065 -0.7176393723995833 -0.36791252108483735
Ni 3.445739631079881 2.479966851916576 7.127015645040247 0.5674923470971259 0.5344914666910731 -0.18757174580781888
Ni 4.335627037658036 6.840819769797217 6.00587384262548 -0.9955064614595501 0.23818545419962853 0.14339479418028853
Ni 0.8802332915155192 7.434228571224202 11.325431235386501 -0.978423023614702 0.3240176194741 0.5495486181345116
P 0.3352666700290787 5.50666604661695 8.025999000050978 -0.8783649445488356 0.175543096778059 -0.3662055656960596
P 8.510532794055331 1.5566526702922843 7.9804470033081545 0.12120077458175255 0.10857742939078721 -0.05744538660166235
P 1.7877950715299848 3.3058637961326998 10.331654387401782 0.20620890129303196 0.5933440180529072 0.11896751437585963
P 4.090756266231163 6.076989509752142 3.708189941806889 -0.2101357471512639 0.22188286038486302 0.791592783958598
P 6.940747853858404 4.004448170489233 10.443910005983497 0.36285567538722024 1.207985769142326 0.48026047326165033
P 6.238686227842114 7.6646032675500075 10.184249625224538 0.7627951430006155 -1.4259898632980732 0.5920106439534643
P 2.5193455979855184 8.400055541322464 5.677236530306173 0.2250517450311479 0.24076401356008212 0.4544982766958817
P 6.9321314952002 4.032428756572165 1.5511549999408702 0.2658777779085743 -0.20537766364098825 -0.32383352848775193
Ni 5.207920454020067 3.0532166255394597 0.30298422689278953 0.27741766022737385 -0.11858750532862157 0.7868848369599674
Ni 1.3562997519328006 0.9758522930653555 6.897322851312654 0.09053188474298603 0.2951107066317627 0.06342371567228432
Ni 6.995435539052773 0.5766954139039164 9.304473343927159 -0.2754721064652288 0.6309829114516036 -0.297766656197371
Ni 2.6255507986792557 1.619613504890128 9.314506795534497 1.3991449751910872 -0.4243263810981918 -1.786362881472756
Ni 6.252026229664092 2.046620008708352 2.439721954070567 1.0168869840178552 0.5322273532472446 0.6927122701406006
Ni 4.066189709050539 6.772629509975998 10.421636628533815 0.1597783777446345 0.5988947726678072 -0.7086235420542183
Ni 7.828946309630392 7.335564942312017 0.4119612939095904 0.5154033397113704 -0.5941048074783316 0.021949250577581556
Ni 7.609193036556209 4.004637838761584 8.402568194339981 0.5033417805611461 -0.9083458071816419 -1.2532261290373643
Ni 3.1715786593086093 8.275642186483088 12.308884710261863 0.0062804336920730544 0.8561292730790868 0.40060718310438104
Ni -0.044446501669695514 4.91380818636203 10.284502854895472 1.007399356242394 -0.3833453107001398 0.3624471270948919
Ni 8.610018318814369 2.2592200783681764 5.707230309622767 0.6016039440688542 0.6913305593017255 0.4093329930131531
Ni 3.783638174183384 2.757307025205341 11.57357875201379 -1.7068404604663958 -0.495779651943172 -0.8192218585297762
Ni 1.0527582615922004 3.2427494205524776 12.354543282510102 -0.334016896778657 0.5577722915958846 0.9415438912001655
Ni 3.067360459563305 8.428821895962276 8.061994425414088 0.79870676929556 -0.18409381456154747 -0.17526850296043364
Ni 5.5451416104366045 8.035233135367696 3.7737691017454176 -0.44860145159547254 -0.9303151123638816 -0.1314039403669995
Ni 2.9795350176425717 8.271866884681064 3.450856158522096 0.1544829336736501 -0.35360176088912004 0.24050690324395352
Ni 3.4014656372198 4.22505946670024 9.16444487117985 0.2686016045976406 -0.2183313955881788 0.5925428623078505
Ni 7.343558105218213 6.175481534036962 11.555428401532104 -0.058664860831060255 -0.654255508826299 -0.46533419096912115
Ni 0.4669876724474417 0.03787946353512486 0.25114246896592657 0.37673860401689957 -0.23884314238828547 -0.020227897011100646
Ni 4.586910403054851 0.4807458476508408 1.6784802143519502 -0.10259061567973299 -0.9433074108584915 -0.6007421102891912
Ni 5.751690359026202 5.460522465500842 0.3080998511527549 1.1125826723499679 0.7981133586859351 0.6963652935121556
Ni 7.764007505906608 -0.3613704433979909 11.430562552385833 0.4515438220532481 -0.16290458207844202 0.07424523176782052
Ni -0.020574491638773115 4.8558961405377055 5.774673637723826 0.4431311725095207 -0.15846223003637225 0.5683927474242081
Ni 7.941708613453957 9.02391964819543 2.2106767420157123 0.4954742048876112 0.7464156732013274 1.4099364093796363
P 8.606938467344298 1.6793319152130284 3.5781280851804675 -1.289693884946095 0.24597821077116994 -0.7002893111569101
P 1.695769832150064 3.211408996502195 1.3560297004402635 0.321014313871402 0.33259019163445946 0.8885380284270956
P 4.680922643383205 1.1042577134465834 8.421312838741699 0.3563227593647089 -0.6916946275093636 -0.9651779856793379
P 8.51718021541009 1.483648449082362 12.201004106495695 0.4651891807508247 1.4666235776590355 -0.18676981873181384
P 6.20881799085817 7.892367767175371 1.6776348357666169 -0.3380846390901274 -0.3934232637614321 -1.0333484720079882
P 1.7505297719243753 3.239181850667791 5.964961493097247 -0.08078071889349314 -0.5034831912350167 -0.3652306033773
P 6.981436214188814 3.808855022583496 6.017150073007837 -0.4196742270381611 0.7602847178739358 0.4358528936805526
P 2.4103405323189895 8.568634508152007 10.21059545143626 0.519351525725841 -0.7852534720041315 -0.5592403915009788
