# total energy = -340893.22287073894 ev
CRYSTAL
PRIMVEC
9.02985466238858 0.00000000000000 0.00000000000000
0.00000000000000 9.02985466238858 0.00000000000000
0.00000000000000 0.00000000000000 13.21610505010958
PRIMCOORD
 96 1
Ni 6.4908490292086904 1.8590845006358239 11.368229211656566 0.4522411052305889 0.6104179428160584 -0.6110979996022186
Ni 4.689501418136138 0.54550073319188 5.901307889733109 -0.9732538207089368 -1.487273392698903 0.8372368070499582
Ni 2.6657846105691965 1.504707861456814 4.745770956345948 0.2469434028979166 0.8657865936631928 0.39570846025118306
Ni 3.3504823565849335 4.190520689268946 4.828134065054818 -0.1720350836248005 1.0195359916049278 -0.24236735349146
Ni 5.014224015193504 4.709981128103216 2.9199930739700752 0.27455345130570136 -1.620297642278145 -1.2991123500465174
Ni 7.184269614654849 6.068414376792524 2.521355700057982 0.28875751072022526 0.22873459319937384 0.5169889390309355
Ni 5.139531305851859 4.525555380145716 11.109589798660958 -0.48647354405089765 -0.5453888303298671 1.6420124082474172
Ni 5.3905702903292605 7.6524133904631455 12.259695274576691 0.4473930331096682 1.3320836627662154 0.9855130976922641
Ni 2.0552671191299803 6.42503944973776 0.38426455453175806 -0.7453509793822389 -0.4159507554399869 0.12420947950108932
Ni 3.0347083453200594 1.7511145305845197 0.46630620042103854 -0.7784223080149111 -0.17969439994227118 0.2576967847596788
Ni 0.5042659026959964 -0.036878828693362065 4.885690357528432 -0.4916360620884436 -0.0028768073271627876 -0.5474703954492443
Ni 8.644144248604368 2.6802594673051865 1.5853381410904268 -0.13436045189216217 -1.0145074280420852 0.052954954930476535
Ni 6.883187176633554 0.7157613484221509 4.8133052380231 -0.39610466724833715 -0.2620995418130647 -0.5194466565428086
Ni 0.39570267120517005 7.486480784486498 1.9790325726586135 0.7689362229013467 -0.1155461473991365 0.8499244298199555
Ni 7.259741138422416 3.7881323138046827 3.894297215944867 1.1521357520522415 -0.13511712755252858 -0.1665951435561518
Ni 7.65360533125488 3.8065261273862254 12.655622789158484 0.12687108549365247 0.2893784321336758 -0.46609086662948757
Ni 7.990283455647527 -0.43827030822272056 6.955424206525368 -0.6183693364526512 0.8815798519417075 0.20352466959264948
Ni 7.047747244728809 0.7765169183390354 0.2889941718251187 -1.7013203019791152 -0.7690100135620755 0.483910925530044
Ni 1.911836910524568 6.416488177542512 9.25778877865099 -0.24105789065141708 0.1910774449682322 -0.0036831052785420444
Ni 0.14557841098687932 5.1035202461742974 1.3664129310957924 -0.2711804210684104 -0.6461812164585968 0.9927780067847936
Ni 6.564604880624517 1.8451514351688034 6.990672243499129 -0.4832856332412193 0.1862000622712729 -0.017782263684085503
Ni 3.5190516800705685 4.294038941060211 0.679875803721901 0.2186090747295977 -0.6549437931425752 -0.03599287315484123
Ni 5.94186999607002 5.526848854184266 4.855345531538853 -0.271463499526468 1.668176725347611 1.237779969685623
Ni 5.436270383866909 2.9668128694635945 9.158351118100523 -0.6685220460476422 -0.8140673109120302 -0.5930887075089916
P 0.27854572720302595 5.25551075682944 12.501893128529945 0.023691430079668875 1.5605403197138543 -1.1484202508738672
P 4.013282705479786 5.98589053667386 12.65095796633265 0.27638073432242727 -0.15887772030723604 -1.1023224280745403
P 2.3598531406906167 8.449532824790227 1.4572740358584615 0.3258772983906581 -0.5156231690316604 -0.14634616349912863
P 6.116408053368812 7.858637207142219 5.846288986369172 0.5954168414215358 -0.9559772930166761 0.3563433281899992
P 4.765162568847844 0.9937083962729646 12.459376961682947 0.06849136000317882 -1.0286834624321508 0.1340318649081498
P 3.8531021168087083 6.252307363335537 8.292220117902897 0.684217345295712 -1.0974298758689294 -0.7348786190960054
P 4.79329959541637 0.9093514956942843 3.670746914484123 -0.662065234678705 0.2019398416040329 0.48277784036686533
P 0.12147050548859621 5.935467829241688 3.602207610003031 0.561244052194569 -1.0820652204874008 -0.39911979992557717
Ni 1.468787100324081 1.0352818463119546 2.651943649617901 -0.4994128778203851 1.216957890733949 -0.12164454698739051
Ni 1.7124667533979698 6.63735841819275 4.996018022585205 0.17932698930052343 -0.7531907871416319 -0.9444448668970444
Ni 5.899068485821364 5.583014549067522 9.14286130572066 0.4228675371644781 0.1547719256689786 -0.6715482344684757
Ni 8.768250568616505 2.013305385348228 10.13824564298564 -0.16267395412487468 1.0859529855775814 0.5716639619763123
Ni 2.2116280793548175 5.06554970807396 7.058721226881803 -0.07268122971481031 -0.009709256867963924 -0.004453407785663299
Ni 0.818559920811133 0.10238500505366806 8.95589365372624 0.11598477759845185 -0.4495224207478452 0.8568617803697371
Ni 1.6612042694988935 1.0277960969456812 11.570646944671122 -0.7359484551214164 1.18371969750611 -1.3268926054835792
Ni 4.11778521140968 6.542680393940184 1.6377392896397884 0.5197557031427952 1.714662527613976 0.07667826668934537
Ni 5.551626774885174 7.825326073955026 8.031678114567756 0.32443259552433157 0.4975627119855237 0.33302650784092963
Ni 5.141463694711187 2.7444075535512735 5.119377573631612 -0.3175698069662273 -0.35819529379707343 -1.141283125608454
Ni 0.9843083177563294 7.413691127500335 7.115815190805896 0.40938467218669494 1.0082802161854505 -0.24962609193640234
Ni 4.7023599309197 4.4278975039138135 7.0696383209515545 1.166290703396385 0.9830525519669134 0.057997659560706565
Ni 8.328171580540872 7.238674487913952 9.09947285493062 -0.5828215212550286 0.07661681732379062 0.8671641907370098
Ni 4.857528950352802 0.26559872184553157 10.26797485338424 -1.1583866180579598 -0.5881064238030517 0.8125809561744909
Ni 8.003223237121434 7.21073611814405 4.871323859046235 -0.4437135273755519 -0.0501316265490685 -0.15295621261647852
Ni 7.172052221539568 6.159805534013335 7.078915593447223 -0.19005260324814366 0.28702561563078305 -0.6295865453247094
Ni 2.2335615958936326 5.312462049052706 2.852180672774852 -0.1653273325873217 0.14086508577989934 -0.5772455698291478
Ni 2.4246784660229164 5.122031447864117 11.335413817480479 0.10324984653028671 -0.3229876355476889 0.516000349865421
Ni 0.8223154372905457 3.422721192447644 3.661931970537976 0.2827131042983583 0.04113610791867754 0.4243693185209853
Ni 3.7394433384332157 2.642117361969676 2.7202445659406456 -0.5707255093224429 0.0108107174622588 -0.09458342910454033
Ni 0.9283503095261771 3.216416107078225 8.334419336857549 0.69847359810441 0.17863639099140202 -1.470041859311965
Ni 3.413736487237219 2.5278264937803847 7.061443728008379 -0.4127795568008569 0.16883765973342535 -0.22369754499609862
Ni 3.8849504135696806 6.783344075616805 6.186762358600954 0.7370815402845952 0.8584093273625153 -0.6991297436311702
Ni 0.7416869636278294 7.016648425889912 11.414234514275732 0.2196218322648282 0.16415208133229794 -0.5495370481702858
P 0.23964421110550796 5.6580345801109475 7.930271042754579 -0.9440784846965612 -1.8906373126128146 0.2341853319012999
P 8.48381015240708 1.5976250640852254 7.918178261631161 0.035759931208428734 -0.25165340677907627 0.014167035529001407
P 1.672843751927273 3.0831083653480755 10.352465395809267 1.4573264686278256 0.36161537522221593 0.3306664922491854
P 3.977136197984982 6.285781033903421 3.908359408330992 -1.0257210373697174 0.07170035385877974 0.5905996225385506
P 7.053725008396448 3.7666773795534576 10.206560104090109 0.6315102447099834 0.9892885055742963 1.2404078942267733
P 6.573038764711488 7.863757134633988 10.338060068952794 0.10806603697200744 -0.24823846756025636 -0.5449795107065905
P 2.41670510451457 8.574912354284443 5.790966679894611 0.8925700324046241 -0.156204287240131 0.9602121570336302
P 6.796572812434164 3.978562914993271 1.6034836336736913 0.2511854660037222 0.7067908597208538 0.062242550879989575
Ni 5.518351761115913 2.7949747386551715 0.18159940350437168 -0.8946006896814077 0.9936089873265209 0.5616356312060328
Ni 1.3405180173953555 1.0856774641806781 6.869467215732329 0.27599249774507306 0.6855964850314257 0.442263939413219
Ni 6.884586804078394 0.7916888798411013 9.201686292749113 0.3561795489186253 -0.8017183024283742 -0.5739185623384437
Ni 2.982389368446491 1.579836250754033 9.325600276860765 -1.309536630703635 0.09704885992589737 0.07603446245775938
Ni 6.181838378951462 2.13014267250168 2.5433993808214885 0.5559470654616877 -0.6912881360995643 -0.11929764402176876
Ni 4.156857391756923 6.76370414211663 10.356575785569854 -0.4844153759702884 0.8002682002454089 0.646999341484518
Ni 8.185861073891333 7.445476215279928 -0.0894235519290012 -0.7761448248346439 -0.8998213146503986 1.3635426526064454
Ni 7.574061343115552 4.028705696936475 8.037757012605603 0.6212057774601818 -0.48544973077207365 -0.0025711031612858947
Ni 2.896659929986419 8.389836456804177 12.520593957163905 1.5731880903848519 -0.22646559465953897 0.19862440407755472
Ni 9.166476181164182 4.809435945377202 10.106196883455148 -0.8343859678647243 -0.32978280409265137 0.30723911446418056
Ni 8.6986394204083 2.4975223021359776 5.710269579337825 -0.7434437350571971 -0.5139570941831472 0.4998502224681198
Ni 3.6662112185773927 2.5232212679941366 11.431838215590027 0.10937627114299872 1.1328463076950104 -0.23729559539550746
Ni 1.3116766621771683 3.3331811553958137 12.529845043081574 -0.7864883728524972 -0.7097851664624872 1.011008156639575
Ni 3.2034131166229374 8.494050007390621 8.087026607620317 -0.6533322256810812 -0.3009239708794301 -0.09027760264033485
Ni 5.694235266732648 7.756753359012348 3.4835670609093565 -0.7772912797342613 0.5175782358755022 0.173251729640721
Ni 2.891747689147755 8.406984150467089 3.6435742763743644 1.5701048234738377 -1.0275112965009205 -0.8507736651941284
Ni 3.4215834307828064 4.20579920305391 9.2653350280423 -0.7972566671125947 0.10178534616961826 -0.22767272759376272
Ni 7.04826194643433 6.012582786525131 11.401189986489822 1.5546594354530452 -0.3574897830896166 -1.1922842992466693
Ni 0.6498984928097727 0.4831640357550503 0.46607232718993297 -0.3250781995281305 -0.7237197742657084 -0.05053477552475813
Ni 4.721737998639872 0.309081986107642 1.4687320182117356 -0.5485852257799778 -0.539533914210987 0.04198251507937286
Ni 6.243530344778217 5.662386969971676 0.32928809148389043 -1.2631037931623923 0.13347804928720883 0.2532179230527188
Ni 8.425314755067252 8.917739809579903 11.394753506214457 -0.8778784918307203 0.6557287509377159 -1.3284468373445768
Ni -0.1141427785757725 4.906786806556688 5.670502100195403 -0.039850556338034596 0.36653363845943976 0.28134861985066384
Ni 7.669434666163297 8.968108337885177 2.3815681347509474 0.5835334597203885 0.23941418440040707 1.1452359396086147
P 8.550179582855948 1.4977187540870966 3.7172940083722605 0.1366289362113647 1.2100354525825032 -1.101347979976413
P 1.8136101534602473 3.3162321185315258 1.670026437328627 0.09400235979008972 -0.12757582487016092 0.19254065977732004
P 4.6977727648424175 1.1394321879170175 8.140896010508587 1.4535446329878903 -0.8434635046859603 -0.10768525659382099
P 8.482699480305692 1.813962317785078 12.493897192385392 1.4138758536433584 0.3715336627771924 -1.1366209442460942
P 6.254700274773488 7.841056080464131 1.1850735874005265 0.8003239931840088 -1.7958247982166038 -0.009085764351352093
P 1.7058478700620487 3.298389126073436 5.865439501756376 -0.49465145187599974 -0.5567165966378607 -0.03986315474352489
P 6.645313719992131 3.856912715400466 6.03818693891122 1.2130948082341173 0.8733762330849927 0.5460814855215177
P 2.2496708562910173 8.29530291022334 10.402250595514952 0.6038194636629343 0.3960851268643114 -0.7399318652491965
