# total energy = -340887.4597845394 ev
CRYSTAL
PRIMVEC
9.10195193039529 0.00000000000000 0.00000000000000

0.00000000000000 9.10195193039529 0.00000000000000

0.00000000000000 0.00000000000000 13.32162668953831

PRIMCOORD
 96 1
Ni 6.629788804424554 2.0619470367131076 11.225921258417442 1.3082148265684181 1.0253927074960212 -1.0645128134259345
Ni 5.073082004760731 0.9296460410294328 5.753583962620673 -1.0279661246501524 -2.0416004060586643 1.1524715381251054
Ni 2.93333148489539 1.8033332829924258 4.612107289425794 0.1498264087382452 -0.32641748716484426 0.6976850407648436
Ni 3.810705017297861 4.337653409157403 4.87450290407883 1.7995901787963071 1.8330453731309593 -1.2441226240741994
Ni 3.8994854542032042 2.778407164968606 2.388393995691198 0.32754851544549396 0.20209385068339386 0.5849686495050184
Ni 5.651237976898052 4.704380145199355 2.9688309169251443 -1.44545028601553 -1.019260112235722 -0.6033196412083803
Ni 5.642427287650115 2.950352134578904 0.6005121859087899 -1.5597476486092299 0.05957477423983933 -0.5818355031926753
Ni 5.91179954828305 8.278762088495744 12.549264938773419 -0.0031670848740719647 -0.07089868389309079 -0.9214710317096905
Ni 1.9702539752629915 6.947920220327319 13.116513131990567 -1.0393388852634682 -0.366144373440821 0.5183161424827912
Ni 0.8448704628731513 0.07814480634107321 -0.1171594121182995 -0.024154228648700336 0.5478450051798436 0.7536474150630763
Ni 8.277942912842528 8.833735389647018 7.0959370691071415 -0.222480641869862 1.161947853046657 -0.2848378639508449
Ni 9.007282302756941 2.864056530488319 1.2517377161179184 -0.17651240266986376 -0.2671221918386367 0.21212372411557018
Ni 7.376476514283768 0.8493458925252281 4.844662155422466 -0.38345612524639117 0.4092836278324565 0.21652673827927224
Ni 0.9000683387772691 7.909559621590736 2.144569093096598 -0.4038303180273691 0.5420456248892471 0.6525174430892698
Ni 8.057548254320281 3.957601415823116 3.5769368611392576 0.13135843184104473 0.6052204577755189 0.030785617922288913
Ni 7.688891904517416 3.950247038847566 12.504104695206724 0.47188356205186477 -0.5118816997113571 0.6818704423300901
Ni 8.24472989108042 7.096600601386247 9.056561179468979 0.5312696173196657 0.10700622824892539 0.3806711063020863
Ni 7.2339581545273735 1.235608147506071 0.4000844788361284 0.6162998555181322 -1.2073771890240497 -1.0486488498104845
Ni 2.2607245599421213 6.635331893011323 9.020858773916261 0.27122670092531354 0.551331163956231 -0.18232129604215697
Ni 0.028229703205036236 5.387581741934232 1.2776109240271998 -0.20933536273715564 -1.1115462606656534 -0.6033360962686126
Ni 6.892107052488118 2.284389634368397 6.8831243363530055 -1.60173299190208 0.3267021082847986 0.35355650947348144
Ni 4.04641826053527 4.8433487437918075 1.1527685544768926 -0.6263392420320051 -0.9675187179973725 -0.43151852797125684
Ni 6.470841421845303 5.978562364020255 4.505467002889975 -0.21298195835080738 0.8786020002603063 2.9606088351604756
Ni 5.373073230920585 3.1404190900287072 9.096952000343611 0.5882725170672708 -0.7755323880616257 0.06405106484363808
P 0.028119569589437027 6.06293745630163 12.212814024679206 -0.5215462193843147 0.07304941168750645 0.5963074715566052
P 3.8422978916569392 5.982521713010804 12.667960760339087 1.0332893366352784 0.17132494493165332 -0.7031182959652729
P 2.5937467688300355 8.967743424561656 1.2489780043617464 -0.18379762347736733 -0.5653547319288328 -1.456595246888756
P 6.501096309304126 8.230712885458702 5.788686549556202 0.03268103517278888 -0.8806984777780188 -0.7211245027347065
P 5.188831524560326 1.3512393419335351 12.401248089993596 -2.1140222114645013 -1.0054643440032105 1.4294040311859448
P 4.3414944327758205 6.393939031911609 8.047580707010967 -1.4501356073063412 0.6528732837667918 2.140811049522571
P 4.855108465391327 1.2108781447306127 3.6093343480288294 0.02392951423240395 0.33677286225723935 -1.0548701481298477
P 0.5765403757101427 6.033046646910904 3.3342433311412676 -2.039561007031133 -0.1835417987128194 1.0637893049963485
Ni 0.8991135440436858 9.316757762590711 4.4689126546579105 0.14475387931134426 -0.5173432370465606 0.7614291158910241
Ni 2.2422020882277094 6.9054050039253445 4.529299553227575 -0.48764262465833436 -1.4374089037682922 0.990649390477565
Ni 5.969760776724021 5.818204178927129 9.463310107341616 -1.0079287463833029 0.594127433186151 -0.6898632307275797
Ni 8.810416189385434 2.3890256711393456 10.143458909475504 0.48560451118238307 1.2277300416487889 -0.7322478663413776
Ni 2.6628669900581654 5.6073028560305005 6.849434372321691 -1.0305801652342317 -1.1894265180829 -0.6718642230469977
Ni 0.8004274531006053 0.18920955159943648 8.96308322529002 -0.041519459400025265 -0.49313964321716364 0.4672257515648792
Ni 1.5047346554430405 1.162464863625474 11.174539830862146 0.7677537725574713 0.1440188009175326 0.05453515493340285
Ni 4.018884856635468 7.350963743661902 1.3090882035996572 1.1975877137374535 0.04346964114786062 -0.3391290211942417
Ni 6.180771323041078 7.646504115439277 7.834035267144787 -1.9731208731300278 1.4460048729674193 1.444844019890099
Ni 5.797497238804139 2.8403823541103406 4.745257010294894 0.10903739974634123 1.8182234776267783 -0.2810033206961031
Ni 1.258399434568915 7.777235447741045 6.87423901110111 -0.5582862551178257 -0.5990189569504973 -0.16137400436652855
Ni 5.410409436803887 4.95504789508383 7.011558336045085 -1.1960738481960884 -1.176216190040213 -0.03932065197649357
Ni 0.9532838096006012 7.369231360728646 10.760397387621639 -0.48143880984046766 0.74209801966258 0.8694414168069607
Ni 4.903057546959642 0.27644720769122105 10.194094887186372 0.4829048528630328 0.9010685567939385 -0.4814922887862223
Ni 8.375297388251544 7.6292013052529875 4.795132975038611 0.6527861233696242 -0.3740106635627752 -1.1619450248331795
Ni 7.771082528390213 6.55929418848936 6.748322611249917 0.6318200626409184 -2.5490929755633904 -0.3951919256260807
Ni 2.2523689682793058 5.990795387108299 2.1100253659955976 1.140941683108635 -1.057197510711444 0.44975587691488994
Ni 2.4381215986221654 5.299993660701905 11.096675364633507 1.5193733585572413 0.7710923500124011 0.47265540722088273
Ni 1.6298773893995273 3.643584082089842 3.5265675706132704 -1.1361069807241533 0.6262736789013923 -0.6313318101505901
Ni 1.6728932131451344 1.3503928604252107 2.4612369151656157 -0.5570464691734536 1.0097645140404607 -0.5139396106816504
Ni 1.5244949925889808 3.38081983839286 7.951345771661348 -0.9947101908104996 0.46192902194231417 -0.6014702467044674
Ni 3.9303319685226845 2.9928036373189615 6.974870189122996 0.022474269843116134 -0.22159515394111515 -0.6302853711639468
Ni 4.514595350252326 6.911020908125733 5.990495932897289 0.13264141231852639 1.979428303405294 -2.083841831226379
Ni 8.325782770990415 7.498642910033564 0.5309350467051986 -0.6356507492409181 0.6028162192094005 -1.9309648085872682
P 0.5412766842294812 5.8537108925182455 7.7834265952890265 0.35328011588364316 -0.4629140115634028 -0.4840428231222179
P 8.681204883017969 1.7724594628178385 7.743062170074332 2.6074197363287412 0.10241603777508168 0.9844049522297497
P 1.913548816156954 3.175516215793215 10.274450557595962 -0.4458208035265419 0.8478109830213786 -0.3619316209110541
P 4.126733882357368 6.437828643020648 3.535360055957802 0.5599371604576873 -1.0246491444617771 -0.5542156845928778
P 7.0059724682853135 4.154349203822492 10.237016960829445 0.39876241658615835 -1.6934905215220513 1.925981496440064
P 6.640829471839581 7.923785972101609 10.253588884294029 -0.3760042969540363 0.19565503703658563 0.6069456679967419
P 2.7634617602732425 8.698635120528092 5.662450671200255 0.39135815370228727 1.1301790452754923 0.4641013470032846
P 7.057161844659689 4.229913606855931 1.4656454136618546 2.189038774180707 -0.1181920696624158 0.3782146743417938
Ni 2.931611216023634 1.8339431465676435 13.485748365921705 -0.14190458278800722 -0.4189160087158979 -0.6895721818497221
Ni 1.7464915946108521 1.1911178075846727 6.898244498521056 -0.20231727954810963 0.15508431470307485 -0.6707787032923028
Ni 7.221943578280187 0.9204803756651021 9.119798809311838 -1.4640036235376852 -1.152442484659383 -0.2395669079281874
Ni 3.12066785483447 1.8049716342988604 8.926448779882975 -0.6703657841246004 -1.268821669482776 0.732658471516235
Ni 6.662209956388551 2.107065411301973 2.5528362265131963 0.13790343204841413 0.20850489641606026 0.9689706199525506
Ni 4.367526014644724 7.079397912668685 10.635946401994536 -0.3435166087389761 -0.8063730275915661 0.5804620198839164
Ni 6.887701707864149 5.965036863790468 11.636107993448078 0.8058657489378444 1.7291668918777379 -0.1944129370993684
Ni 7.3940614849728306 4.532953986836094 8.189763204749543 2.3940881079479994 -0.5837229500233754 -0.42897724960664185
Ni 3.468125759122412 8.685109620298304 12.252965464224063 -0.2696716977333678 0.7654978866437591 0.8003062525721958
Ni 0.5927418497404392 4.850830548091191 9.717726951132313 -1.2064729320422254 0.4718506519314003 0.27378546279142524
Ni 9.047194360972025 2.6719689417605794 5.659026516969806 0.6970921443758511 0.4027990485493772 0.19479577436008388
Ni 3.7074069674271675 2.484532450352773 11.199464615404036 0.7443400216192213 0.25688354482976405 0.1341233961806916
Ni 1.0657111170288158 4.170778226645348 12.472358908059045 -0.17079349790821555 -1.5952556117078527 1.068948737710101
Ni 3.4437871402701576 8.48459362429413 7.924076324360915 0.7996855882690614 0.7120708771728705 -0.06098296744127562
Ni 5.55194478577642 8.206401572461555 3.4120149574625422 1.0673127447685749 -0.1648475647374258 0.5785750872738488
Ni 3.209921593228339 8.713935501339849 3.462890316503184 0.2134848661291549 0.3951659574841517 -0.9473604978819425
Ni 3.548905580481334 4.564219190933885 9.117414097965806 0.15238208528056335 -0.4007478224473034 -0.3158826490717915
Ni 5.243388623064594 4.213612011356908 12.003504633135329 -0.7058794036501779 0.7715988573351743 -0.712759932820095
Ni 7.912508653942318 9.109415302809726 2.649738334922604 0.3034325962338968 -0.29869893820365334 -0.823548253819272
Ni 4.744601669772321 0.620453651893608 1.207311089858437 0.6301637579844179 0.1261858865011698 0.5290307006868179
Ni 6.079184440090439 5.950737697665976 0.6743554098753023 0.06607940812757652 0.849233574400518 -0.968123698571223
Ni 8.183874241998081 9.057952867884278 11.516998943275123 -0.044009829922046786 -0.060637154066082666 -0.6068415383187097
Ni 0.29890627351692695 5.275354677443471 5.4235271695974046 0.29520352345588513 -0.4074195780405241 0.1942365594225042
Ni 7.491152003782478 6.657558859068618 2.579506765391609 0.5288612649884892 -0.3455999736305661 0.2672052384707463
P 8.856144394738362 1.8030602244413534 3.5905242546406213 -0.0886215550941506 1.2403618714801863 -1.2624216794937033
P 2.0686551751177866 3.3833956907246425 1.288996555411749 -0.08653304799623807 1.6694213963879894 0.1774742523625008
P 4.940584893828693 1.1605443518162648 7.94977386460234 1.2111040030563336 0.5993107771593034 0.679114733961824
P 8.896702691524316 2.042132087856953 12.34179414147343 -0.5632680246031331 -0.8546213210749928 0.6878238317000477
P 6.318766012801373 8.195242579674396 1.3096707285086115 1.1565027707716857 -0.8105960645339781 0.6293788001892774
P 2.1192984343900165 3.5853497950977986 5.65854684411509 -1.7659881744711459 -0.527093374454789 2.0586151954491063
P 7.066127267086566 4.334130953848568 5.993573302767875 2.296039088892362 -0.29070949224027354 -2.4454487218081624
P 2.7591929449248105 8.70127468652179 10.194281477196272 -0.6815750225768584 -0.2807973753328841 -0.9020363200238464
