# total energy = -381166.10177356424 ev
CRYSTAL
PRIMVEC
9.25431441801342 0.00000000000000 0.00000000000000

0.00000000000000 9.25431441801342 0.00000000000000

0.00000000000000 0.00000000000000 13.54462459120095

PRIMCOORD
 96 1
Ni 8.334953899182304 8.294336712749846 5.127033686482334 -0.580933045983064 -0.382504045745767 0.07235289984111411
Ni 6.073726926189394 2.9832671005466054 11.330552373828077 0.030494054823799095 -0.09669404768963992 0.9235032316483709
Ni 2.60885604365794 8.46610604457323 11.503273974615668 1.422598578228337 -1.070940571329149 -0.11229653011358724
Ni 2.2953013590590534 8.26315892712876 6.219231587970866 -0.4837286343159088 -0.5231832407671054 -1.297071665467405
Ni 1.1662657331884212 8.161268924253081 3.8410115708040853 0.04806728782087206 0.013053747860164614 -0.4540113097571342
Ni 4.84734516587287 1.938380956614987 5.862641564555197 -1.016110510863147 0.8841206160856903 0.062166446226415505
Ni 2.201286777840705 1.1801657135988906 6.743787419941809 0.6887728258768783 0.7400383089200738 0.8709820218212032
Ni 8.601552191901881 3.9919411117577392 3.9912350075597907 -0.4890071091060288 0.4274412725780896 -0.6511110496600464
Ni 8.432596171692865 3.969397601584701 8.413080673231082 0.35764790593403567 -0.9042032457681781 0.2228701639987968
Ni 7.843799664611832 8.608076483639152 10.774776186389252 -1.470051886614294 0.6240540455422543 0.7262541106517879
Ni 6.898684285530595 8.307912792152083 0.7071055147797841 1.5309950019565697 0.575598264033712 0.0024980838315053753
Ni 7.395742772765432 9.322241189535518 3.074047298839881 1.7084394295223995 -1.9898003906682378 -1.1445078031933387
Ni 4.233256617206076 3.4678600261217216 13.21916085065503 0.25451838703169716 0.9680673914119908 -0.6523125261673153
Ni 4.290457535260079 1.324866175448492 0.30601056740140675 -1.9962440894110522 -1.2827501066384102 -1.6797068374743975
Ni 0.7473867695951307 5.381661523369061 11.08681686513251 -0.46008682652725275 2.0123530791577733 1.119993362991742
Ni 5.455427664415567 3.2512720490733673 8.993983250025742 -0.6373145100965864 0.776086975013515 0.6164271251246157
Ni 1.6657673594567908 3.8371534470803006 4.309141070846429 0.39629878553701425 0.5927812035709017 -0.26170642013970413
Ni 0.16846739240230954 1.6500165161421312 8.509884504846045 1.3916216702308486 0.43405157880575573 0.0853804224490336
Ni 1.6353761905699855 6.327054531885928 9.006891167919568 0.2483315414946949 -2.1738615522196367 0.22193968176472745
Ni 2.9920309363979465 6.076373660142387 6.983066976195537 -0.08838809892710583 0.6988523216000674 0.7066923864697765
Ni 6.437773150814594 0.40907494278979406 6.858767650707374 0.4679875694315683 -0.42142771939415813 0.6660064787146401
Ni 7.618373817195969 1.2745041958254726 5.1946484846667635 -0.6669552157811546 1.4563826166573175 -0.35011457367146803
Ni 0.282627690901318 1.6681827355467593 4.0940254552383575 0.7828168375381809 -1.1029464348117843 -2.087367070770818
Ni 4.886204032546347 4.665220256100541 6.51140232800619 -0.3043162843904307 0.4928136273363126 -0.24411261831734088
P 0.4314435464183865 7.579626002296744 10.370658779888332 0.7890944430167764 0.5053109884723749 0.49291107214612534
Ni 6.254315619751246 5.740636383636779 4.195081644375699 -0.7750783312433426 1.1911658693715097 -0.1202828907531735
P 5.816503254079541 1.0761009468107883 1.515954814265816 2.8211329164186187 -1.345536960057644 0.8152711014121443
Ni 2.913656146720006 3.6672072152175432 7.9029365852636175 0.16784649946474964 -1.3782830441404132 -0.012760642099778025
P 8.202339572097065 2.456381957610739 11.050599179823314 -0.5094545783271033 -1.7248489812286747 -0.9633432464634443
P 2.797755111659607 3.025753658512295 5.833290580620547 1.6058907228241956 0.432280602948262 0.6377690811355017
P 8.151838777756232 4.265517157626114 1.5067856394384567 -0.8221439172725776 -0.31460661057284534 1.2795745371239058
Ni 8.403389555064742 6.366255808196678 3.2790451723821956 0.42656581195167187 0.7405633281856084 1.2518364477786892
Ni 6.640831320033317 6.342361168103581 1.611918354122277 -0.5921325142433093 0.05039079374772612 1.0365286695081826
Ni 0.7760760700415332 7.474062036556247 12.62705777699566 1.0699676658929185 -1.2245351888605749 -0.2929874896411728
Ni 5.412635714070686 0.4995247620546721 4.0775277887418575 -1.7861011431709366 1.755515557074596 -0.4155422071476585
Ni 2.1059118123877765 2.52892652914048 0.3846935257528946 0.6734508508078272 1.1599578191998217 2.1769476473441283
Ni 7.902971751658797 6.4232531313312204 11.949717839441066 -0.006855332358936581 1.1434721628399724 0.9675104904672562
Ni 2.4724659562481532 1.4533900955154695 9.161692714068787 -0.19707685708477674 0.5258219639415331 1.1646441689318976
Ni 1.940722298188788 7.258038572693671 1.2620460376173672 0.6466550707712219 1.3553806856209432 1.9807917594117241
Ni 0.26235796580607745 7.263822519269267 6.784515658148517 0.5347655462880662 -0.5402455955660308 0.6679589744553206
Ni 2.988616094339715 5.8518177182914926 11.253930351320406 -1.8887290398465082 0.4882887428827656 -0.46198892864597213
Ni 8.982691135447277 4.5363909436543715 13.093073591601417 0.35672539411976634 -0.6015648633008027 -0.641388937276276
Ni 2.9017088266734574 1.6047629181346772 11.831771600871535 0.281041115912574 -0.5826708546097772 1.9004635546746174
Ni 2.6594123638858993 1.2973901156357863 4.2685618271035075 0.7294325083797695 -0.9316873101210599 3.218858664210147
Ni 8.45958175283596 6.412916062011318 8.976144633355156 1.0225824917407358 -2.3915095485875457 -0.14801018146511286
Ni 0.3210793677358724 2.2899153480078596 12.608094761110777 -0.10779555691944015 -1.0691215158425396 -0.4751138960637043
Ni 1.933004199878314 0.26950137118480005 0.34993802213800834 -0.758959571304609 -0.842343532148904 -0.8946605963850658
Ni 3.96462237529189 5.325978312896495 9.018105546256056 1.1098495896895209 0.5451108940781321 0.9032051435209671
Ni 4.941748428301099 1.025933307792709 10.676916437487447 0.07321139118666746 -0.836110920975631 -0.09534164742680354
Ni 3.4756799218919263 4.317295047370839 1.9377211239896432 -1.4707028899347316 -0.17626531965606415 0.06663168108662074
Ni 7.796001130111116 5.410886648626226 6.24622549799703 -0.11265365634268985 -0.9103080731143356 -0.22250892400463615
Ni 7.31247245070591 1.5786009709839466 9.136052710257038 -1.514149648264457 -0.18153042470974542 0.8751582646860798
Ni 3.25674134895525 5.9051780958193 4.737936957880372 -1.145170633588318 -3.743521574846572 0.6897287620322444
Ni 7.941099527485119 4.476348951042437 10.843297907396733 -1.294214655634584 0.039231691807113084 -1.179923206578155
Ni 6.602148285335738 7.103167619185544 7.52149224933903 0.34853180256538036 0.05692730931466325 -0.5465651100261554
Ni 4.032123345407712 7.704624028531239 9.89035245279932 1.2363257537375998 -0.24562519830712537 -1.010185917848596
P 0.11608612135081853 8.617830531144236 1.4932271432338104 -0.28777817752609147 -0.16975785755484957 0.1475923772014039
Ni 4.5386119791394 8.081931685864962 6.625394197980917 0.19990892721693315 -0.08434092544092572 -0.48247136487004005
P 0.40350477087963327 5.736508959360434 5.091884874500307 0.36222858332618263 0.3021884394141505 -0.4890197075115191
Ni 0.8960804681605227 4.888341779200687 2.2690228075453587 0.5874261099065754 -0.5671416486259264 -0.1610101932692066
P 6.6212306818779405 5.07700948933933 8.396096229790778 -0.6663713182532266 -1.9904920174186236 -2.719746862569948
P 3.675082636874873 6.379036016550113 2.6427055498812253 -0.2462175804754856 0.3780778916536134 -1.2051539561204858
P 5.5339320144968 8.65230285273478 8.543272220774735 0.33867393593469414 -1.101654198362922 1.6619909082518733
Ni 9.311413641546004 2.806407895736697 5.989676465415755 -0.26382783735808113 0.34072799025024547 2.1453629305593114
Ni 6.373612988240835 6.242210976357842 9.945086170602035 -1.4332840829666411 1.600741060302456 1.6725949090199643
Ni 3.163522638785703 0.13786429971297426 2.394242937328357 -1.442264946309013 -1.7094712132210237 -0.3985934951084619
Ni 4.550651842331158 1.1471925909607397 8.31488221641781 -0.47269577354051495 1.1845769033000826 -1.14757795747823
Ni 6.400607823698452 0.6843676640018057 12.788266085087734 -0.8974553855213834 0.5923641706381411 -1.4502075981948572
Ni 6.604813527917773 3.1850296657323947 7.000526165970765 1.3431993130634028 -1.2920785831281876 0.09436000023982459
Ni 8.446209268353185 8.571086988498907 8.664550938003261 0.660068001743018 2.282155903152366 -2.4110049383079963
Ni 2.0539858536107163 8.375210167348444 8.558279942633362 -0.01613675766086253 2.177031465307186 0.17633602499299955
Ni 4.424506281096066 3.9174808971221617 4.01262172841771 -0.8748818710962417 -0.022809798805663944 1.2408925471726757
Ni 5.848791557443142 7.607379691545078 11.72982144495147 -0.6075071969271666 1.1278591388930639 1.3221676892040841
Ni 8.60377322738691 -0.15391220652375665 12.87185012840952 0.3407508730683809 1.789458232568628 1.0410648668156395
Ni 2.1109646681162157 5.365929188683443 0.18023332788424756 -0.3377683934012893 -0.5491320994223833 -0.4529689845355489
Ni 4.759891893649876 8.130859246737234 1.4088981275930899 -0.7091873849774883 -0.8746036777341905 -0.2670291179041982
Ni 4.1403062821576375 2.0712451501922913 2.5960036516512424 2.086715553229748 1.7446706439402921 -0.12571151796791252
Ni 8.860358351794817 6.319197618857639 0.9581343487493125 -0.0009723912155983254 2.1972627047523963 -0.7334807103072142
Ni 5.850207467564847 4.301886613693455 1.8730186585849569 -0.1989679034599025 -2.0095832297221197 2.1007512053872075
Ni 4.967049724201381 5.287360058400562 11.649826224800913 2.1172959971197667 -0.6297798922824379 -1.0269605662037733
Ni 7.098762565473571 2.283659431391696 2.7464436393667375 -0.20541237353366557 1.39966279536777 0.6453484361446563
Ni 3.722973714520798 7.837275372874561 4.309439059774003 1.288032180972956 4.106339712127637 -1.170013403663611
Ni -0.13732292231349855 1.640216197064443 1.5977370425503703 1.3919219750800869 -0.6901321681182502 0.0010868053062755476
Ni 0.9878610578535135 4.76906291934014 7.136025988323635 -0.30777698924552155 0.4900862011028205 -0.5749552311330743
Ni 6.49832413072518 3.52793903599174 4.725651855353807 0.2522979823416106 -0.9085283555060933 0.45311836562921964
Ni 6.3641458244859015 4.775550193819328 13.331879326951674 2.5799732100820147 -0.4107442715383829 -1.6982617176584494
Ni 7.381333805056312 2.5851002182826566 0.2699141136124345 -0.40969217612478476 0.18167646336930646 -0.44612625058210265
Ni 1.2102699987355467 3.71628284512215 9.789120431686081 0.5050999009028334 -1.6356964933317182 -0.8785292380408418
P 2.055586850022841 3.9508427009701927 12.24129352705269 0.038567575860552934 -1.464970872546961 -1.9618954367278536
Ni 1.1809523303331715 0.5634646719428319 11.077539414825257 -5.278418225850394 1.3256533337598397 -2.0996608005365065
P 6.151564965625119 7.969593561895129 4.6596084397750355 0.4741731294169899 -1.6740992614796333 1.1963607833088878
Ni 3.570379322384825 3.1616625215669916 10.585517125552721 0.6350794501184804 2.507705156645223 -1.4280873692570502
P 3.8673687839912083 7.40135088736513 12.601715762111487 1.5824183507338683 -1.0162354664767854 1.5238290803357497
P 9.443472709759986 0.5139476112355754 6.706336134506969 -1.5171241575117487 -1.0691623963828036 -0.7230582294223096
P 1.9809970749839698 2.3140228373349387 2.6456854391569715 -1.7611673560437344 0.9511970980192136 -2.026909893926025
Ni 4.495949589197813 5.811737282101251 0.40837624204346223 -0.8962274266515533 1.4944922790448456 0.6476431457161039
