# total energy = -340864.5190903622 ev
CRYSTAL
PRIMVEC
9.30948924578386 0.00000000000000 0.00000000000000
0.00000000000000 9.30948924578386 0.00000000000000
0.00000000000000 0.00000000000000 13.62537852879932
PRIMCOORD
 96 1
Ni 8.504935198954541 7.381512591846613 3.8470170028018424 0.4219771641397249 0.011380988143432013 -2.768930523383451
Ni 2.4476788243516694 3.6609193830931352 10.90184286215117 -0.23265861084412834 -0.13907019866300563 1.3128631239737067
Ni 1.1450764789466104 5.884574659755183 3.874907301443936 -1.4818478508079576 -0.22741561727763412 0.7674077020719623
Ni 6.159967968754286 7.405540383426855 1.5196661189817837 0.5065073227733212 -0.5698945287807153 -0.29480345980398903
Ni 8.187435070382627 8.740372180382007 11.20004721249435 0.059475015437181436 -1.049349732532251 0.3727618787573387
Ni 5.9861318772479555 6.722754518308837 7.963406867948412 -0.5787681771212613 1.2829771350475516 -0.3810855681316856
Ni 5.851218760013996 4.910215593438736 9.106249069491204 0.9734358548127557 -2.0502871351993854 0.6581607574179762
Ni 0.4699579091193666 4.898494946557868 1.7512834169976372 1.1044127349446655 -2.4734868588923016 0.3678464437335923
Ni 3.8323070789444467 3.1063996599327153 4.741195300686556 0.244936656880533 -0.3014248217752486 -0.09589417749616388
Ni 6.380519076978805 5.60571822078016 12.891679146605684 -0.7964452269548928 0.42275955083170413 -0.4226726475448527
Ni 1.1965020971911864 8.099283517312768 0.157149763095472 2.478259597690596 -2.9860583855818317 -0.602843215792594
Ni 7.992447819453473 6.004843950504943 11.064597868683473 1.2801975154198855 -1.1825267056392732 1.8108474968776813
Ni 6.721916664282404 8.43819547100462 6.657850621625721 -0.07552461270087639 0.4299378137476983 -0.6881027963930472
Ni 3.545407241315674 4.6932951859954235 1.981415851488869 -1.7828427841346393 -1.0496263832324053 -0.22038442146246562
Ni 7.775788077707272 3.8193855079590247 13.473292276134167 -0.28752440964407255 -1.7370465517361309 1.6161098294490426
Ni 8.714947965424379 2.7652441193478623 6.316997639439301 -0.1763167417192899 -0.6772992780196401 -0.48970644916589856
Ni 0.018701832818886398 5.349818982129381 13.054910798984135 1.1185422323675125 0.507294851671623 -0.9162684044628285
Ni 0.23045081902127604 7.488608955403022 6.828181690454809 0.696240080788201 0.14768750801837144 1.0451228389350968
Ni 3.85428678290452 2.6112837872463426 13.43936477375717 -0.9916680615500663 0.1546783375139078 0.9196774301443773
Ni 4.167029762504136 5.001979228311435 7.41062522641838 1.8940070004159961 1.3773834151442794 -0.9895836682172119
Ni 8.938850489754628 7.196160662221431 9.375378023219346 0.37950176858433354 0.9620525526764787 -1.525347059642173
Ni 2.5345084299575995 1.317739574815935 9.79324096182191 -0.9339971892011592 -0.5574457614944013 0.6348416230760615
Ni 2.571355388142254 6.743086442683593 6.950890998319323 -0.3458622261530172 1.245620034555332 -0.7230538585469354
Ni 3.118222711194593 0.06437325579970912 3.7290480868290974 0.1794087503810523 1.139027753915374 0.3891434054391556
P 7.067438355293888 8.688341445340564 9.16966158600727 0.7077938470640713 0.08306668671419241 0.23066857699729304
P 1.4079019775492292 3.7583245684104774 4.708862513806535 -0.23471909291758283 0.43990572359368757 1.350105810375249
P 1.158472833880344 0.8960858122182249 7.460344415295788 0.3785242351624126 1.4522891633142343 -0.32948018525056805
P 2.310065955254761 5.130329155671675 8.209086149374555 -2.394459118134173 -0.8181201408251652 2.1874894274157164
P 7.8367093749180805 6.869043831323911 5.68982200795343 -0.1796234374950197 -0.815288584913641 1.6244998532849506
P 5.161534563411686 5.075607978256467 5.400732578468915 0.7848510943593903 -1.2905631749249258 0.4525493804996271
P 4.277291352382622 6.585197506147025 2.4560564336670736 -0.7595642947681434 0.7606235892705933 -0.31439655144456824
P 7.692393673609714 9.123811420834143 1.9515361150084578 1.1824768262379444 -0.5710769791245907 2.187564503628026
Ni 4.90791614961064 0.019040698225132335 2.341370974529025 0.5966432576294692 -1.3915563642105517 -0.9962047730781554
Ni 4.442143786827762 7.269091200477769 5.182807677142802 -0.4033268960283893 2.561741517565337 0.6861137909874764
Ni 0.4619508174734289 2.82461073186518 12.477222550095027 0.7916604039717398 -0.9323563111636265 -1.2595870382583856
Ni 3.166315532311805 5.532182565726955 4.825114759974012 -0.9761481115375962 -1.731788388660985 -0.12658132216737553
Ni 3.574778679686716 7.217069774925507 9.199610212707633 1.811551207812925 -0.9207614072371755 -1.3399090723479052
Ni 3.4296716717978306 3.239804639919097 8.928942400417608 0.3333388968750259 0.9108526327638957 -0.1326352416709393
Ni 2.300207206210408 1.1129494317775244 1.141320100061439 1.0350628835959337 -0.7620024718959909 -0.0879641240158098
Ni 3.26928779216033 7.140731963628346 0.36699775160677867 2.9697771319233044 1.111237214065667 -1.0259359815940008
Ni 8.507765283666046 1.3343290845392939 3.9369848372112206 -0.9567504237372749 2.144845367492945 -2.6285873715452923
Ni 0.15721492951975005 4.102096075455636 10.642333403595387 -0.15525400751171972 0.7442585176490085 -0.9542338279630083
Ni 5.912102819268074 6.446383712945563 3.79066201003509 1.2069192755510247 -0.2035462668592043 0.1279974857886118
Ni 0.8726836183110535 2.974083890180695 8.599139781890912 0.23929308544151043 -0.4803162662002502 -0.0749301736499871
Ni 8.637520943892856 1.4498505358059377 10.161861357393214 1.4889016723309454 1.0047207809689664 0.03222826390608643
Ni 5.023418981898919 3.9337060351211153 11.054705605478063 -1.9695095016296857 -0.5886797798080184 0.9800631303212863
Ni 1.9688638672239953 2.77071809898722 3.023566618032867 -0.11930330044872357 -0.5486649299779777 -1.5738663473987993
Ni 5.278163843891057 3.0583254577938686 7.281034344150101 1.1118661058989172 -0.6540405646020155 -1.7357962242687976
Ni 2.7334056663434367 8.277485759245728 11.046108292217951 -0.9048619623980997 0.9601535358815528 1.5030149718038759
Ni 6.41747774903365 1.2235461632665832 10.961139653499616 0.1687975505241093 0.5737717523479344 0.8255323741288363
Ni 5.2566589238792965 7.969602332999419 12.812528938626464 -0.17745291220626214 -0.7138084286892674 -1.2603048902610166
Ni 7.163623997528312 5.0942455755999925 6.640505181380736 -0.3443707292091553 -1.182488653312486 0.2872924961389246
Ni 5.617662295401411 0.6604365744373958 8.092412183347106 1.6197757083364042 0.7036674836005236 -0.5276962981461105
Ni 8.66844706695739 6.729950753446972 1.2540030880763144 -1.0544541436383517 2.216337204885344 -0.6593732896688387
Ni 5.900596290638404 4.810855415393053 1.7175337258640273 0.09409054862852184 -0.5537495435897366 -0.8363783157044048
Ni 8.566061304927366 9.045676878124743 5.380539365482979 1.5026424189558059 0.1683818031429294 1.8842036411723293
P 5.688684388375319 3.5535251158828842 13.240066298387564 -0.4145515610996151 0.6022467198591758 -0.15917982492868712
P 4.402950837369096 6.787660276889789 11.299362704991958 -2.442910785877657 -1.5858104071345527 0.21476090462810113
P 4.44917245116061 8.182342779799754 7.120254811222342 -0.6003901262664112 0.22163706292264412 0.9659554872753108
P 6.888463425758774 1.4270981442437105 5.592549948331399 1.2132629583808654 0.44925528312938756 0.5727186284930716
P 1.8142518708796946 3.473910364393454 0.4574459556579781 0.4005243935825876 0.10156397418743154 0.6181847312456707
P 7.427864538486682 7.415203633198374 12.792704381412157 1.343560038836931 0.9434025416754591 0.6477267065688458
P 1.8529327984333175 6.367709219863574 12.576973726686377 0.17381891499810065 -0.11440534892647394 -0.983611509794177
P 1.1048687951670444 0.6297059506456969 11.539196558160357 -0.1534624628289357 -0.1129668167077345 -0.6484723264856187
Ni 1.1825937203524108 1.2156424069505722 5.033596115473316 0.29527448590313665 1.7032267749732084 0.15406178697583142
Ni 7.691965437107315 3.1465607962663684 8.476143741759573 -0.5045445426199956 0.17636045047303175 0.10679334090717092
Ni 0.6627490515503488 8.867847015759084 2.2947723264256172 -0.7847256245251195 1.0555077817138465 0.7550849188405512
Ni 6.128697394589997 2.6325745890069046 3.8041644931455054 -0.39596839878078904 -0.3155252657323727 1.3430766714426094
Ni 0.1685818158116811 2.091916695239347 1.0196692811169838 -1.0700216590593057 1.138652372853826 2.3900453053371935
Ni 2.4768733824282423 9.080000964740917 6.103910879641376 0.7084409937297671 -2.32681416529169 0.07440155484002671
Ni 3.864853053126749 1.1396304277748006 11.680819024248203 -0.0848137513122862 -0.2643335733499061 0.6300195190970698
Ni 6.581138568863419 0.1813758467953018 0.24545306083900487 0.047514500641195584 0.9091917001217051 -0.6722419181013907
Ni 4.944437275673904 9.164661459367306 10.046673185839305 -1.4333825562177185 -1.8354064171639681 0.27592924860730544
Ni 2.013232892668175 6.831703470212579 2.0519957437266045 -0.4556529591256153 0.28993610440935874 1.4186989860636148
Ni 8.369156299226601 0.7257882575501942 7.777298076852687 -0.4279693771674178 -0.3068429074670264 0.21328611985478751
Ni 9.13528071150708 0.18434091909995376 13.464094500821778 -2.7549262386845585 1.8024621010274637 -1.0077713948698321
Ni 5.734124005075496 2.1367418856534734 1.559261238373136 0.3340639479665085 1.4070413472200285 -1.7872578824831993
Ni 7.186916339463129 3.4353876981559353 10.968851634338467 1.5613664151595756 0.4351185866176894 0.2679061211925128
Ni 6.611385099217624 9.081155341399556 4.075582650263645 -0.4170910396920171 -0.6240920978690414 -1.0632979671822267
Ni 3.9574079945799663 5.081659146225143 13.005096653317063 -0.8142902255561137 0.24957107032875084 -0.5461033398983886
Ni 2.363418637760131 3.4556079086605007 6.72916596350888 -0.5280595950228003 -0.5425341344898915 -0.8722030387124979
Ni 3.5567648181184226 1.3193221879769736 7.529329592036548 -1.8759570848928209 0.2908740428425958 0.16713096145496378
Ni 1.7999618049844333 6.098069175179306 10.323090538648492 -0.6053528695883251 -0.6579231874858734 0.026926134966882658
Ni 4.9332845076331715 0.5828047441438552 5.714306895452536 -0.9081100370217522 0.5371736415089264 -1.0866356134669028
Ni 8.240601563104345 4.105689538280112 4.147892245591505 0.6286766319159302 -0.15466368222588847 -0.01918274357603793
Ni 0.33384479872977224 5.0476143442844466 6.070379030554638 -0.06782698694630254 0.5575218661479753 0.9595524119624441
Ni 1.7443655355860614 8.601241864548339 8.754973183215967 -0.7643113225348257 -0.5808541131160126 -0.10461973029461982
Ni 6.17405322588753 6.9900765001866425 10.37528977544414 0.3967705829671102 1.2936297296653914 -0.6909922021257003
P 8.152235891783288 5.196947860262223 9.092473818347738 -0.3908886702650365 -0.7006379527455804 -0.8584067562593539
P 7.79053430857248 1.7250948929781191 12.81028069698887 -0.816736115993445 0.7010979231011345 -1.4356546400813468
P 3.976110758347771 1.8719241563657822 2.744396449272391 -0.37496788526972197 1.7096887285484685 1.2340289872836232
P 7.558634933034394 5.6644424785438785 2.7510322531617346 1.8909921248490726 -0.4481767053532282 -0.5885671654895541
P 5.453238097458669 2.526167127650007 9.313450370227901 0.7483370585937563 0.21273127579258203 1.3686725176338428
P 4.201540038903962 0.22773896482239028 0.17520737926292382 -0.3877251849353904 0.9861561305929016 -0.21006375626274792
P 7.785404780032878 2.8703017047732855 2.4123325558232462 0.41831051392141505 0.015058694105335356 -0.7273784540642183
P 1.608484231477113 8.085989566760043 4.128571331741977 -1.7338905226056525 -1.5750331140133906 0.7851102615580478
