# total energy = -381172.0739615614 ev
CRYSTAL
PRIMVEC
9.19473067399846 0.00000000000000 0.00000000000000

0.00000000000000 9.19473067399846 0.00000000000000

0.00000000000000 0.00000000000000 13.45741775901683

PRIMCOORD
 96 1
Ni 8.725312165596783 1.5639777277415756 3.502238924008193 -0.23359834904957832 -0.7372882569787624 -0.881840818912578
Ni 8.398172840070945 3.3572812352391854 1.6948003569211936 0.5684048316090663 0.28345975265639567 0.5749493175958033
Ni 7.528958162894531 3.2470456082196155 7.674617409620131 -1.1157713544905947 -0.19103193644227748 -0.3519230876351165
Ni 5.422206283965014 6.085440602771889 6.863687211225463 0.09318911986017499 -0.6772895078276271 2.0069702175793047
Ni 6.647845504121378 8.821617775522798 3.403542684085925 0.571213504702455 -0.6833393135661328 0.3424750548483392
Ni 2.9562806375598556 1.5010581851863236 3.6710219991090964 1.0411119180034907 -1.4917409415519536 1.1308920121821169
Ni 4.430168393365678 6.060688387579906 10.830301414640601 -1.0848877775378605 0.49882280964486997 -1.8291537513860368
Ni 6.229218607585052 3.5407988663746925 2.9523149501853005 -0.14375269174033953 -0.6759008550102166 -0.18442728664156624
Ni 2.2184770523313686 2.8818584868303203 5.781212707340917 0.11079114921265436 0.03829041093976632 -1.0851793406363506
Ni 5.09900230320224 3.6192023355210665 7.389791315554912 -0.7952470928817337 -0.4802748714393535 2.4828811556230077
Ni 6.730496938876478 1.9971598830627852 4.801068200972944 -0.327910526770603 0.038114804593850485 -1.1397466343592693
Ni 5.53834492812918 5.713017228278548 3.3500219953082526 -0.20534886728558185 -0.5190463357805964 -0.749634180138625
Ni 3.8824658664931513 3.691454529792464 4.145113350504663 -0.6753354694250499 -0.30655751501612366 -0.17651265978017988
Ni 3.2725885702565134 8.255489008217607 7.5735388149592895 1.4104879110077322 -0.09301659883805272 -1.1026206760412494
Ni 3.249500601331153 5.413875857901146 8.64075190473698 1.6067744109807296 0.9820444224173732 0.311182929603277
Ni 2.1933478531784383 0.5434655949407045 5.769840664343352 -0.43647432931463537 -0.32528440200166553 0.1450580408153244
Ni 6.280313726389602 1.0335888788803802 6.787208199226074 0.6795849887300233 0.4845236194133784 1.085528753555969
Ni 2.790564005165685 7.7250541857026365 12.154833641957385 1.2728199920088916 1.3674748977813158 1.376346746349649
Ni 8.19410498569841 0.9787423099278624 8.16182964180283 -0.03695600839905893 0.476544972083276 0.5907608307067632
Ni 6.1488106871341275 1.7499319625271108 8.966677525803183 0.2349803169987695 -0.11999904096416752 1.6962084346738464
Ni 4.6019627427887855 9.172203664473434 0.9485863514712702 2.703159647635228 -4.071892843303678 -0.3432520422236798
Ni 8.989771011566997 7.062362356010296 5.5468114362082215 -2.3558306071286976 -1.5724766661401242 0.43013038937447856
Ni 0.13518460944970598 2.827416486031015 9.22376771454648 0.8086890773192525 -0.2378776931512226 0.2622324678465032
Ni 5.776304560063993 4.14240090493199 5.3447746978594255 2.2296418924140506 1.4891855221199515 -0.7952200962985402
P 0.374193360163644 8.890679398222272 4.062888551256585 0.16806864277788475 -0.5233400780599439 0.47485961396105314
Ni 1.8373830467362302 7.4671052091068395 5.073702082057269 2.439192456485806 1.1902996647164727 0.04885327405727715
P 1.9005876259448817 7.7684165359423805 9.09674342864168 -1.0169828861657713 -0.5717575501313831 1.1338269264407248
Ni 6.492077570403925 5.865750900846909 11.784391731941708 2.3974148583283874 1.4894341477956479 -0.48123440713914545
P 6.263505758569786 7.7784204030036275 1.6074614484272836 -1.1759199989560327 -0.4822358518204663 2.0885240671933962
P 7.6238937579380766 5.263394894367715 6.485264274914601 -0.8535913371485815 0.7469450633422362 -1.6310240275567138
P 2.9008915794928036 5.182389316417727 12.063606281827262 -2.4022932694666115 -0.22791903927661392 0.7049574060565408
Ni 7.106910826517413 1.355726270875595 1.6754215423823293 -0.663528963708425 -0.09080750700187587 1.0044433589378636
Ni 6.348198423552458 7.014779624354088 5.015714593078904 0.23059247234371902 0.9844959692816593 0.20943280754696836
Ni 7.3986872175602025 5.545581181233226 8.589829646870623 0.8881346223410899 -1.336051646275028 0.47543039886285854
Ni 5.144313936362006 8.234856032403783 11.983184569280205 -1.2860118081088174 -0.10317939830366747 -0.712078076261722
Ni 7.148737656721101 7.6664469718713955 7.288147244952648 0.8905697141451436 0.8554073073113979 0.28741565198035013
Ni 7.765529390485366 9.020251544019233 5.403961179728219 0.468352923190787 0.8197209096533817 0.02757096763973316
Ni 1.001600410584352 5.0740478039336505 9.105463711289554 -1.4652567792184958 0.9224447084768695 0.8861271049927577
Ni 6.7233894120030016 5.815759149732938 0.901002700341987 -0.16503191283408997 0.1607163161778716 0.6773869526374399
Ni 1.3893605959767368 3.6296015760047706 0.6216906863104344 0.026861343167218256 0.5580060048732455 -0.13593191014434008
Ni 2.2592464884982526 3.4565659379297617 7.976143893155337 1.1514060729750688 0.38721867761261697 0.9460561772482222
Ni 5.143155400286899 1.1636759295996124 2.9499463875428584 -0.9947850099124932 1.1030891310372357 0.13374981489135673
Ni 6.843123195892303 8.468567698729869 13.27886465096143 2.1276454586748907 0.03434068226339892 -0.4706337488051637
Ni 0.38152248004831324 4.259302711748807 11.562640571381497 -0.5155645478795831 0.4508388255664235 0.12654892626754335
Ni 3.2477903814107565 1.42888874349172 1.17731263478209 -2.7915485178932826 3.926029018757606 2.116333890316813
Ni 7.806648226420934 5.993419737377622 3.4926570950885916 0.7963920051194542 0.969795172736375 -1.1219021499786808
Ni 0.8988014817992824 6.95425071179509 2.9930641579445245 0.5734783894772316 -0.292497951599264 -0.6256895242631483
Ni 7.670409900826725 4.103295715031729 13.11912551303097 0.09517118328721028 -0.7965023054450735 -1.1765751160415285
Ni 9.176341293313104 6.059989588042539 0.591812408722638 -0.5945688915989438 -0.163592352174086 0.565145187021188
Ni 8.18287821944677 1.1033952747709945 10.73962481888269 -0.3313066969363455 0.947275394367304 -0.4825459268617174
Ni 3.255863355013491 8.260877120439932 2.9838188561705503 0.0679956513136829 1.2214691483407414 0.5443758156843206
Ni 7.205790961054777 8.122110243888148 10.675513639221615 0.10182288427577302 0.22875850445877377 1.100448608090595
Ni 1.3225516823121946 6.462121137604712 11.138623723676696 -1.5262520879549455 -0.28360990508101475 -0.8782703279525004
Ni 1.1625357829860143 9.071889151938318 10.852519562036555 -0.0063750502884083755 -0.666792207840729 -0.28693434146855745
Ni 8.858221998657747 7.425774894363911 9.31090525843686 0.7358499818703392 -0.4168357291481015 -0.20041337765717743
Ni 1.839157629771911 8.296948049191101 1.102174214526754 0.6173318963270723 0.7002700278832005 -0.14029841464315193
P 5.306674492030666 4.568107744149529 9.468665690308882 1.3669244245944847 1.4515021486365647 -0.23077373511658963
Ni 8.987463134147536 1.8978108172569252 5.76560189346538 0.5409284805656683 0.4218858899774992 1.500561625167377
P 8.400719780490032 6.85186738484014 12.214181031614388 0.06503528313377832 -0.04549181378421198 -0.7015478661543595
Ni 8.554538431287462 8.410613310782221 1.8270867872369796 -0.8329487211975656 -0.8981079315037177 0.8296651653502873
P 5.418362886509498 8.959989278652124 8.27216733033378 -0.4583860417860622 -0.8299508149115062 0.32046692600836424
P 4.5968320830275955 2.238218139261973 5.692366782476292 -0.815532325493331 0.5071431565851072 -0.1645248912906844
P 5.752094833986544 3.7772505624657144 0.9155009517961916 -0.5240329903619104 -0.36575845085631203 -1.4802041445569476
Ni 3.8859230852569646 8.473790305798607 10.010852298201591 -0.6745263432601931 -0.05535919349659498 -1.1422460037423554
Ni 5.849384280103325 6.986763279744144 9.167542855453814 -1.7149515196093044 0.8039960427189573 0.3851617950835883
Ni 3.653783717889955 3.2434228843022153 12.98401262248115 -0.42206946674321505 0.7136575049337 0.1855860828363578
Ni 0.21853116584987228 4.263357588011684 6.969327311813773 1.246061492968125 0.19104170663429032 -0.39905012302990633
Ni 0.4398529324838333 1.0974922576263981 1.2122737595311526 1.0337094548918326 2.3162803556399014 0.24455536228171432
Ni 0.33452361379503676 8.682161294164402 7.415952163498534 1.8280669460797614 -0.4196292327328386 -1.1457581306606721
Ni 2.237289471455736 6.119828895794925 0.5228142296653725 0.4218005293525445 -1.4465152369449346 -0.3773705811739436
Ni 7.565948564721183 3.840859709827578 10.336736542979397 -0.01437992287075588 0.2867317385394481 -0.2909794580722086
Ni 3.85140606600336 1.454560431759185 7.822500861715323 0.016655092058177768 -0.1996271343104562 -0.8452493929417896
Ni 4.573385519602797 5.753565990907317 13.021330356722673 1.0424303797045982 -0.3222576993601998 2.205027179189164
Ni 3.8238494579311566 1.3042633628408522 11.487655703129768 -1.7486021177842144 -0.35300732183823075 0.058365841533402706
Ni 8.350121177146242 3.9108224161410248 4.100219158121165 -0.24220228866850543 -1.2932540914935275 1.7851637189583323
Ni 2.1744526814772773 1.5660465421614107 9.655253442043424 0.07399094966516934 -0.24302401323885242 -0.36859154942973293
Ni 0.812764547180255 2.032136638854131 12.258724904756129 0.5332514236363849 -0.6166006745880025 -0.41305877860417245
Ni 1.5294974874109903 6.609209245489612 7.252633516885221 -0.1437802025441653 -1.3813089754509307 0.20240212595243207
Ni 7.8388481735243225 1.3645164334772057 13.083678906498053 0.45841895190652665 1.642796080490977 -1.5425461971292789
Ni 9.300470158503213 8.719252838029355 12.98959750194163 0.3402906456025107 -1.0590019109100344 -1.2169779453386071
Ni 5.687832860741088 3.759127748147959 11.624409853119323 -1.0100221385772217 -1.1211177064041724 0.4777107102566031
Ni 1.2979465828122891 5.055428474155135 4.991584861159024 0.33798873694221143 0.17182271050367826 -0.3567701313147727
Ni 4.860261119153266 9.341570604977269 5.326768656622256 -1.0277473237711268 -1.456897094399891 -1.5018317501290523
Ni 2.482595693263652 3.7360121950303347 10.670117251741608 -1.2608242530995963 -0.09317703567531695 -0.3786358210396124
Ni 3.3864928948472577 6.125915807554619 3.8892341078017765 -0.6666281714590391 -0.9632853966423153 -0.12117274955729454
Ni 3.698957430088399 4.193762670928431 1.9258510681668326 0.14713420661806276 0.031196223097146276 -0.9929127325904447
Ni 1.4822641555234657 2.800383977611836 2.8945692826257874 -0.6377150879691146 1.3337571938138966 -0.6726160136113577
Ni 3.507918509195447 5.033636962266205 6.187195929616285 -1.4222455657642925 0.17636584978967046 -0.3540653307890999
P 5.833339474936159 0.9357477489183113 11.024626532305327 2.068839701390592 -0.33572050973332507 -0.2762758333134468
Ni 4.219471138118915 6.574453163236382 1.6028190288691735 0.7299966084133557 1.379411758428218 0.8792023528484666
P 1.3094951646403463 1.6417007868120925 7.592311696741412 -0.9045431456061002 -1.2776127854118449 -0.7757367907629479
Ni 4.307308401019736 2.7988484575757804 9.893556956908467 0.11177742438532363 -0.4330475630212735 -1.4000075803016987
P 0.6999599123877877 4.819261814717512 2.9181068738850584 -0.23217010124348403 -0.047906850983607814 -1.4849951381876878
P 4.109272290022364 7.257511321550655 5.610034404878382 -0.557043640959976 -0.18467642653789484 -0.31763331321431104
P 2.410840014453015 0.6894503351350252 12.943021593303076 -1.8006080785378604 -1.5540611397474138 -0.35008037799942293
Ni 5.504278450682562 1.7138702285066962 13.0505061568808 0.8406602309092103 0.35192977250333585 1.2236818397213443
