# total energy = -340891.37158954464 ev
CRYSTAL
PRIMVEC
9.04485430891243 0.00000000000000 0.00000000000000
0.00000000000000 9.04485430891243 0.00000000000000
0.00000000000000 0.00000000000000 13.23805854897994
PRIMCOORD
 96 1
Ni 6.432881069568009 1.9755770130410346 11.135510510400975 0.2699167238646384 0.5525701785696548 0.9342381015673717
Ni 4.5049252128938875 0.2948730945772062 6.149475040905708 -0.2552976883998829 -0.15533371170971957 -0.7056824571480234
Ni 2.690916427047945 1.7086091020579781 4.951735574115475 0.7374762046198524 0.11412818400568732 -1.2202411894709113
Ni 3.2252230880285007 4.448232067954133 4.916773595422093 1.8298489776808489 0.11945833796934908 -1.1661755179747595
Ni 5.136156529454279 4.245346947637663 2.8730164728475747 0.18925658970940953 0.5828055804154285 -0.758963427959351
Ni 7.258667195900916 6.169494920773234 2.5680113328074596 0.3340513495610183 -0.26868696522259533 1.0193830109668314
Ni 5.092026686735539 4.463554050648445 11.261509849198559 0.3468803830048865 -0.44469646011411157 0.9631049052003928
Ni 5.751532216933722 7.623301440492695 12.358217392202647 -0.5407880983330622 0.6817691408655355 0.12626713336106643
Ni 1.93698262097691 6.449234165619553 0.2880189042078147 0.2079351399555193 -0.37611382594870707 0.24548404474357075
Ni 2.8103356345526644 1.413647367911466 0.4922716064507194 -1.249288484545855 0.3882134374257185 0.3364918406817108
Ni 0.5636156059171834 9.301004276395735 5.057534135965317 -0.5097746806706833 0.0876098260001846 -0.7685495289858892
Ni 8.71844331926751 2.409711915851874 1.3561591803041613 -0.06025534524663171 -1.2128832064439434 -0.22612852303509445
Ni 6.770480245521479 0.6640505693386144 4.63938329916238 -0.18167697758993873 0.7323663941971129 0.14969631091828411
Ni 0.7547496519028098 7.212466081613701 2.363443869644979 -0.8827509894316732 0.9946466845624161 -0.00323547621816217
Ni 7.285765578517301 3.7134190832619494 4.037991860469051 0.45414372156994043 -0.1684224265728777 -0.725016895810577
Ni 7.809182235268843 4.065327218260519 12.481092638424897 -0.30459344931121735 -0.9583918159954398 -0.036978119886246
Ni 7.686660642838416 8.784859682268886 6.640156562021327 1.8213494248502695 0.06411559953298636 0.4496093240346966
Ni 6.813678468277105 0.8590883743153063 0.3868646867795464 0.8518399016751137 -1.228236548971562 -1.4236807555489221
Ni 1.7922468670959346 6.497108577898769 9.48897352796298 0.313282492444783 -0.766429397319093 -1.740382043867267
Ni -0.02488601132534156 4.7673526071635175 1.5545580530312701 -0.06280562247231118 1.0829486515336186 -0.7099366044386871
Ni 6.477155629950922 1.721127180008939 7.002468992588531 -0.03291911932552395 0.5551911611322696 0.010105978085750337
Ni 3.6059481279055094 3.94233529342153 0.6211598716193553 -0.9591970855055546 1.4212829447407072 0.5252753474094438
Ni 5.726134266871369 5.489294764598319 4.843276016215655 1.3588886987742017 0.48542144863729947 0.16060035942529763
Ni 5.438969196882174 3.0164497677509936 8.868082288507747 0.16532039060878626 -0.2635308749429526 0.9577636954931376
P 0.3404265973172477 5.598366659114672 12.358058202772057 0.24789085441285047 -0.4019055902008304 -0.24720539831005164
P 4.2078560277628565 5.886969860891585 12.634243724477528 -0.40617773521362305 0.3209299816877118 0.286997333496009
P 2.4664864644777262 8.350797138290133 1.4354816454935604 -0.7695401750339328 1.0508731111553127 -0.8869048636990468
P 6.1841928085408 7.582681001130149 5.814089140728685 -0.43923775099238543 -0.10986272386111402 -2.091635102018553
P 4.781299772048186 0.9928988490366247 12.656073479632619 0.28545595715081806 -0.681134335495014 -0.7206730170195847
P 3.9601627006768356 6.2220093431599945 8.267710204861435 0.004392729751056951 -0.31325009654495084 0.41104226239477604
P 4.691764762195182 1.053454146638995 3.981875777215185 -0.5522750159267392 -0.10401372127950473 -0.7198186394390893
P 0.055076829528022946 5.597127514115191 3.706987287574863 -0.6871386327075649 0.5226739052308548 -0.060704516968908356
Ni 1.4691465921217939 1.3029112202571242 2.841998954988305 -0.0633057020371813 -0.9283019385885948 -0.9135517768626138
Ni 1.7249350635474896 6.474143693565323 4.830236050188271 -0.11074821178986088 0.6477668157781618 -0.5054354298653811
Ni 5.973773324833324 5.474198903254277 9.21750127968254 -0.17291311535437962 1.8918495877533614 -0.8172107416370183
Ni 8.648092444771434 2.335091870262695 10.076756983797047 0.39707860112583226 -0.5718760779871183 -0.1024872573326493
Ni 2.2468502745332364 5.60046506524518 6.950073057789312 -0.6020960532139243 -0.8316446576741612 1.5285069454273936
Ni 0.5222571064673555 -0.04705856644744023 9.354554334566734 0.4395773937199913 -0.6195828971447781 0.6538089082071837
Ni 1.6648048740836274 1.223913465326713 11.481169555763477 -1.0719114198828505 -1.6257262694928842 0.0975787642874384
Ni 4.032069290062772 6.749677081296617 1.4107928119856545 0.7649736387091729 0.5473945479059863 0.9096190174671109
Ni 5.726839765484211 8.015884283977876 7.920660965437473 -1.1472709677607726 -0.14157496736273037 0.5991092026714585
Ni 5.022526028516478 2.746488010090359 5.405523135721003 -0.10817222353256854 0.4029494580843125 -1.1541430122902576
Ni 0.895705561292668 7.701367575459992 7.138000703028106 -0.5557200370525461 0.3474231428822339 -0.002815615071924183
Ni 4.786563877082477 4.695825901646035 7.0819642144895365 1.1219196334801773 -0.6138971596139104 -0.4192096286969167
Ni 7.83842424828579 7.367332071986782 8.717141764775356 1.5940657051648095 1.2584508677714135 1.542282144834615
Ni 4.5281252634316145 0.5766998917292206 10.440366446429401 0.46888488443485704 -1.2856397694813793 0.3487845420061348
Ni 8.11336067565237 7.596673390284871 4.42039924319207 -0.4076815734526591 -1.2054182655254657 0.37476502523029653
Ni 7.185946569654007 6.103322768830151 7.018381604249748 -0.43453083243501933 -1.971666142961372 -1.7559400462065242
Ni 2.213330045569176 5.263236728306154 2.6506559728750294 0.6763132599572869 0.09581113086405435 0.05156810188527894
Ni 2.5775753614384898 5.063888145907911 11.464052169548019 -0.9606039931554101 0.446638671442147 0.24081209318919816
Ni 0.743076363316459 3.4775021560980024 3.7756268756920948 0.6523318094410249 0.3273402560894298 0.6166107018903316
Ni 3.620790733337248 2.476272996517422 2.592977843333497 -0.14753452738027495 0.1680547588208138 0.45097637958555237
Ni 1.4243655199142755 3.4669829908834306 8.11443972673586 -1.5567474283303253 -0.07330009424573182 0.8941533177313439
Ni 3.4959174788640106 2.8040132815991083 7.3700636178980465 0.7713633442856006 -0.9027384882971936 -0.601065812177197
Ni 4.133769628560315 6.722488250140122 6.036488533573476 -0.5896051198357652 1.9233327459633067 -0.6355409631359312
Ni 1.0230363026006424 7.549459252348445 11.553091521401232 -1.1600606633262731 0.07851609122903251 0.5574830424902399
P 0.103786986317837 5.8978869996826315 8.013009829373239 1.2888371933727545 -2.486188879840002 0.17517517191567897
P 8.752090176187723 1.2468421702441153 7.905860870819584 -0.1076610882241049 1.1999970945098946 -0.2534791471339054
P 2.0452314337782793 3.0586440117114204 10.421846203356866 -1.2975144094317783 1.1093906477752316 -1.497578631279653
P 3.996450654968204 6.161553538951743 3.6863360768973825 -0.15104279764384954 -0.272889176229401 -0.4709790479597244
P 6.986986915978227 4.0371434531628365 10.351155242349982 1.3711752294510386 -1.0516318436982084 0.38050141349344146
P 6.344684698108606 7.7318939577464745 10.11026274099469 -0.7795949881667735 0.6636521195498505 1.3573293247068818
P 2.3893700391815633 8.381612955904961 5.744668981710319 1.1749985155830278 0.5444611763092753 0.34604914535284276
P 7.00186570082601 3.775674813418352 1.455563934853761 -1.0327455483166665 0.5780870918938367 0.8684026911298012
Ni 5.582872824194155 2.8450950085162057 0.035908974908315225 0.15058925504619872 1.6526020108378054 0.5938757221866612
Ni 1.7887826880097946 1.1149139296424464 6.974590039071012 -1.1150864126084281 -0.1603854152010141 0.9821328683661215
Ni 6.926404483813825 0.7533522219581398 9.138562316303199 -0.04584508335857266 -0.5448663821674938 0.5087215568158208
Ni 2.6318897097734015 1.2953587671580982 9.188695228628916 -0.04468474450188433 0.3591175485010267 0.08627825167295465
Ni 6.123293806486019 1.8617565701690064 2.4361075133116197 1.1965255910215264 1.4912971691463155 0.9387537300495382
Ni 4.235442832495826 6.7685627364711864 10.445066152573418 0.2726464640909756 0.5821936578630426 0.15211931853747993
Ni 8.07971381873216 7.246339059884182 0.07773418882510101 0.6141990071250454 0.351714056948104 1.584865269612464
Ni 7.576503365840766 3.8934297677850824 8.242848614641922 1.6774375818242466 -0.23239532988041267 -1.1033081890265772
Ni 3.2954563794224376 8.3784653467092 12.35649615648439 0.20647372491864438 -0.45031509185246965 0.766719417755686
Ni 0.32104347517208276 4.605359271829918 9.989041798571018 -0.3270903448621528 0.9590168511739484 0.9300119793011662
Ni 8.574964800094039 2.347239109199212 5.867093794202831 0.3219450532157875 -0.029530405358949137 0.3213470146204724
Ni 3.530731121951617 2.649807565568815 11.835406740669828 1.4112978085035373 0.2846324328082582 -0.6000707952537794
Ni 1.1893892575674527 3.4033976671874395 12.6041804387164 -0.30867636113133934 0.16896364378832837 0.7069227573130277
Ni 3.3220663399222397 8.19492716912185 8.02387812595263 -1.3679441241082504 0.8401781490664693 0.3156720757228822
Ni 5.557293977051586 7.9043069649005275 3.414002758515114 -0.3776839986493044 -0.10804623947766553 0.6999193294120011
Ni 2.912442991480694 8.179451423909356 3.528790096280897 0.8841584113021612 0.519027566727519 0.6361348879661883
Ni 3.583082736966183 4.394677487356129 9.386140773743284 -0.9022882881336525 -0.12763187491907696 -0.5475107617688764
Ni 7.474341739788671 6.23022207060181 11.350363781544548 0.040969757544142345 -0.8883493094550571 -1.6711046976276833
Ni 0.6115768487949025 9.131413263693057 13.697815444813015 -0.31543553423204385 0.03242418196697642 -0.20856891688477627
Ni 4.586428392385293 0.39966677314644633 1.5851251371608013 -0.14826112113365436 -2.011766610526684 0.18713851492514222
Ni 6.09392516551292 5.602066004405094 0.6491573127244153 -0.5813755328371213 -0.9216882899268192 -1.668558534167062
Ni 8.003103905260602 8.82389727217954 11.33749657222877 -0.30343311045452903 0.6158242014332942 0.09161534761515189
Ni 0.12889278759564124 4.802618492951663 5.810408789631685 -1.1684306325575233 0.526899513276428 0.7699795765641965
Ni 7.794556706333363 9.05000957759577 2.4286409863256964 0.8781042346882812 -0.6306728364103525 -0.1522447883717507
P 8.496726812900535 1.7375074106225148 3.5930999127831544 -0.8214319788072174 -0.944149961364445 0.7534743798203217
P 1.6680610215275187 3.375331485191897 1.7748925057053944 1.5491616455632675 -1.4714420820936014 -1.3950368665599846
P 4.720934416380043 1.1051093078947287 8.272581763231656 -0.2001081877119328 -0.7648684805898763 -0.3928429657779299
P 8.671527661513442 1.788999764506054 12.307621383351579 -0.7451589179760908 -1.0777668502223632 0.45912497683461573
P 6.272108789525869 7.74458388792364 1.3182630509696711 0.29707245834382384 0.4125887809462894 0.08516444978348559
P 1.8093597308843865 3.4643961626363393 5.972257407301114 -0.9797409710951772 -1.5065224707365021 0.8449848264264932
P 6.764890525742798 3.8413042741207866 6.1448684967580025 0.2190389631781647 0.6494308337441461 0.48513425641418384
P 2.5462439871450453 8.275634401460305 10.290564669816971 0.24478419046306876 2.471334588435989 -0.3890719287712719
