# total energy = -340870.94141614623 ev
CRYSTAL
PRIMVEC
9.18711925624549 0.00000000000000 0.00000000000000
0.00000000000000 9.18711925624549 0.00000000000000
0.00000000000000 0.00000000000000 13.44627767976209
PRIMCOORD
 96 1
Ni 4.577693380295252 0.07305964569113711 6.89936564687948 -0.680044444864945 0.24358554216927727 0.18540302029127426
Ni 6.875015187784822 1.61186166656841 10.451334638551343 1.0738418041363442 -1.0343098074799928 0.071281006933174
Ni 1.5806162746118237 7.1573537310396915 5.889603877639969 0.4957986781065654 -1.9074659541343792 1.0759333965580502
Ni 2.5444461233496747 5.605888185236527 10.741316864872333 -0.5949913238483431 -0.6615898377041831 -0.6997601781263173
Ni 2.0493339024368984 2.8346304662902027 10.671100632533317 0.39230174856247924 0.42127833830048733 -0.8978518496288538
Ni 2.5839047997547135 6.491250849998722 3.7515655844478717 0.4737183012677583 1.7657063815646687 -0.9260812767881922
Ni 3.064363565751067 8.527998399309915 12.890314472402864 0.5590434449988243 0.17054615778409982 -2.2363267606333936
Ni 4.795749651418327 8.779174234679829 4.435469427398598 0.9041595370144364 0.2500536663921242 2.2276204911086475
Ni 4.763034320410563 3.1618572733203982 0.8819597558587202 -0.47107829254175 -0.04117930245178714 -1.4804026337209988
Ni 1.4558735718812947 4.379545596196559 12.768907612606599 0.41844549683738264 -0.3464857186696291 -1.4485471797732987
Ni 1.8825968784380493 3.1088843447635974 5.1961389998732415 0.6349169563986872 0.0001293264890126805 -0.5357711047344451
Ni 5.75558310336079 7.356558033831418 8.135965654360945 -0.6374399799308571 -0.3588966907394722 -0.05632849938839976
Ni 0.4484508431569685 6.232027098323615 11.625207753159538 -1.2888173958784126 1.057523783702611 -0.7060681226222162
Ni 3.578162386851934 2.8008678037084755 7.321403522710608 -0.32816840841767997 0.6710427555869669 -0.3885633645659695
Ni 7.022009092902547 0.3390111246611015 5.996609009582324 -1.8284598106428058 -0.04160327736308319 0.031429422153874904
Ni 5.093770606925444 8.038159584743237 2.462147910721889 0.987714476218957 -0.4062967772899906 -1.1806395159188892
Ni 0.32572838790990105 6.191107669986469 3.44261011982381 -1.9638350769527273 0.6122881632555778 1.8272693898791303
Ni 7.480611702631709 8.833460921263619 12.401031478539913 1.7306907847214321 -0.8322462958139022 -2.311500160642438
Ni 7.0516283647837685 3.9484584080816223 1.3647300010130494 0.74374969633339 -0.9421151903226033 1.6105397915604327
Ni 0.248144086076859 4.156206731608316 10.102860781248289 -0.26528231041642053 0.7490837069517937 -0.13771676995890475
Ni 6.549763611354647 2.21396707616875 12.75599971031345 0.5127764436114846 0.6869144325119008 0.6327819123335554
Ni 1.7215834296197219 1.9233233772747291 3.0365321072408396 0.7263399854973748 -0.012440796866514059 0.744301197961486
Ni 4.6155994335774855 3.4626527387866117 3.064312117884276 -1.3330072030217495 1.8455923565580343 0.37881502692995406
Ni 6.370256491848695 0.6360757010730462 8.45261257507029 -0.29888354341063367 0.43480311225979956 -0.6112481520268376
P 5.757622643794298 5.148810637272962 8.257412937481115 0.269536200596768 -0.4819052079539249 0.5641005478067576
P 2.1738193658334715 0.8090544537679567 11.350029650507716 1.6837943772802098 -0.3256896078598842 0.0746568653839424
P 8.564406952183763 8.154854371168572 10.581574913333275 1.3314200610402875 -0.20200926138938757 -0.4533703337390257
P 6.2773930922905725 1.9930444238958798 2.049360545082201 -0.7936910612485234 0.38201399348322596 0.4731220624446562
P 3.975477725266074 8.42120732724189 9.270200025030332 1.3897375658342581 0.045996521334772396 0.7536415015258052
P 8.858293704109443 6.596755725396969 7.02706476452669 0.33998982653264026 -0.6625784268696976 -1.1615632160137286
P 5.400868436073581 2.0040505925415695 6.245445804437049 0.6313868317582416 0.489223338881893 0.865822846217767
P 8.665860308072203 0.894632467903682 0.6527870706611175 -0.04740008655051837 -0.22638640468217142 -0.5334134031355459
Ni 4.690015098043334 6.308822226628556 10.383901184578585 1.6285606536178856 0.5830652618347184 -1.0723096837625339
Ni 7.95727618845221 8.198667742012724 7.943818896438683 0.5257389173094236 0.1073471565281119 1.5635893909528231
Ni 6.94491997678737 5.600137048698796 5.7676191480542105 1.2896054389973468 -0.28927918755165016 2.0790765486272518
Ni 2.6475807220278984 5.071804205229414 6.618997740665096 -1.067489379555755 -1.2320438385327943 0.7375939611446394
Ni 1.881136126505942 8.69635235626506 7.864189541900689 0.39441802357453365 -2.169552640431638 -1.0098401044734027
Ni 1.902845288868016 8.174202443929692 10.340322085270715 -0.42316012870423253 -0.6158481126926941 -0.43320105788000235
Ni 0.2814235061955119 4.877358830115874 5.816482678251063 -0.6495395914078684 0.1807747774906435 -0.8905635434975566
Ni 8.758696146273115 5.64830511398206 0.38843598783312244 -0.12461468535930798 -0.41760834564806787 0.6496432068652683
Ni 3.845516738903865 6.953151635473962 6.268990553189281 0.20762815023806175 0.9390085263728215 -0.7716155695057227
Ni 8.190785193850786 7.693954981671946 1.5689927315646397 -0.5000849641867451 0.2760968845334213 0.28541739060339877
Ni 7.14456526129445 0.12157498407524216 3.3131893360629094 -0.9425656475964606 -0.4831215968595292 0.057044551618817885
Ni 4.916440834639048 4.352149607130244 5.937271244933925 0.7468980121543847 -0.8239801991503681 0.7288642945811254
Ni 3.3792612589895126 6.670730408147464 8.413107044357995 -1.2542198604092012 -1.6249456825731177 0.47254562111589576
Ni 4.346122857020417 1.7806749794770471 10.924091842631434 0.6142591709390195 -0.8322393538353667 0.15461817369993372
Ni 0.06934621216310059 0.7256749172256484 6.910189910567587 -0.4707767021409312 0.6485016370616573 -1.9602453027189402
Ni 5.64252641608712 2.9055642126285752 8.627023599628192 1.5905461220473252 -0.8915333636099936 -2.3570084294868825
Ni 2.0438400052331236 5.373591879555173 1.337489274259014 -0.6545740685079823 -1.2839960632303693 0.800688575612279
Ni 8.854223810361496 7.9380107997627185 5.3266484572439206 -1.5692131648975038 0.8921350017497345 -0.7972438115967883
Ni 0.02469865090740569 3.058171447497983 0.46543782631713554 -0.7701767801766671 -0.3279737759083707 0.46358738348134354
Ni 7.405745869331437 3.2850289786899816 6.26585774558646 -0.014345727198710778 -1.3083719209715725 0.5651248753062139
Ni 4.073182736574012 1.8473642768051448 4.458866263533805 -2.278910913852507 -0.572997078965439 1.508341783333428
Ni 0.883719089160598 3.0283316847590847 7.386739557399715 1.038958619105914 0.3808757661137247 0.49255754546144853
Ni 3.27413305547313 7.2237398534384845 1.3566618730459004 -0.521554704024747 1.7861247973200207 -0.47162927994921355
Ni 5.729004767891691 7.451470160942119 0.25024977376767044 -0.24453170813263048 -0.5734398229298123 0.022128456467923177
P 3.418967987609438 0.47273056143478864 2.914359960426057 0.25208715188238523 -0.46390028673607203 -0.6974176460360699
P 3.3784987281067145 4.8429622563183266 4.553097625121429 -0.05003983816621059 -2.4103755322541134 0.021136267757982954
P 7.765632884654976 4.2655610098968335 4.213216480284412 1.4050525989247735 -0.30496754482118443 -0.1097889332003851
P 8.17687589557902 3.218780663077237 11.527090240205364 1.1869698290122912 -0.07612779350251404 1.8468439695769483
P 2.2248629993856017 1.2603441167175113 6.6346351360339 -0.11695176949741148 -0.1339318489951758 -0.7181026851892471
P 6.848593033339911 5.960887653214902 1.9605743889672815 -0.08461474792760267 1.3266606919784314 -0.5041462787403125
P 2.218560635703679 4.311772218818219 8.79026216868524 0.7324160164881257 -0.20269523171281864 0.014252653264272228
P 5.3158508362011165 0.3764642529731907 12.378091242222476 0.16238316235733324 -0.5977696579244286 -0.22129047821650275
Ni 2.392142063409572 8.885643757580409 4.602230337907029 0.00012572694458688025 0.9094398115767692 1.0981004195733925
Ni 6.516129568439897 3.897754697935077 10.535655854798312 -0.8114368152677186 1.8795563722083048 -0.68291379599294
Ni 6.624363018201892 4.824937128703265 12.806234877387434 1.1794904899161105 -0.5997638055363219 -0.01783085753383381
Ni 8.202048601830432 4.759497279568668 8.14900860730442 -1.4000335484436275 0.7821066988450337 -1.0756706298149668
Ni 4.40664759745264 5.661562126799865 12.590462524065124 -0.7942636459225418 -0.19301245720741597 0.9105016771823803
Ni 0.5940611681427725 1.0565830028671352 9.044302547781133 -0.8001650990086413 0.6105979200373485 2.563403221538475
Ni 0.5007558681573898 9.061714894554234 3.1810804012621685 -0.3736597079812597 -0.3061235128024986 -0.9782574445711151
Ni 0.8399369545212837 8.043616733470733 13.346129710206231 -1.0077585393540258 -0.3427617328508226 0.12586192750284778
Ni 6.71302790434509 0.3232258166752718 0.8046023758667037 -2.458859338787114 0.49311650328871204 3.62186982877033
Ni 7.451332354156071 6.159779593958253 9.903021648528835 0.5344158762581313 0.163216456891906 0.0425800394540557
Ni 7.142718650361409 6.903853554545106 3.933035991299052 1.123904010900058 0.8791144211203504 -1.9505270469899119
Ni 4.12814926996897 3.8766335111934738 9.851078596019764 -1.23015536326083 1.4208453429826562 0.5804458219340004
Ni 2.877782364561325 2.335255422129013 12.857262892837143 0.6124056626700486 0.6530427194651205 0.27462338531168834
Ni 0.28203812446128534 1.4791169831280349 11.847407414983119 -1.5545501635686905 -0.21901350925686794 0.7373008553842528
Ni 1.0097378827299304 6.109057509573568 8.557157396525739 0.3811508741519823 0.6995316070552792 1.0928756808393436
Ni 1.4865677366936896 1.024033040002629 0.7564931081454862 1.4877855564486313 -0.19906431982845074 0.5653935555865682
Ni 5.058565566649748 6.298468343436826 4.380743596523269 -1.5133106973029293 -0.9168088503473307 -1.5919962242302905
Ni 3.146349416330478 1.112229383073264 8.879464501294024 0.20882217054616292 0.9535198326151191 1.161953766583928
Ni 6.368547687701702 8.207735428534672 10.34579485210063 -1.008574864607734 1.467340144110086 -0.32832473148988617
Ni 6.247195031907951 2.475689724230859 4.22975513203397 2.5604598226394355 -0.17435061913185454 0.44219529095881266
Ni 0.6549662553044878 4.042699875500223 3.0565535958297807 -0.4852080470749128 -0.9358936348929237 -0.11830314131898334
Ni 4.7207000757366595 5.553154121775544 1.9510142728631874 0.7590858124698281 -0.2789119853847132 -0.4872212208501996
Ni 8.418984044426983 2.036765923549333 2.8519555354321406 0.3506732743884154 1.0933179105830848 -0.4678502725227556
Ni 4.152825871790609 0.6784522064946723 0.8816290195722053 0.979910663903822 0.12922004534180326 0.7800310472629276
P 4.91701962314045 3.5735137046025858 12.144301110980365 -1.3432977863144802 -0.22947455668919187 -0.8475713562067467
P 2.379114728568514 6.408401410226745 12.75012362895637 -0.8470445371689993 0.576186275326698 0.3095824178853765
P 8.249178522658802 2.722042322089096 8.44075292306301 -1.113347061319818 -2.7069607665488733 0.8692506409523933
P 8.64011800043846 0.8957211415134602 4.754335037363315 0.5331112985140948 0.8620752062498765 0.1726035545337608
P 5.8932796439798185 7.505352614286835 5.9532990928632 0.7879443885727333 1.5386859428429243 -0.04165752763978632
P 6.394078691596837 6.616544779873443 11.830478310673092 -0.18295867251583975 0.47116056784291116 -0.8032511941331327
P 1.1713668685259386 7.371891335559011 2.067122921091864 0.9698190839957749 0.24946462665787358 -1.8069304212114623
P 2.5645659141126633 3.1847699482806235 1.4954140136460556 -0.3509015883491376 0.4441267036535706 -0.3504853267473254
