# total energy = -340889.933749273 ev
CRYSTAL
PRIMVEC
9.07502904022311 0.00000000000000 0.00000000000000
0.00000000000000 9.07502904022311 0.00000000000000
0.00000000000000 0.00000000000000 13.28222231835785
PRIMCOORD
 96 1
Ni 6.23220339629402 2.430365300439916 11.301483602948473 0.5854149930138176 -1.2028178517881414 0.0907386014371534
Ni 4.680809080811269 0.39486720610870985 6.047581918833975 -0.021394920736008315 -1.5224399132977071 -0.06533198843859071
Ni 2.8711666720877687 1.5159200280849896 4.89963887915795 -0.8608187081349562 0.7671035405679821 -0.3304492340320567
Ni 3.275686078778791 4.160201906304397 4.808748836179301 -0.09838171980470797 0.8699844337946243 -0.3863517016266314
Ni 5.133280939436231 4.595367685096273 2.8632350969571356 0.15958503078690578 -0.25193134303081127 -0.6157450114559266
Ni 7.159653184852833 6.182372413408089 2.5549944853186406 0.2760824863557181 -0.6638747770836179 0.49170162521905636
Ni 4.952588041923613 4.493400662020999 11.283260945211275 -0.24443014955775968 0.9099892563223361 0.7335411312315044
Ni 5.7102349674741095 7.736062711165496 12.49695075320127 -0.07821141550442014 0.18759025775058014 0.009063652864165035
Ni 1.9436987334714486 6.567979460176641 0.6102013033795098 0.45401182397776646 0.4336965094591821 -1.9881327731578278
Ni 2.672913593936965 1.6630534692668526 0.37828077605578375 0.8060441834972375 -0.5163093964654076 0.09415225510439268
Ni 0.709037441534797 -0.1384459161560567 4.571754460279446 0.05037305313591325 0.42658226701190405 0.6414658132607985
Ni 8.574377567306604 2.3305853592942563 1.449064291257334 1.2099583194876646 1.1970094726364804 -0.08182921476266553
Ni 6.8380432408545575 0.7679389156599362 4.678662836511046 0.05631435832101269 -0.26028562853277754 -0.5874687902190527
Ni 0.6645961182256191 7.2493961441970285 2.5509433924830405 0.6130566659904861 0.5365010409219341 1.0327087815414602
Ni 7.2363190277631135 3.5628290635709527 3.9669881916204575 1.1117650615446788 0.497405360472053 -0.17803655262387402
Ni 7.815151586752984 3.897570574175665 12.710475289738605 0.1736664485806364 -0.230272627110455 -0.10394121617035647
Ni 8.102793698126593 9.032875245023945 6.649664701490528 -0.10302847454809999 0.5637825023457065 0.4345794262847677
Ni 6.933739419061104 0.6666316471750481 0.3655902558467714 -0.5720907651010857 0.44908559032074274 -0.6413794241945793
Ni 1.956349323553945 6.6227018835607545 9.295364099201244 0.07299464719017107 -0.1126873377941027 -0.6501309451349642
Ni 0.25962659010841915 5.205908394551167 1.5182504954689102 -1.0186826424656974 -2.2206090927878206 -0.1341766180161302
Ni 6.407478501640749 1.7974546451074367 6.702727302115612 0.05713119779535322 1.0697969446430093 1.482966280683117
Ni 3.3376413000795115 4.242067740690481 0.3048048057523881 1.0166496711960686 0.018121392191059113 -0.09131247166275241
Ni 5.777943757004602 5.895084228155869 4.787749219643507 1.8803724403516973 -0.8632193471566489 0.5645625750448406
Ni 5.4218759288289675 3.084447997854508 9.000844023535294 -1.1552732692399585 0.3285651296354664 0.645769839952791
P 0.17912473254399852 5.610173700437089 12.365177705687723 0.49905318048812114 -0.7431385451119524 0.5538966106905623
P 3.862876739250712 6.140300580106471 12.534818125681351 0.7850488121924931 0.11734951915646241 0.8673665365558029
P 2.4082040802236633 8.594224655190693 1.2988244677331189 0.36936956524633807 -0.24857708184659774 0.8164890329796454
P 6.397350769551748 7.877406284002572 6.051407043453611 -0.782683140173794 -0.8193411577164599 -0.6386180593993581
P 4.717435896860736 1.1944189844317572 12.600790862211284 0.7296433388389949 -0.4887898508889002 1.1785859758239703
P 4.123103188759743 6.140563755940326 8.043687128351623 0.10220777841901751 -0.1749509717200148 1.1338282119923053
P 4.799347106390588 0.9560815042763715 3.6184626198419267 -0.37924234427535974 1.1976260231745568 0.32232223404954813
P 0.05965288650593597 5.589627835338973 3.983032842456795 -0.5008087297266473 0.6848637206304593 -1.2487051012385593
Ni 1.4810719176712257 1.0262405515703321 2.5729920823427492 -0.15706663524042627 1.271894651981145 0.10769296990330485
Ni 1.4483201388995401 6.607591960686036 5.345881638046452 0.5373294503605004 0.18132447934652643 -1.4829819644124007
Ni 5.988466274030252 5.779023685426278 9.404928736349019 0.4788016293279367 -1.437808710309872 -1.6433946333069245
Ni 8.406979586917988 2.334306121083226 10.158455598845388 0.9219567130968573 0.8099802853268501 2.0210673191023196
Ni 2.4464281013337605 5.169381403817989 7.049778181721686 -0.44393669912995154 0.2131565362554587 -0.07002862258331165
Ni 0.3751988962910665 8.976764342240534 9.385363881859167 0.7652271494808757 0.604726548858236 0.12205155261782206
Ni 1.4449623782607137 0.9354176638044599 11.599311526595105 0.23550327938177507 1.0686414908823272 -1.5197945052550599
Ni 4.2440642470162695 6.787186779719471 1.558336712479243 0.4012412171439541 0.17193532482214258 0.01510728795508366
Ni 5.756363338628579 7.682120740254192 8.221270013510388 1.0453105294658709 1.4385473882481097 -0.6700143143224526
Ni 5.110312041660909 2.6974887718016713 4.87295466461091 0.3424298034327006 0.4117014932453297 -0.4718375393052777
Ni 0.9205890668211032 7.9268924157958685 7.186997153990258 0.4043874760824197 -0.8230929114494083 1.2584362124833939
Ni 4.902720758922667 4.5686326503882135 6.818774232302072 1.5775849339009669 1.0555558613429628 -0.3605859055164371
Ni 8.21621340748889 7.056860334160983 9.700497885338885 -0.29665311141821815 -0.4654434628534758 -1.155369685608507
Ni 4.796061945981791 0.3372462185407014 10.516650613760865 -1.381443701256582 0.033058730227181775 -0.6020605719902986
Ni 7.845425882674942 7.510974772990344 4.430882788937557 0.6571325732637779 -0.5282565415249548 0.917847318914174
Ni 7.279271138853828 5.88055510712138 7.076887107614392 -0.15998458021816964 0.9185235190455924 0.18732337724243867
Ni 2.5542666680126036 5.16027007494939 2.5226792154300024 -0.7419951755361286 0.017205565245009075 0.5216565197099338
Ni 2.3909524505630992 5.019706954585123 11.361134674448659 -1.042623983772643 0.7732042541490812 0.442715939348973
Ni 0.7885891435887175 3.3825536173810002 4.0971141214152285 0.8815227734515271 -0.045813458789688837 -1.5428950958282652
Ni 3.594401088604673 2.8302292173803494 2.5042696121004813 0.28986051397641693 -1.0285145409544545 0.5790026617295706
Ni 1.0261679513403033 3.4767524158432055 8.101942460429507 0.15455903832722412 -0.4991930485000951 0.6667559552861549
Ni 3.744157213096322 2.731229728707498 7.144055932934048 -1.3694034822625964 -0.6259036971564833 -0.2753710621109903
Ni 3.980452811782151 6.963750539149207 5.710186869821716 -0.49234105857526816 1.0566714630046448 2.628246957486738
Ni 0.9031786241573515 7.348540833329937 11.367988136163364 0.20579443946343268 0.026234508216496755 0.8279258140616773
P 0.31438622111042247 5.938553615885538 7.938571070298856 -0.07789542692589811 -0.5449936517739776 -0.4035986616325372
P 8.665545306165113 1.58281206502766 8.243704392092123 0.3958735250741376 -0.7789419279638069 -2.0164807281729016
P 1.660031484691909 3.007591579340402 10.3958492760104 -0.005320126661332774 1.0439239335309893 0.13378709588719537
P 3.8002499658222266 6.1979723878355 3.859322050487933 0.5792844546360475 -0.32150693723710433 -1.9124207270364935
P 6.997781896975149 4.237602826543717 10.390163770496281 0.6151084063131922 -1.3778025049595692 -0.5887947081193279
P 6.53795019003103 8.233628387667018 10.372179786015302 0.5495679014082212 -1.1728436740235544 0.4574100510260381
P 2.5322143481413932 8.610278381055783 5.916073862160034 -0.5778991442527467 0.43355766988847266 -0.24501147598252643
P 7.196198325643517 4.174531376706306 1.7171524381755952 -0.6028660986107295 -1.105563046499025 -0.04626160207070097
Ni 5.717367940074427 2.887801199793089 0.31887382282906995 -0.8894037188615005 -0.19613043401110739 0.6157414119115008
Ni 1.562484000619631 1.2006626042142232 7.17550816758822 0.1049442035135741 -0.6144221788794451 -0.7250539196960997
Ni 6.7221914237863 0.9313974260666221 9.014923023143604 0.2572455561548731 -0.6163199101227902 0.5208167974174579
Ni 2.539592346518057 1.4997664769036094 9.243071968517341 1.3354528363487645 -1.2852880425689155 0.15197353698823504
Ni 6.454541600756837 1.8485652070476237 2.4080933648728693 -0.8038577173688801 0.4887751956008808 0.9586137021982588
Ni 4.286226830605422 6.797731963131136 10.458249173720048 -1.253893330307718 1.3281920410212933 0.46750137382376905
Ni 8.253666051154932 7.151331383485797 0.3975597671398984 0.7587713665532029 -0.11869652010266007 -0.6370579140010899
Ni 7.5248141918395595 3.535023175469971 8.152176374592099 0.8754295160695956 0.7177702415504928 0.6351090178048353
Ni 3.3770632249850814 8.471811592333593 12.540702374325175 -0.6094337245259182 -0.38166149523981363 0.0336984206937097
Ni 0.1743004472585931 4.7663775269288156 9.871533137251939 -0.07018057478014365 0.5143903250658238 1.3634251531919745
Ni 8.76962681093997 2.406507049846743 6.180762503307202 -0.7834189898985541 -0.9401925193785936 -1.0308398466535214
Ni 3.7404001511923375 2.4790528297028964 11.234129647042245 -1.2664302864324641 0.688822191057575 -0.1363689976817587
Ni 1.2194116136191284 3.340309358533065 12.601535014569077 -0.8598314045210224 0.22076314495812302 0.08547323927315602
Ni 3.510729323496625 8.200177831681307 8.02030985428239 -1.677640441863672 1.563844958607055 0.39481680167484906
Ni 5.568991219953323 7.980507685672044 3.5650279430379466 0.05096234998047997 -0.4994344750869399 -0.31553734991723076
Ni 3.137936217328134 8.54719785618962 3.6634094222526787 -0.3512499728274918 -1.3583384826976865 -0.6325970500162589
Ni 3.274987301564765 4.4312094899726855 9.30541832355734 0.5456341135714539 -0.6198487492116551 -0.7045629988315995
Ni 7.116211022209424 5.997078476317403 11.558614560149657 0.7827777567701293 0.45750158229857985 0.6933043951986446
Ni 0.5308002468028991 0.17874448883922334 0.2940445441592631 0.3067799154395749 -0.5549965286229603 1.8673901691594161
Ni 4.755324141906951 0.17030198958976384 1.5826695870762286 -0.8562768544005447 0.4849542791928938 -1.3320798061114736
Ni 5.910992753560902 5.247054574919917 0.3536602230473094 -0.766683422311428 1.3944493694876305 -0.17093336592018948
Ni 8.17018486165071 8.834368066068041 11.848911117433689 -1.1538254810498385 -0.2504449882932719 -2.296161216292523
Ni 9.166958794858154 4.69939473969861 5.9620307152710605 -0.24356394490272246 0.7661964553726803 1.0044199618990959
Ni 8.138113710035544 9.002873199964595 2.4246035646842654 -0.22951338034692728 -0.31666657842566753 -0.0774529400718408
P 8.591674572110936 1.6104001524385563 3.703561886972913 0.11104440287404102 0.12950646623397052 0.18829551134772088
P 1.7069221582616794 3.379713133381128 1.5747797570778626 -0.2775251323395156 -1.1184463302195964 0.10311486361431918
P 4.705375183647222 1.1849265043555077 8.16266892283699 -0.01027309979123392 -1.369796861046273 0.8537936829673748
P 8.595495159216194 1.83262945655633 12.470160360817813 -0.6562946507435149 -0.5112268397361777 0.08431238619583545
P 6.483218691618163 7.783407136172946 1.2967208760680382 -1.4399856633565329 0.354145549207732 1.034425764232567
P 1.8437917419232384 3.1485540009698276 6.1087594101705145 0.00853040606851434 0.16638379887629412 -0.6494575732170234
P 6.923747812403408 3.902026413293675 6.109928273873975 -0.6270162134943718 0.4864822858016461 -0.6330760465352064
P 2.470014101064326 8.504998972485451 10.377891609112808 0.8059817056904183 0.27975813543509237 -0.9473023909504975
