# total energy = -340892.8002144089 ev
CRYSTAL
PRIMVEC
9.08811468747882 0.00000000000000 0.00000000000000
0.00000000000000 9.08811468747882 0.00000000000000
0.00000000000000 0.00000000000000 13.30137448584002
PRIMCOORD
 96 1
Ni 6.234364943831037 2.102080947866836 11.497721170075845 0.29480937334126006 0.0443327604791043 0.7835791696255021
Ni 4.555717439643455 0.7129089843604016 6.072490169861648 0.42603307937665336 -1.2375696534470297 1.1190376839466922
Ni 2.7145562670176777 1.487615331579882 4.760788023146831 -0.9863309656078691 -0.35694599477100464 1.321957115855175
Ni 3.4080430412886447 4.122041690610781 4.696968554749921 -0.7460171522113281 1.3557167288041232 0.645997639692881
Ni 5.254111795893879 4.245349231901993 2.812322570540256 -0.9923080091269104 0.36630815271219497 0.41532494893052985
Ni 7.3642266372233784 5.981551766970857 2.5377824376832523 0.26036019052445486 0.5067703466267207 -0.07248556876423645
Ni 4.694138515808436 4.417750769217314 11.490192575794769 1.251010095222652 -0.9671955303299988 -0.8905110929930663
Ni 5.7163060490960556 7.853003626147608 12.46015616018167 -0.714501340991234 0.4904680099222714 0.3214370032311174
Ni 2.079987740844509 6.611412649689659 0.0864924971419951 -0.29462425391364744 0.33951262978590563 1.2898430089294497
Ni 2.8615019948432674 1.585521592070022 0.7399124997966174 -0.6443734738258967 -1.2220242495132632 -1.277023488567278
Ni 0.4490046722266517 9.132010371141517 5.056051784129303 -0.12402050341873479 0.22472778603282587 -0.8660647870252439
Ni 8.517517490510233 2.335327413612631 1.5777421658211073 0.49246061487226805 0.49033045590314256 -0.18058708695986964
Ni 6.796292168593485 0.8558832060285427 4.927227757168591 -0.10754924523658897 -1.882767165836119 -0.21063068450981143
Ni 0.6333234544487515 7.457897836227545 2.2168074911858215 1.0702067784869183 -0.9620679792954462 0.5008359834201569
Ni 7.593056279187664 3.9086254913078977 3.779758750207736 0.5364691592427342 -0.5721337025238792 0.54748993583327
Ni 7.94221256079638 3.9023365158823733 12.565302921714462 -0.12170985300768718 -0.3438940466830529 0.6753627231185595
Ni 8.30539180350565 8.830421282274415 7.003705668086312 -2.2247794221154265 0.9644233669015003 0.4801697133200569
Ni 7.054776329074369 0.5553065331475717 0.5426349747143218 -0.8848019584234309 0.34880305394889605 -0.9865716208637655
Ni 1.9958317980116214 6.496338940386201 9.261454207530004 -0.5744893472402494 0.2920914601894647 -1.1349147601882648
Ni 9.358758834821922 4.82660687679463 1.4488254400896734 -0.6009971637227908 -0.7183258569436468 -0.30217532678802794
Ni 6.586247659872783 1.8998158653950494 6.952602289885058 0.05814395533058374 0.3561276126347673 2.2294400608158895
Ni 3.514264926799529 4.473388207880698 0.45879075421827736 -0.41662335602697925 -0.17212018713943905 0.19196293289697908
Ni 6.155443755109569 5.796735864870468 4.901103971242767 0.6545691834119759 -1.1521354949419256 0.42635703837497546
Ni 5.553601530247547 3.2872438196758216 9.135343891641636 0.25996038398287485 -0.7718405410323351 -0.2987914979174596
P 0.30076661447980546 5.565116171669715 12.670729597182378 0.957624598812112 -0.18961397304882827 -1.5941014434987515
P 4.130021055384785 6.136604093177325 12.462975293385423 -0.23966872361337432 1.1658806124421597 2.1221540965430163
P 2.5589677420393806 8.502776568342313 1.434686151119975 -1.1739050254085333 -0.13452217428100702 -0.41223602559256106
P 6.435266809086308 7.9200466488558385 5.985139754684726 -0.17011266979110704 -0.16660825618227434 -0.32364583795697804
P 4.768070329517457 1.0623551768304964 12.724866588096118 0.13517883402839947 -1.5460752933284598 0.49948641137079786
P 4.067185829818199 6.279132997221405 8.21068546822841 0.09625490326969229 -0.1882263486726823 -0.23410408504140331
P 4.65985814687046 0.8824532183899068 3.9011205261252413 0.8402593959263658 0.14794487544481616 -0.6400900159591943
P 0.3948158790586846 5.604494972997458 3.5599536062167836 -1.017738533384873 0.22552739911598582 0.20593816413014857
Ni 1.3823022575466746 0.9198444490159704 2.847838014276394 -0.2997543760513611 -0.13226448859508189 -0.928940086393226
Ni 1.9131753941169007 6.485769462900818 4.85872609203869 -0.04304669467782909 -0.006812394936143106 -0.3442653139795426
Ni 6.211026665084292 5.697548180196803 9.206931880549728 -1.6108071862892064 -0.14517014091315644 0.671894819174617
Ni 8.4096324799952 2.351776901358584 10.332707557538436 0.7037351036136654 0.7326047354601641 -0.028288819642364182
Ni 2.4199650265286876 5.250721929082142 7.042559176379958 0.02057782415135166 -0.33812860495418545 -0.17945708712048447
Ni 0.31271021491943624 9.112016518632624 9.177137405065569 0.8616538024417418 -0.19907151891730232 0.26561809648928447
Ni 1.2629934867572417 0.9931219184610647 11.425082595099559 -0.10807400739180742 0.3260091959828321 0.04355191644902177
Ni 4.261607869237634 6.929024084908207 1.553215161661561 0.4513034239076679 -0.7072855399690852 -1.0826581168763936
Ni 5.854127309685768 8.028749589700782 8.224346722360853 -1.3418212017689535 -0.3673638476702189 -1.6612542871961649
Ni 5.316483527606849 2.8107721381593387 5.027826826067089 -0.34346724355827946 0.3858256539198323 -0.3894059150719229
Ni 0.9003977010166385 7.351476012191571 7.003772011324183 0.7107380172940598 -0.3331041551564005 0.03891313212542976
Ni 5.076693619221779 4.707634366251938 6.958108778628303 0.14227199342975497 -0.0022402021844284 0.3073463294660062
Ni 8.05097911844476 7.166460171566093 9.14364406686726 0.9945045025575969 0.9211712410810845 0.2932749389746046
Ni 4.535232828936617 0.4968654110755541 10.505824329486689 0.0809360135244348 -1.1815800254552877 -0.3153247196857924
Ni 8.198470133156956 7.120056257515906 4.819792608335009 0.2777169366353475 0.46546763122319196 -0.5439865506657018
Ni 7.418564475473685 6.167394626041021 7.060330076014454 -1.111781516604911 0.31526738408529575 -0.46404658250594916
Ni 2.3534672907070635 5.615164419745386 2.422113456861916 0.6544290582896858 -0.7105917215241827 1.1446222172840157
Ni 2.28294352003933 5.339640044058058 11.333675245486285 -0.707401239611343 -1.2291814293833345 0.44003684985491315
Ni 0.9199262420489612 3.3079738094816338 3.76887755038551 0.5030905837822884 0.06035638960087024 -0.40521717107256666
Ni 3.4781487586766464 2.5851142482521468 2.9254114355764678 0.4618755429965594 0.44138590768363983 -1.5375423161567843
Ni 1.0709979739832045 3.372290397756833 8.227498480565435 -0.001296864434552605 0.3346452743912753 0.2001480398109327
Ni 3.476267518917855 2.8454069435736082 7.05868058318247 0.3762197553989521 -0.40726608318179536 0.06237162025868614
Ni 4.157894303405138 6.959960027608331 5.826347669247617 0.21107831357019133 0.5728906352945617 0.5255072609145917
Ni 0.6225458591349802 7.550560254491488 11.205876357872395 1.4938603018878016 -1.2818898155206437 0.30660765152776875
P 0.19506093388824153 5.61028410211026 8.13593208894357 1.1264563450082665 -0.1141199564755712 -0.09543883512630016
P 8.603872757119099 1.715836069854123 8.176900401545769 -0.9366505676636063 0.1784381589376669 -0.9997624085224266
P 1.7055483239268199 3.188092487461264 10.478982582493499 0.03338063234297477 0.4672666321051437 -0.7675064324333556
P 4.391967787595618 5.958604277159513 3.737858905840917 -2.344290981920214 0.5839510068737814 -0.21115801776819118
P 6.823347486283929 4.034259589981962 10.69426548057153 0.2645732001645379 1.4544103234222951 -0.7828980843980775
P 6.203728908918546 7.803073523564034 10.322545227595052 0.49079222603090955 -0.004318939090328045 0.5109015951862749
P 2.38813844858044 8.517671988461437 5.682852698602766 0.9536471022216028 -0.07991014336308173 0.5164325523068333
P 6.852683920783342 3.896829118327651 1.5412306647054348 1.3614981113725906 -0.09872007698073319 -0.960125767967411
Ni 5.025818352701423 2.728679197380778 0.7414811084070878 1.0466225634090751 0.2118452736432029 -0.0631295814706332
Ni 1.5229226574876322 1.1232182814905232 7.0709704407950955 -0.38958949183763875 0.18222667944582166 -0.24747253592850932
Ni 6.722805672508525 0.755950295943183 9.462531473400466 0.08795821047853884 0.9436092583696265 -1.3647783247857592
Ni 2.639424822158123 1.5359368378479663 9.2610025282256 0.12521349528557144 0.08488445664922155 -0.28838598631341944
Ni 6.307151655078185 1.9207185293816196 2.750271649278905 0.26304005134946307 -0.09691002035518793 -0.2158561945748089
Ni 3.9269380425830884 6.916800570533452 10.517676139967074 1.6625280117022656 0.6692105874742346 -1.3988415850180553
Ni 8.273837869000706 7.222824659411619 -0.024383411946073158 -0.50705265375383 1.3372394959355423 1.9936920124131603
Ni 7.777154220220687 4.027625266194921 8.214756034836926 -0.4540398490022245 -1.26033985726401 -0.3056468302763962
Ni 3.0191807862202222 8.424209816097138 12.216009409572617 0.4926796728616096 1.030025321172026 0.7643077229903998
Ni 0.03431490377412711 4.893104612616254 10.219446018321465 0.5348467931479628 -0.616615329876022 0.3057440179758928
Ni 8.721009468476883 2.5071291353526854 5.898321903033722 -0.40455691178074843 -0.2186458415048041 -0.13600698635664962
Ni 3.467424783240058 2.3564754566981745 11.576426061665627 -0.06059653063613435 0.5981923472841439 0.10801615757067848
Ni 1.4168643580427298 3.1528578664717277 12.673376965016852 -1.0801109249745076 0.8186963250436093 0.6278520791321057
Ni 3.2623060327283655 8.579880134108427 7.796627323752872 -0.048158304872781575 -0.7453872319368131 0.9581671015791432
Ni 5.658196643213389 7.735548830772636 3.5428879442889656 1.0503190384240555 1.1000256616205635 0.4087953753421283
Ni 3.2907245676353245 8.056959097967875 3.504726041529832 -0.9807221040615238 0.520707268422787 0.780947645539926
Ni 3.424029035180983 4.09959404711216 9.234426154183891 -1.0222384781377556 0.8694614714116188 0.27407265501454087
Ni 7.57421661725542 6.248742341407886 11.366383370567881 -1.4829431407546656 -0.9231494478533779 -0.5364395915563793
Ni 0.4248920861009263 0.0905894192833629 0.5890861469613472 0.9652558901051249 0.8157575541302595 -0.8141318456013785
Ni 4.657704263668365 0.28353282242861705 1.7160232850185246 0.46403244143856215 -0.09423298774365707 -0.49172322248561123
Ni 6.183844113786974 5.644737145228994 0.26133782852079007 -0.4855867705705702 -0.2975098029915586 0.15252760971949217
Ni 8.009864487194653 8.96733373138645 11.213790288220006 -1.1650367763846259 0.6291872530037615 1.4744849826849833
Ni 0.11677954844705787 5.11703576071586 5.891870250353693 0.2729488258227428 -1.5012491381527049 -0.5594882458457268
Ni 7.907032468495503 8.731088187764321 2.6897375343737977 -0.2438017719451414 0.3792294887595533 0.742231974137283
P 8.434879262845065 1.4601601368392605 3.7480475913171536 0.809628044193754 1.559563557622882 -0.7441842127676473
P 1.8399251890161368 3.2493918216305757 1.602562716087943 -0.05003958105589447 0.5765850534270134 0.6632664540756578
P 4.762980985242466 1.4140016018880472 8.34772969500471 -0.033310441226671664 -0.9052951932807763 -0.31515836931125724
P 8.546735779517547 1.7432185596765304 12.54628240629816 -0.034213926877547526 -1.1183635406978032 0.5543676367897097
P 6.452488786588287 7.712828543830711 1.4260669830656865 -0.26965061468744533 -0.5885784783434637 -0.6879824687650989
P 1.636315065557388 3.231660909701098 5.960186517942148 1.2493851580247193 0.6031820871892515 -0.19197630263341775
P 6.934486041889046 3.9076439749120064 5.995382060038145 0.4564124629994591 0.9238361895077574 0.15334882006920686
P 2.2808623417554497 8.57649935541147 10.053378897005553 0.6060426965664982 -0.1227588630974918 0.4169902524480948
