# total energy = -381183.05283643084 ev
CRYSTAL
PRIMVEC
9.08378602323044 0.00000000000000 0.00000000000000

0.00000000000000 9.08378602323044 0.00000000000000

0.00000000000000 0.00000000000000 13.29503904816909

PRIMCOORD
 96 1
Ni 6.5622542568506725 5.095349973542503 9.955445329344771 0.27682244984553617 0.14011663764964902 0.4479226803608931
Ni 2.6471242770729364 2.661167810394676 12.36914627995668 -1.0519064375158336 0.06851527126257877 -0.4590301031279643
Ni 4.1361203281938295 2.3657358348300352 3.4770516774572067 0.5917658749325099 0.6292191346829615 -1.427411169125632
Ni 8.58749345323822 2.2154082585418933 8.99917245637399 -1.0918819494675067 -1.0845257662127514 0.4582150634258367
Ni 7.89794324984026 9.04347226446161 1.3405252007130635 0.1517861035677773 -0.8796944619935367 -0.8921902804677021
Ni 8.22601326888809 6.914523482088098 6.116781752638878 0.5318925956156453 0.6167246017603766 0.23011707536919726
Ni 1.6625145333407298 7.312456900086444 3.495092985044727 0.00708158943712974 1.276727297483098 -0.20789117409146132
Ni 2.5218861180128957 6.0998622926355965 1.3565462742703418 0.4795089398076064 1.0687013975859854 0.10719057634558958
Ni 3.32610095344211 7.01758811926045 7.604695924834402 1.6898125584498316 1.110199773940088 -0.7730741563291201
Ni 5.6160053418491955 5.920448433232184 7.263957657681464 -0.193982277319853 -1.4453466705581302 -0.6422566845932101
Ni 5.299944088035091 4.181757269596429 4.252378256308287 -0.09869899393481067 0.42338792844432244 0.9044811820199131
Ni 2.7658221101357894 0.7612185506479794 3.996262723772852 -1.6458623781211268 -0.026835117914973138 0.7991628829963721
Ni 3.2063039822602857 4.652133881799739 6.930438275347922 0.09557304671131926 1.007067169713956 1.0211185056006995
Ni 6.433264494128356 6.827191962453425 4.627737557451617 -1.9293599259939933 0.7247217331676615 0.25121426235912864
Ni 5.516356208253152 8.073196735206574 6.691432962324019 0.04067588045280737 1.3077875092230122 -0.17273776611877992
Ni 4.8589171887441625 7.512881556755825 0.7028697589669561 -1.3010039106422755 0.5750521617222547 -1.0915459062843267
Ni 7.147686103887845 4.827323780663301 5.734549658926836 0.9474556286989102 -0.4979648325199489 0.013866473569447087
Ni 1.4309052389653143 6.199456923514997 5.79042856916531 1.9773544515954011 1.7834112550435994 1.4074090149720924
Ni 7.051143625140466 4.180857974771816 13.213460580777545 0.43348233656584706 0.10469557783787775 -0.19134972479301238
Ni 1.4236745452239787 0.01909866029039933 11.416290727319433 1.327524068419991 0.43914801949205656 -1.9367379636256192
Ni 1.197279344074099 3.066913284445219 3.341655120393478 0.8209154441821152 0.6322540648545434 -0.8862762289761124
Ni 5.277407214703114 6.11077191975035 11.531292367815265 0.04478835995928415 0.31936829362754676 1.6021615947990666
Ni 1.9749059375675233 5.571658298073818 8.767466873865839 -1.7188760514746915 -0.6529193065133787 0.44699656900219786
Ni 7.392657647626961 7.557410276253345 11.124105296909507 -0.12444627810224375 -0.26414793970166117 -0.24227633643955052
P 1.1771315064883174 2.568158924443 10.547273978558637 0.7257092938919114 -1.470127734157552 -0.39488210769514576
Ni 8.479514487781872 2.635297187561355 1.363858722086642 0.1934012080054024 0.17719605900044966 0.47735332691718435
P 1.0608317929577669 8.723641239413016 5.013559563433226 -0.47994782711723794 0.4219751072571959 0.226921451250035
Ni 0.035573014774427016 4.287656048034229 9.963807862835063 -0.1730781801773342 1.4171033594417208 -0.2938752915627648
P 3.464301675277133 4.091727865487917 2.0436066118963176 0.8961438657988116 0.01903156271015432 0.2586074694994062
P 4.1103950459382235 5.751944200943524 5.2162551666294075 0.07002219482540845 0.8114134182289509 0.8417812318875308
P 8.086422727778665 5.513140547971202 11.488762081261328 -0.0632283118320266 -0.31060314584040705 1.4980033775218975
Ni 1.1043794635557094 7.6990174178785695 7.915547627316024 -0.3342166714942889 -0.3469366901641186 0.44143295887149137
Ni 8.771676300347917 8.865321051327097 9.62469105150226 -0.7587461697422223 0.09014184839341895 -0.35833927557410544
Ni 4.664633171483253 1.1096934784284247 5.8158749791874245 -1.0972457848825812 0.7926219965540607 1.6341476607873597
Ni 7.359111225533051 1.3074202506239643 3.0942745565787324 -0.5510884518178057 -0.5260487352403586 0.45178627708135743
Ni 5.325269683701979 2.805400166204883 9.25293528830766 -0.2987495889359306 0.5211533548212702 -0.7745165452026015
Ni 9.053237334526855 5.678374617261267 4.181954387754955 -1.441027988578118 -0.2667025878027149 -2.140825447700274
Ni 0.7952863820644425 5.567252661811824 13.116167781297708 -1.1668332061634163 0.6376821778486501 -2.1171131916849992
Ni 6.676337526571065 5.3965774046435415 2.8638843062989037 2.1758284461380204 0.7035715814526077 -0.8586199007114246
Ni 6.191862878329373 8.953161262983775 12.474855207264842 -0.7984614860539732 -0.008267639325430922 0.26065149651262853
Ni 7.376206910986812 0.2281520053830134 5.256472721240448 -0.31516968216516694 -0.48307634544389055 1.3018361767355837
Ni 1.133692841323661 2.7746061313014567 7.410349229449354 0.7128830886615206 0.46259570899203556 -0.009723397935350996
Ni 8.241782721570198 7.8942552326807345 3.4862381103474234 -0.053338563522140406 0.7836601593750827 0.7496758320098379
Ni 0.12781250404282268 0.5502130999209268 7.053603514418298 -1.1915057692094317 -0.20004750967732646 -0.27249476900445974
Ni 8.367774834877137 1.0908537060420807 11.753917797730654 -1.1623474024779206 -0.6743144843597032 -0.4160803390393157
Ni 7.81902331614086 3.4087815745898937 3.8645351079178236 0.08020633444726187 1.4447288344684732 0.05556488174949785
Ni 4.369555463576793 8.101710739797092 10.850666075889022 0.7628074842957895 1.761096136486167 -0.0697368023745057
Ni 0.10062019033090336 7.888932134021912 12.81462332606153 -0.9787261566774177 0.12291595750064638 -0.8929389857082686
Ni 4.145612884675859 1.5939864509479724 10.902437298049817 0.059249272579620545 0.08263062761803834 -0.18080511650794667
Ni 1.6444832179179274 0.9373195532580951 8.940102412076056 0.2851975612831088 0.4627070377589192 0.9797484272943447
Ni 3.605509130313641 7.99344109318531 5.078346034328425 0.09730082803570339 -1.4978635095099238 0.5675427407190872
Ni 7.8270806344179515 2.480936410241614 6.5124024386943296 0.04228539103177234 0.9839023015617185 -0.547378092845754
Ni 6.918020739739372 3.013091851760027 11.024498857108169 0.6061252289779755 -0.698927654922693 0.3705566435759038
Ni 2.9555369829847735 3.1555710368515437 5.364561600508696 0.09193519284841586 -1.8825085128580934 -0.8507818927242444
Ni 0.08885396218624021 7.001309974556338 1.5717929447308483 0.3817458274235038 -1.4977866335254013 0.9602743777301332
Ni 4.34050551560595 5.235367452598967 9.234082798620765 -0.3615986630516676 0.3540529894939257 0.40413627930356205
P 4.885977787557526 3.9660900198391587 11.224070546262082 -0.5050309953381109 -0.7711522567160589 -0.6122130870432683
Ni 5.361486738911407 3.556320428543124 6.710139203054587 -0.26267906846561856 -1.4535423189950452 0.2951531298339239
P 2.7048971567147624 7.453128411742626 9.710976118977383 -0.6392716338229572 0.31435207135987797 -0.2930779924724501
Ni 6.948351501551331 6.592439678084916 0.22678307881665755 1.727579235675644 0.7755699261677804 -0.6668032635843225
P 8.885586978132274 4.788654103204928 2.1322979743112387 -0.6164001285414222 0.0187417993838774 0.19499503485508352
P 6.993688678012393 1.5211344863681853 0.2583056333658817 -0.038398397272540324 2.105019750855575 -0.822978497358731
P 3.367177834218893 2.12261738345679 7.399593118319812 0.7115314597296327 1.2478016155876832 0.6052402552698609
Ni 6.255140532352166 0.6417613130665643 10.170944529059057 0.4948751378510316 -0.080100662107333 -0.6208946739776662
Ni 5.104261167713672 2.505462632731068 13.017199023281096 -0.13540174867248295 0.4170591580128172 -0.30892498680703573
Ni 5.997978547657181 3.1785893508472016 2.097611537060875 -0.07140673387776089 -0.42864917684326176 -0.9121435836611774
Ni 2.397111232044322 5.122019969553259 3.8013437498630496 0.5159584408838921 -1.1115747999107437 -0.11333808400422415
Ni 2.4882216066995926 0.32497698987832635 6.683815299294517 -0.17677516941294716 -0.768954734844108 -0.3491632655017922
Ni 2.955455228909809 2.041017732855764 1.3211731027902731 0.35376682571207463 -0.5895279867409267 0.9817415464649738
Ni 2.860874847961586 3.363244554834473 9.222436476452717 -0.07569764794363093 -1.294268905911287 -0.1625677675643136
Ni 3.3274271862137623 8.64177815901488 2.0812452796315233 -0.659326238480987 0.4934260641093308 0.5994431889721096
Ni 4.088684797142003 6.645988597186892 3.1317524412998403 1.8807781604305478 -0.24606665671991812 0.05467116629063488
Ni 3.90985230004945 0.29183752140201963 8.85299344520101 0.8538687591796842 0.04587413682429519 -1.010636118012137
Ni 5.7699300974357906 7.317743663600838 9.109667630582036 0.3011468855235136 0.7855540339636858 0.04482486962417441
Ni 7.368640117159509 4.174699167791131 8.128520626113898 0.49240353638208745 -0.37965397789148164 -1.101530528300864
Ni 2.834441030389619 7.064524042076381 12.11481207787687 -0.5299580975970937 -1.2655324572085431 0.9980371983012036
Ni 8.148119803018805 6.590886350660584 8.991275012732387 0.41506526751124 -0.5787087846382356 -1.32022804897921
Ni 0.920378292168157 0.9975813902932956 0.21896375573557514 0.4160248032110319 1.0033359848062977 0.8384981902608849
Ni 0.7930563125751234 4.014143248346276 5.495291816649154 -1.0914620883212687 -0.6260384229621347 0.611011096315367
Ni 0.783491994182847 6.691816298097743 10.723193305446609 0.07946482829554702 0.5413689105371966 -0.0038075466715482816
Ni 0.14627257416988548 1.7729733724043475 4.793566614731705 0.5851200874812181 -1.784506030769675 1.0024584672973509
Ni 3.7712791429840316 4.732743399715079 12.983004927237742 -1.6266022443399342 -0.615771493818488 -1.0762100472582046
Ni 1.4663047534250937 3.907372426442183 1.0852344759561634 0.7674367555376848 -1.247973622389173 -0.17387573637796505
Ni 5.281304158943105 0.2741977171604375 3.869494855132358 0.3480463782885296 -1.786660615218833 -1.5167240938598523
Ni 0.6611206780182404 0.8301054425919714 2.729417928932553 0.6414550146275211 -1.044055059792215 -0.7736174304270999
Ni 5.240881310766041 5.347379619086917 1.1023565043896348 -0.42800228728788225 -1.2185820566009335 1.6261957529301347
Ni 5.2913871615221035 0.72250345425907 1.4097527346360759 0.30028633729543125 0.26202215160791004 0.5910058568380337
Ni 0.17420158293509913 3.2049686657025265 12.304651398595524 -0.2621249957343615 0.8819053536019262 0.4219064588027895
P 6.382340789211363 7.643006792741541 2.209064142324621 -0.19497806557421904 -0.1877967173344314 1.0694557592535066
Ni 6.341699930167726 1.2494929466183156 7.721824988036541 0.08463120298783489 -1.112541277589071 0.3424388022937651
P 0.09649524305962139 5.25912155326931 7.366010361081473 0.14248230966834816 -0.5367087860573659 0.08982894513869046
Ni 3.4634841345274845 0.42701243408473233 12.806393415848401 0.8638024733536285 -0.49983068208409404 0.626026852997909
P 2.0350042664527943 8.223460724991966 0.4949264525366427 -0.7324512406014353 -0.7324954635758094 -0.015002129835787066
P 7.518395414922897 8.231617964916236 7.6080996194887724 -0.718532316527498 1.4376770698280144 1.3416695066824378
P 6.24992643912663 2.187630040626059 4.938043324388196 0.5130602934004906 0.6550800616101234 -0.48103308976161674
Ni 2.233212479312016 4.736385997944068 11.143955186310972 0.0597624647706132 -0.18672790975028486 -0.06882020409750728
