# total energy = -340898.28322458285 ev
CRYSTAL
PRIMVEC
9.01090800252390 0.00000000000000 0.00000000000000
0.00000000000000 9.01090800252390 0.00000000000000
0.00000000000000 0.00000000000000 13.18837469823689
PRIMCOORD
 96 1
Ni 6.362457838639137 1.8853792763353687 11.410727034694597 0.5485574578658359 0.5320196081118127 -1.2548713779502711
Ni 4.5290264458980065 0.4075282182517625 5.992401480565456 -0.17872766515362767 -0.7366171990536668 -0.12113546856145588
Ni 2.639159737467247 1.5682583973532263 4.72703033219863 0.5747881094275907 -0.35395528757379685 0.46738310307834985
Ni 3.4169993224840547 4.321216889705407 4.9413412583848535 0.13409871359034325 0.15704683774608436 -0.3492062029245857
Ni 4.956152487571991 4.447621904633419 2.546385232712769 1.1818772449807322 0.6342227585451399 0.9168250482972469
Ni 7.277497506154797 5.965680534509887 2.595366725451982 -0.28657927212198386 -0.19350430924216996 -0.4228235713004202
Ni 5.094992555294461 4.420886541125334 11.464403210409108 0.457446046470296 1.4666654866405642 0.013831249456137472
Ni 5.446336862184828 7.826694316094376 12.268076167061011 0.8947588125258268 0.6515327105784973 0.9761758794517382
Ni 1.8243483976564823 6.394401506868378 0.4176754015501966 0.8936653223513318 0.5623244297429412 0.3688923684996034
Ni 2.631401345832444 1.5354947365121763 0.3960068715104626 0.7074999699727363 0.19917204905090863 0.23672789581749554
Ni 0.585390923388492 0.14322207219634212 4.6738939098626595 -0.15364244005022573 -0.25898336478158623 0.29287153288859885
Ni 8.54320566247417 2.2857519326856246 1.353773560646036 0.542615381349788 0.5143399314438626 -0.04032698175382087
Ni 6.76912911955702 0.7744857251254328 4.690643385322324 -0.003705473876045231 -0.5054693684271102 -0.22576651170998535
Ni 0.8975224627095538 7.374481907043746 2.553164138667313 -0.7121765495127993 -0.5177497284563599 0.5112366099281905
Ni 7.5216660754094535 3.7930785713460073 3.8475765418538925 0.6359050313435693 -0.27823629947392725 -0.20755975889397157
Ni 7.637023717347605 3.784292936219488 12.677958034435896 -0.10079855677631672 0.6142663700278712 -0.9068921054542509
Ni 7.807726355128917 8.672854604218125 6.788478241923354 0.5039781285935643 0.36889262560991953 -0.21973187548013126
Ni 6.926189242895717 0.5799185990681482 0.2793399446657635 -0.3881388754340412 -0.24494334174875237 0.06662216800492397
Ni 1.8549314188045911 6.423281466438115 9.264609030710565 0.45019862087926343 0.47849258272795014 -0.32464599708671826
Ni 0.14862140816332703 4.864529576837175 1.4509057404232677 0.07866958608776128 -0.7950128653837405 0.4334106027876471
Ni 6.461884195547868 1.833575567266283 6.891216107456695 -0.48054766548476596 0.281644810934844 0.2524414498980104
Ni 3.5516312962536163 4.26392553777268 0.6095059149019182 -0.7683988623406379 0.202326021298858 -0.7913223039060308
Ni 6.047373424824782 5.55098954563036 4.787498930229419 -0.8973810806400223 0.31182493406265005 -0.22418245505231713
Ni 5.323887635790706 2.9222464176054275 9.143143795450612 -0.5114325279890805 -0.23067037676950597 0.08294533064497973
P 0.16564121085765462 5.502781188782281 12.447095872762093 0.04286286080179715 -0.4365419493277772 -0.0013943092443653407
P 3.894676557039857 6.168182665995287 12.711034373778373 -0.23208139818441967 -0.40785820823983954 -0.5013152370494205
P 2.37175203693947 8.426072871695068 1.4284721843094397 0.8587975639398694 0.4070187430576796 -0.3767522308636544
P 6.174697552350645 7.715238397243181 5.740701594553113 0.1040278623468918 0.02879429852387299 -0.5702359712805342
P 4.694133309921813 1.0735595579215316 12.526739682638249 -0.25439625963153606 -0.7251433940861125 -0.2523391199921913
P 3.9759098910558266 6.056267190845166 8.301817859373404 -0.9023685065522845 0.653395474818849 -0.5995771434468127
P 4.680580904557418 0.8482616318278564 3.6711690983304273 0.5706455480141268 0.9323195443884202 0.39511710652408727
P 0.21650057678698742 5.514062845375514 3.715152240500738 -0.37577546877268186 0.6180528336534968 -1.1307333751170656
Ni 1.4099097141959736 1.1111891089864998 2.5471232260633965 0.1294378177795642 0.13608977587844304 -0.10026788108382732
Ni 1.7389159805954277 6.5729976999018245 4.878247782905494 0.47747339743481637 0.056564269548289685 0.19004771815213722
Ni 5.921238737131433 5.624410422564595 9.10841936106748 0.18809290841861154 0.6760520358761002 0.7662404212367384
Ni 8.51336153576747 2.197390970582397 10.01476350253484 0.05655218536343163 0.7486039391018978 0.2968094344904243
Ni 2.3016561849915798 5.08593659293328 7.039466266217753 0.12153758909588101 0.5825767522340741 0.4498178405010769
Ni 0.6041597432910835 9.084166502664376 8.888779383995281 0.23960598869623895 -0.0390339739740102 1.4861431357492019
Ni 1.5619507618777766 1.1764100598026495 11.29142441731194 -0.8549841037310502 0.09962613373477036 0.04810251193418168
Ni 3.9961574009320198 6.76634474904 1.7866422538750264 0.7478310654916153 1.0493057666681929 -0.7756483448141996
Ni 5.633682646713505 7.813340150702067 7.941234668693067 -1.1535765982638264 0.1518228703429837 0.14935049754309118
Ni 5.17309009338835 2.739099716121836 4.885936790550068 0.21303080931087184 -0.036390108593259904 -0.3126417735369906
Ni 0.7373283456303411 7.436819367356833 7.17711328974458 0.7094635214570103 -0.15933409111836427 -0.9491592416535781
Ni 4.965649984416454 4.563186797451478 6.906290455152237 0.3102938421301043 -0.10354423784225393 0.401140944120664
Ni 8.215190595935143 7.120833862760271 9.136140517891297 -0.7602978305000583 0.23609463310887083 0.6035988630116959
Ni 4.575072184868789 0.35147226178144136 10.331587922649637 0.08445739641413197 -0.5194664540371505 0.12874490547759762
Ni 8.039613057022091 7.4617525493005035 4.3846726036792125 -0.22650416120695832 -1.0577351283824685 0.89232989136936
Ni 7.175962596815701 6.141717629721866 6.889211180466284 0.7643239209403159 -0.5888191335993601 0.4037776104125626
Ni 2.5622606501136937 5.190841581797829 2.684809897584641 -1.6746857301107223 -0.09920575836790012 0.24878354143044895
Ni 2.181748034603282 5.164538741865203 11.492323508295796 0.5414234179242159 -0.08214520334118755 0.0742665719240592
Ni 1.303391772831273 3.4169722897605883 3.761508855791382 -1.4518119665674996 0.0688374304886879 0.44712692393247516
Ni 3.6453537485109764 2.5431935691621916 2.7148666817159404 0.16568754414021789 -0.09929214743411932 -0.23226471783981936
Ni 0.8892324275132485 3.393012285861702 8.187633437633686 -0.05202061604166525 -0.20984958336941278 -0.26122228141443393
Ni 3.619798813927583 2.563819537166912 7.0276367464289375 0.8300791129592543 0.3612289384170747 0.1394458368348695
Ni 4.016558096241188 6.852912540486636 6.16300680054229 0.04093890430620691 0.3434937259208407 -0.1055476414255279
Ni 0.8164693468500257 7.349332463312346 11.421791528409317 0.023862922660526645 -0.0804287348707131 -0.3239168322301776
P 0.12283579433968883 5.559459798983108 7.926015245381588 0.29045418169635784 -0.95351777573259 0.2569246824803446
P 8.453646249630607 1.5895061179976695 7.759511690645361 0.5672529773928101 0.19175518776154715 0.9771374720340592
P 1.6182509139500758 3.2054772722687614 10.36189521001839 0.45391437916795374 0.20330843981678534 0.0808406255971511
P 3.9270257161210913 6.237521601686123 4.038649237857778 0.5459788985053822 -0.4441277320948351 -0.879601388059098
P 6.838999698809358 4.0243975860463905 10.313242615414683 0.9253968491266578 -0.39810241440465627 0.9007800790192422
P 6.250839723447144 7.742199033446817 10.140923420770092 0.694384772747017 -0.6178522876069166 0.6286594055247495
P 2.2463202000562426 8.49708783624081 5.933884645168927 1.1084714783950718 -0.29165874352742027 -0.634570885913178
P 6.853390118601205 3.8672113099981846 1.5668842339103604 0.2929075283328568 1.3389413091179974 0.3678263891289343
Ni 5.414131877628747 2.9152539531355006 0.21253217298214735 -0.133866285864563 -0.13973020084450774 0.8077313413916734
Ni 1.579540053946459 1.2021722452659502 7.019670202823446 -0.7705830144761503 0.5075324216037259 -0.2105844046529083
Ni 6.968792815078468 0.5201059951268058 8.978605519710378 -0.611271034844973 0.2762017855424017 1.0611999470026177
Ni 2.88344544852359 1.7385014788356123 9.26905321044841 -0.35927181469070385 0.05585798750988445 -0.3644705852828239
Ni 6.357438762982244 1.9587641096383144 2.4857715590660443 -0.3147433932610257 -0.2603427070229581 0.3971166534526193
Ni 4.081274436219302 6.827069256852937 10.567672806497113 -0.23521994381340136 -0.479740081981806 -1.046019125497121
Ni 8.314193440176236 7.183369563045443 0.4600041410443748 -0.5293281773225788 -0.3140157710663818 0.026947218012805207
Ni 7.34813401257201 3.921195658760212 8.152433227317548 1.253211473749345 -0.18047138731761175 -0.2637751297432747
Ni 3.078387428346273 8.421369177811949 12.316015998855992 -0.10636936599587488 -0.2770397080626648 0.896034851024773
Ni 0.07093927292003568 4.891706474828541 10.129555259461767 -0.836966841218023 -0.5876839915536524 0.3608319600889721
Ni 8.690660158074538 2.396613131620563 5.703932585185153 -0.12742490111459345 -0.43992603530866176 -0.05833036030977696
Ni 3.6455249557595955 2.73554941843994 11.555626937927407 -1.337071088678478 -0.6579476129659055 -0.32916085423793634
Ni 1.0880671195150657 3.2706892121770887 12.647202904948387 -0.16269863671522303 0.31683370013115114 0.19827910492299403
Ni 3.0926967499677214 8.493798854885755 8.037562174401787 0.20019277700593907 -0.5159211598880534 0.5193538397186862
Ni 5.6692306780715755 7.765095750222699 3.499732972652399 -0.49066624197600656 0.3330645601677167 -0.009874835911550734
Ni 3.08237926051145 8.33596379347436 3.6453059906995193 0.10311280673179016 -0.2125430710411759 0.14713677772122402
Ni 3.348867848441376 4.384960051638737 9.5231409870336 0.39325871315910976 -0.6639241422643147 -0.4226245679157367
Ni 7.249680833708063 6.172075378174422 11.561680465802274 0.058141384227422446 -0.3870415286048044 -1.1489396137124472
Ni 0.7080383897546995 9.019468184501907 0.1254868034209421 -0.4529088207215748 0.41120989832089183 0.23391485184873262
Ni 4.682401107937476 0.3636324818873261 1.400091429033045 -0.4674643499382466 -0.9895759549077281 0.5441320751046307
Ni 5.8952422680647585 5.648181197399218 0.3787789168454452 0.09863137392166885 0.027037977954398593 0.472366158115238
Ni 8.021447066852796 8.79749348121301 11.271615738646682 -0.5753439819310606 0.3311341759142233 -0.43233973832097156
Ni 0.15966247351771054 4.775294556675206 5.7258516184623405 -0.6179098803177294 0.12155687236959065 0.8839290689001744
Ni 8.052768982442315 8.903659997172651 2.3703724669519106 -0.23155175093319477 0.051661432930033606 0.18848525876102376
P 8.486707270429784 1.7279406948681453 3.5470132059948054 -0.2607093463337575 -0.2703288717013925 0.05329125522397273
P 1.8715385219206677 3.2629848859892183 1.6685534057760047 -0.47598241471158675 -0.49440385464156783 -1.1521974585281123
P 4.810743468047233 1.0097983741725576 8.213877706665466 0.009806701677776659 -0.000416518712128315 -0.5893942893765398
P 8.423892232002128 1.7147847694479217 12.323995157732437 0.6594828186635093 -0.628654006208111 -0.25295438497868694
P 6.359619402675184 7.6878632592797285 1.3494348085297088 -0.16645116177911978 -0.31702884686109273 -0.12087167337710797
P 1.8213117217204444 3.1928800231335064 6.018541223066502 -0.21295033378192357 0.03452657302195989 -0.17909276180253025
P 6.865735062317443 3.8080907437775777 6.015428855504759 -0.37283875474186107 0.9395528289120657 -1.057139660890315
P 2.3739777311715216 8.439102644405784 10.24615370340702 -0.20946160390237473 0.01710117845666087 -1.0097035788955386
