# total energy = -340890.6525238279 ev
CRYSTAL
PRIMVEC
9.07968813631782 0.00000000000000 0.00000000000000
0.00000000000000 9.07968813631782 0.00000000000000
0.00000000000000 0.00000000000000 13.28904137644215
PRIMCOORD
 96 1
Ni 6.545737867205158 1.7020147844510127 11.535286189604195 -0.46711185169483427 0.8974335311445125 -0.3490629924785021
Ni 4.583453821679165 0.2559727526381869 6.084506960140342 0.2636761422715652 -0.08035134466555839 -0.4904610679437359
Ni 2.4625385443289622 1.408014481865704 4.980586670186199 1.0991795115701846 -0.008908872453855625 -1.1428594689566383
Ni 3.453005406831153 4.328922923520612 5.014234178565466 -0.49196567751372045 1.2127111996424533 -0.7724614624457857
Ni 5.120907802869164 4.678890423917404 2.360120569865342 -0.07682173424574512 -0.08149291446916933 0.8767898867522318
Ni 7.454723608169345 5.803564157096353 2.525981049401671 -1.0099573467775573 1.9028675361304197 -0.5677144904102609
Ni 5.040534403286546 4.537955504314898 11.466343209444823 0.7824404280353685 0.2639918737397711 -0.23612548634680625
Ni 5.876719204592642 8.025545443343315 12.62504125806163 -1.3343709161384956 -0.22974040875606888 -0.16898344128267026
Ni 1.7566472681031373 6.325228560578018 0.6082964321122143 0.6968010954979935 0.987320840324964 -1.2664773376203156
Ni 2.5462805082185325 1.4643993453324977 0.5718124291521067 1.0462194144333852 0.011913206497818194 -0.4443251928176219
Ni 0.6414382018610295 8.889459612286704 4.840958317709759 0.5498702631399885 0.7949768699394825 -0.34276456106430003
Ni 8.719987232800761 2.3735757597480216 1.527614858201234 -0.12966587462997026 0.17804837969841594 -0.19170068037452792
Ni 6.7447010738312185 0.8209754156711158 4.85064634497531 -0.03526422251893281 -1.0153944586327288 -0.6056914838746665
Ni 0.8278750707030669 7.208636819998572 2.77516401123463 -0.4397298601374556 0.5892384805249659 -0.808018276504473
Ni 7.6529513600545345 3.906109085024934 3.904546470692787 -0.49610283961054563 -1.479986886339819 0.055414472214562624
Ni 7.93364083979889 3.771929453412652 12.444429917142347 -1.5023688535794448 -0.6795765040895909 0.2428422362453495
Ni 7.811473635620838 -0.18711421357869157 7.010301927793107 0.6143175349807807 -0.04891652319504479 -0.28848497378512894
Ni 6.89636818483755 0.8019607327287392 0.43307479408405514 1.1549074012601077 0.24456950334910135 0.6360533839959756
Ni 1.9965053901969017 6.551794019207147 9.319578059906219 -0.5493611847140538 -0.11963548697716171 -0.9526518281878689
Ni 0.16665949209431283 4.810255352200425 1.512465398508103 0.30305387273823936 -0.9350336008854735 -0.4770728195622881
Ni 6.305144290370523 1.9775379216329514 6.923989504185751 -1.1585637670657722 0.3864835992188054 0.7957417731299651
Ni 3.6740867338123038 4.442600619270089 0.4746225391303835 -1.8225706988518806 0.8830335536690985 0.4557550319211183
Ni 6.303319273050582 5.910958708639868 4.59265245375295 -1.2422248928308541 -0.8069330138600942 0.2905382567697319
Ni 5.326181392765663 2.886823292306382 9.152375602460005 0.5258088513154106 0.5425125372233366 0.8163815608675036
P 0.2018487315229608 5.431914361376099 12.532204170543286 0.6237689102016677 1.8449822337778614 -0.3540671305613128
P 4.115650128356118 6.257784636933679 12.757546595177413 0.36841440042192036 -0.121151666511372 -1.0567655653803478
P 2.498929934469849 8.427975381922254 1.4522797775779928 -0.8495259088299564 0.25050823743103956 0.12857906932369467
P 6.3257370231149155 7.780611775568724 5.69835417852387 0.17841913277427338 1.1660094247105404 0.582818435931235
P 4.755976976386498 1.0216374319517076 12.859327175532277 0.08521432918481453 0.1381641419089685 -1.6442505535493166
P 3.9943545742413207 6.3139788269491355 8.268946459756684 0.08093267109032513 -0.16033656424094966 -0.1990902879703797
P 4.409750307511175 0.9648712215822406 3.5746459890959885 -0.4253568792452352 0.028864746750492224 1.3328015147688466
P 0.03164543714022776 5.535686117344212 3.9708853962881863 1.6295566989825676 0.022913671373379893 -1.060522975540251
Ni 1.4865901031928588 1.051564084123455 2.5848909741454555 0.01970467751777897 -0.19270263927648104 1.3975683747325867
Ni 1.9816873391215706 6.561636401171398 5.043018605966822 -1.493891669346369 -1.1913211640024515 -0.4224142516771435
Ni 6.163074409748154 5.7458718185346775 9.336707799586806 -0.467885239525749 -0.04996836149832685 -0.9281232469188854
Ni 8.605619480751209 2.352347448832504 10.122768182411674 -0.13341685703197023 0.41418749289197704 1.297909845097984
Ni 2.454811729705735 5.129370072233262 6.988720417008209 -1.1513065712827268 0.14193620735689103 1.0807326177189063
Ni 0.4015374052329183 0.38861882492042993 9.173052776304274 0.45873931136042284 -1.4217822529746287 0.9284657178599688
Ni 1.7819341996256848 1.137630448181705 11.602329699000727 -0.8304282687685569 0.215864422104925 -1.2883589681847551
Ni 4.052954881618887 6.882494421330744 1.6187649396596546 0.28899482354201195 0.5479748458894886 -0.8850220448540371
Ni 5.7665825872251375 8.01083634852589 7.959736771536395 -0.9389383352565184 -0.5933064799467525 0.39428586887204353
Ni 4.810100997501724 2.610019919094038 4.827470440949707 1.311152054819871 -0.6557274653861352 0.17191038512147813
Ni 0.833406416729471 7.436636869356809 7.026739795235987 -0.34996056459210695 -0.27410042292868275 0.49561972932653997
Ni 4.900743524392062 4.544919625132777 7.328427869785439 0.2240137906849368 0.14465592028089927 -0.1674127543614407
Ni 8.247153392237683 7.291525293201206 9.062474886092248 0.09877329881617183 -0.060304710427328406 0.36899289863320966
Ni 4.369064224871126 0.7959935616707076 10.368841351050209 0.34265348940773244 -1.3326796444790017 1.5232680656259572
Ni 8.171910016464846 7.385881412548536 4.476174582175267 -1.0770302291666547 0.295691004615265 0.38683815434474667
Ni 7.232952224888117 6.258265860406101 6.994141898807889 -0.09858278007192055 -0.4867663927009681 -0.19763118692634996
Ni 2.2936745039496675 5.297071912528216 2.7806390631944486 1.0285716194446348 -0.36378101541496705 0.42151667956353855
Ni 2.3627527714626084 5.225188021374175 11.401864711953182 -0.03292297598026588 0.22072123597659407 0.5657522244775677
Ni 1.119897817207366 3.306640833709622 3.8188051594706254 -0.5811775578937023 0.27851500705661064 0.2901849871953712
Ni 3.761233580761463 2.7105139076367863 2.4240143354395487 0.5980905315989571 -0.41040000082508676 0.7179880139882537
Ni 0.999882499122974 3.320850545678306 8.352082808446056 0.1987071935993481 0.3220113876773487 -1.2122399164329896
Ni 3.553390439115994 2.436634194011609 6.9827795770458385 0.5194973072750859 0.7355715313979719 -0.11086828230749293
Ni 4.188641741465546 6.757557912264226 5.860958681886417 0.888500747431257 0.315711670711566 0.6188781577682697
Ni 0.9424262324534302 7.449221317145049 11.371379658959663 -0.1683301239693875 -0.6285573327292464 0.4282827946427785
P 0.053666404832017386 5.4854209636965185 8.053172210504412 1.044295972158427 1.6843839312350926 -0.4912560530412055
P 8.389559221321932 1.8038253277768022 7.918076438356897 -0.8034941633818743 0.08360276172332054 0.44400329070182887
P 1.9587520468321793 3.15034308174225 10.49700024144432 -0.3948628244214361 0.8548612049999406 0.30950914144527986
P 4.279829049645418 6.208318495843971 3.6215026278088276 -0.8173526665315214 -0.7014699617285726 1.603807615042922
P 7.018862257789322 4.117856492578731 10.43164464607653 -0.9786875901299984 -1.316486836769223 0.03254116716081493
P 6.169048844556712 7.775808620532664 10.220986801101802 1.1084231416556394 1.0066863893357694 0.09779216584982513
P 2.5901172426497205 8.486693725245885 6.006154699141896 -1.5474737163378833 -0.43628561034259705 -1.0720507736741924
P 6.9187405364610886 3.8378116706936587 1.5601864235336702 1.5944035481202026 -0.1252291790148553 -0.26928346115601365
Ni 5.390856011521535 3.0043598555233935 0.231137989585953 1.7876733727540632 -0.45210972185904713 0.7685878384229924
Ni 1.085494878773279 0.924312254576417 6.981105282549335 0.814244717030159 0.8666404570230558 -0.2074242617573718
Ni 6.883093680749232 0.7745818410543804 9.309292589159814 -0.7022418068975906 -0.6178126926182328 -0.5525562946125838
Ni 2.7022695507885017 1.7713654426087204 9.047577841729934 -0.36371905182878006 -0.9205600898596468 0.3872323044593718
Ni 6.258583649491663 1.9693843616662559 2.693435922178704 0.9961045000548652 0.7019237614365395 -0.3357336223594476
Ni 4.260398516985364 6.744129053477208 10.499140323943376 -0.5821607477425781 0.8429410565235869 0.41200462630804524
Ni 8.1573825154106 7.20584027604563 0.39989216573852493 2.2587701772385747 -0.4537364588291928 -0.9971277991130569
Ni 7.557287765612323 3.9469132036110484 8.029770222243654 -0.6050764759984869 -0.5097754520016317 -0.06727342843567767
Ni 3.28544884154674 8.312854015755512 12.440044427761595 -0.13994900172353317 0.04163233082880572 0.22898141910285724
Ni -0.018802218239458192 4.763540356622865 10.02736608298844 0.6119456923144945 0.9929497564759673 1.9200407054755966
Ni 8.213522227297101 2.3420510824603076 5.769291058202938 1.7611426734533864 1.4953785383045408 0.4448669242537048
Ni 3.5794037456912537 2.790769271273338 12.10981162957818 -0.6135778286012787 -0.7194532856798705 -1.5824420048829522
Ni 1.2075985251342187 3.473725255209771 12.670782003099742 0.38868832017960797 -0.9724364670139641 0.6578460543910348
Ni 3.184092282628896 8.468325516100423 8.046501363614066 0.32080245497091203 -0.10060341004637512 0.8247481876646441
Ni 5.550440610602431 8.183486618867448 3.620798951976513 0.3201823048884099 -1.1422267204686458 -0.36346528394676114
Ni 2.985692016668687 8.129698546214101 3.6839481831216894 0.7672984301876076 1.1285723629100048 -0.5118271923243378
Ni 3.4536137459377994 4.375792273796874 9.297239303128869 -0.3053087302106871 -0.11022884895128111 0.21083251610797238
Ni 7.32438468464828 6.408888807274158 11.512655066868128 0.9486619903021856 -1.899502990533561 -0.6294644179245482
Ni 0.8179763946722298 8.840674447808913 0.13369750017104404 -0.7123956075021408 0.20093042650291199 0.310539125371691
Ni 4.830548455235575 0.3191746459746852 1.6079210680914755 -0.7470959870978036 -1.2620501550868974 -0.8628557931696429
Ni 6.303546265254554 5.6575990902538145 0.2590580306745825 -1.1876835672498642 -0.5580934223807292 0.30872932585646184
Ni 7.955786199218457 8.68728219605239 11.211392829693327 0.4280583373367983 1.1307333751170656 0.6069757499037288
Ni 8.965801630326768 4.822503851526787 5.963510127765972 0.785970295565498 -0.6366835613808067 0.215784460796609
Ni 8.336098017442305 9.100571441669377 2.3616623009147237 -0.332949117635775 -0.3227117561784829 0.38198416868655505
P 8.622907207005762 1.628569186933639 3.835748765543956 0.16599221986483026 -0.5470564478402772 -1.4334674026220409
P 1.9503351759088752 3.373766968268398 1.70511731389491 -1.6104210065943816 -0.19668476385268063 -1.2781478319797084
P 4.832101081910748 0.9740144675582568 8.259989347387926 -0.10874120866216111 0.35863880909239526 -0.5405181325011271
P 8.659652704984845 1.4637456077850564 12.454635486632954 0.10156654529059284 0.36404018261362464 0.0887753070631955
P 6.704714127179407 7.8514696619608095 1.6224458452392743 -2.055172745426461 0.42042678893346946 0.9019645862456467
P 1.6924901915723223 3.2004720400675586 6.016507359580679 0.04059977579923331 0.12834689870823054 0.3772862489902535
P 6.232633900733515 4.070306165690552 5.7671382641404625 1.5023500845263673 -0.8427772772522131 0.1138420202238362
P 2.285520943982972 8.653968820197372 10.07253480767254 0.2360432110456451 -0.009241830313242149 0.8759311382963625
