# total energy = -381167.45224243606 ev
CRYSTAL
PRIMVEC
9.28048887865298 0.00000000000000 0.00000000000000
0.00000000000000 9.28048887865298 0.00000000000000
0.00000000000000 0.00000000000000 13.58293356009718
PRIMCOORD
 96 1
Ni 3.2636787360019768 0.36210981966900746 0.10786340777902237 -0.17694383378032752 1.9242295467459634 0.053096365604347266
Ni 4.436825310550375 7.585435267359047 5.514317888232464 0.3765812525034289 -0.08062156760780954 1.0361967400900607
Ni 5.9572384911665415 5.515626437136912 7.737897919606919 -2.0274323420883986 -0.2556972378311468 -0.1330209071451322
Ni 3.7316102559395197 0.10309509269316708 2.707948224820287 -0.6546157203791951 0.00413047722860579 -1.5780585311032758
Ni 5.658304670165209 0.7909389285852528 0.7037914276467252 -0.37009333078624007 -0.9712175070051983 1.198401982108633
Ni 0.9314826492162231 6.496648334948494 9.118779880907542 0.9931662433621475 -0.968327587051913 -0.011224665071225829
Ni 0.9062573529241575 1.176264818746233 6.631473418452364 0.649682544743636 -0.03984978500708621 -0.16436188335025886
Ni 8.782358453915935 6.349422662465021 0.08945277432764104 -0.968691141038919 -0.6347174387933714 0.5557976843680169
Ni 5.326517919222406 4.507477670901905 12.949140104738367 -0.7668919387778083 -0.820411250852187 1.729888343424795
Ni 6.805103937339642 7.151015592059542 6.432470043502944 -0.3481998731472584 0.4060530367103007 -1.2700383154986965
Ni 8.39103736806507 5.060195735456759 4.816480822125412 -0.8073333346223064 1.1362491627289721 0.47180025830943906
Ni 1.6580985107324548 2.289004692450272 9.571363328659436 -0.13254216773650077 0.16090117849516805 0.9189055849753593
Ni 4.628987109241927 0.17667730332224615 9.950734857280741 -0.11461386539285422 0.07262929343095234 0.9733052427721625
Ni 8.803629333979735 5.876999386004408 2.670947844485923 0.4873235507560188 -1.6269578279071397 -1.4544141800770372
Ni 5.722664859188966 5.3273717241813365 4.8828604454868145 -0.11485426353843445 0.9020859423148594 0.6222488740127153
Ni 5.5234034866541295 7.593165914432845 13.610778624733351 0.26262070442385743 1.7933596245055632 -0.4843410710889271
Ni 7.786923957178052 1.0599431735805844 7.042927596454366 1.1871557197708522 0.24083369045575298 -0.7956908652873717
Ni 4.180971518020316 5.16029508640272 1.7643007110370357 0.49785118976022 -1.230453611227539 0.2933703269018883
Ni 6.161808303228644 3.3844271742699084 1.5103809723487285 0.7648083167759022 0.5595322117097848 -1.055888047871401
Ni 3.483941854428776 7.405004006364111 0.7581435376736231 -2.0773526239576094 -0.9177277626171743 0.7943456641133868
Ni 5.893184558269358 1.6383589113015202 2.9634836965884843 0.4754003169558716 -0.3377737927179279 -1.0464014485372042
Ni 8.40192338129144 2.248764493516312 2.71865141241958 -0.13531613093721212 0.4825266435880077 -0.4575856573719539
Ni 0.03160934445781066 5.231587800473449 7.022295214012027 1.308538528456424 1.2730655323607947 -1.1458388632999363
Ni 5.126514107592847 4.850586618039228 10.782852242205909 0.710526415503886 0.18137950095417793 -1.8599126298354483
P 2.219818649310818 4.468091276926876 8.163980931921559 -0.7880814283712299 0.427650046154786 1.022952987706277
Ni 1.8520421632513413 5.641182168543171 1.646509964512705 -0.7702703683317379 -0.14357477140157854 2.219030178336475
P 7.333841219134959 8.99015787604008 5.274606577719408 0.5425660161690914 0.407339359621892 0.7375376539854073
Ni 4.116249389937882 2.1114596634360687 11.590085852822584 -0.98617284276345 -0.04468011651619402 1.1015708946204965
P 3.033754628855101 0.5367398471875563 6.306392748632642 0.315753836803411 -0.5117024938210154 -0.40551079105358545
P 4.031462845320571 6.0715091483330195 12.288901082436931 -0.8489738929812282 1.1744300446740676 0.6288221563548589
P 4.2924301871155315 2.525694275847806 0.7820101704223463 1.0347535798856309 -0.6003111933993597 0.20515037812153056
Ni 4.674099564735004 8.154607638350688 7.940528109534059 -1.8440995740625918 -1.0282152645464808 0.2629310365754246
Ni 5.827608625227992 2.2184265760082136 8.113547972265929 -0.6161540739688872 0.576522061399562 -2.399518534934951
Ni 8.839804678870088 2.8809977851159454 5.15769747762006 0.5014949571603944 -1.3670146703154455 -0.14274199108763802
Ni 3.4338643374897426 6.580729562425817 10.247086846330175 1.183614025166181 0.012659340635223358 -0.8667443295907719
Ni 6.614501260747008 2.188543402445633 12.75688735725771 -0.27644706878398845 1.9447425790976507 -0.367359991015477
Ni 9.749246167461738 8.398378234614139 5.551494597851825 -2.4473402824039208 -1.0935817057674329 0.5062869792323991
Ni 8.353841169419473 2.0555911215582 9.207504136873487 -0.8624801549977792 0.11496019298867942 0.2703340139077151
Ni 7.838170815691272 7.563412667711842 3.7510222541199076 -0.3742063245133491 -0.29004460496276496 0.3709662203094966
Ni 1.9272883655014672 3.775850345496297 5.074760534397477 -0.18172839965316445 0.9604103890873653 -0.060309081302702586
Ni 3.6094975858350358 6.763443823637026 3.390014956506563 -0.20748416846102977 -0.0707233346574911 -0.5451430328676482
Ni 6.408669302223877 5.99093594557826 1.2118220830902307 1.828258236154961 -1.7820375146245246 0.9794959449639066
Ni 1.8178528429393699 1.6455327290542765 4.491223823020693 0.16000720592598897 -1.5012308833202597 -0.7297610953637819
Ni 5.659102792192035 8.756001866053285 3.8268967454539426 0.7149407425214979 -0.23097788070759573 0.8958579591272765
Ni 2.587353842664511 4.5228554406513455 10.717219698183571 -1.2143129969119346 -0.7691663366342818 1.5909361583968922
Ni 5.987065981797018 2.1037290163622706 10.278558839555464 1.1289634277008365 0.28515565230157985 1.4794721514869293
Ni 8.97075237420177 0.3965450729311057 3.9722199177571893 -0.35758028592089386 1.3115220365647802 -0.680888280922479
Ni 3.2772375299693466 5.63788759506034 5.462444596733071 0.5638087275979516 -0.6371224486904382 0.4714115075114526
Ni 8.701553238944074 7.411407543556092 7.623679233177072 0.40728716622771793 2.620526448914029 -0.6692972336507699
Ni 1.1422982301626785 8.127777745565155 13.807323598230374 -0.5153855990995575 -0.12902129906743584 -0.8258118530424681
Ni 0.2883865456119311 3.9047934552722277 12.164399614545179 1.3872068289926045 -0.06482882354992706 1.2437554705427676
Ni 8.19462510555623 8.983290314413896 1.5776580189658767 0.20604769312481935 -0.19389691669489834 0.7588970934977898
Ni 5.547050171821041 0.19575984415435135 6.48715439502473 -0.43173732885028226 0.9591765166802643 -1.043072384163971
Ni 7.29622739849858 3.8540384626592608 6.849492514715364 -0.03964486808513172 -0.7517666531005955 -0.4739473865594289
Ni 7.505845796404794 3.946871190965626 11.309679599430053 -0.9686888270460736 -0.027973859505106658 -3.3107514338564012
Ni 6.807730315637223 3.657626200150422 3.7842863097100814 0.14282683749196046 0.42628196216266584 -0.21226436345849253
P 7.4343303506056495 4.347296436215525 -0.3057289948157804 1.2838705933960985 1.0108973420933236 2.7612948612150636
Ni 0.9078229713651537 7.820315155463196 2.772738100470115 -0.07581669001999845 -0.40700640176250547 -0.057022183021314704
P 0.9122228510502529 3.8181693738954796 3.158520590674349 -0.8502450463841679 0.4614495112027343 1.3215984469641755
Ni 0.5327074748543448 0.08166458822400195 8.670529493322226 -0.7435892594961259 -0.3746323563071742 1.0994435638648485
P 5.248821667959695 7.549399129798954 2.1636661244792186 -0.055063773743363235 -0.2858120549386562 0.04800043913867862
P 7.703594449284134 0.3939539604905241 13.267469219040457 -0.07890972712302538 1.3896097820071425 1.5030761640591146
P 6.728029478818762 3.96580338788105 9.121591868978806 -0.4619521618707657 -0.6718223140654688 0.34161142129646327
Ni 0.34338086545576385 3.169008470936173 7.614171372520282 0.4684143725563416 -1.2825824707122944 -0.7381971419462771
Ni 1.7842389129258087 0.32305102694452487 11.30057915222649 0.07291622854375185 2.522901404769687 0.10963878077576601
Ni 3.8232922036490646 8.40047562505673 11.83652087738722 0.07287920465822932 -1.0353788721744557 0.49933317362238516
Ni 2.869100198623017 2.719842099117742 7.154972792434413 -0.45424090926943705 -0.8192905069841825 0.23343971198452698
Ni 2.927131094364265 0.7270251310671976 8.624796173136188 0.37567468152875944 -1.108608518193568 -1.5530581524041962
Ni 0.3703583180113745 1.447357173695472 13.733160429009674 0.8003684732686991 -1.0939079787586 0.10409291125687233
Ni 1.769492216406883 5.974370273277263 13.094939366111104 1.0925391234355313 -1.279056974057539 -1.58209413462523
Ni 0.5633562887333582 3.4607127912526456 1.1812679301957945 -1.6215358855606203 2.422712199442595 -1.5037899022966874
Ni 1.2321519216014696 6.142978191688744 4.564408828734096 -0.43830983986147737 0.22774703247512387 -0.07017928922856301
Ni 0.3997811793352274 4.194233336349797 9.687307257935643 -0.8223393211128353 0.9768844754829886 0.572589302004059
Ni 1.8861108372104203 7.660440176903389 7.043932673378846 1.4597996127586665 -0.20104484059358926 0.9292771580176706
Ni 5.837696516427534 7.153994628927116 9.614149165639425 0.837986283621473 -0.14379177250839104 0.5950926253128977
Ni 1.359972092246633 7.452399462073458 11.46642705330334 1.3733997479061832 -0.5074735433413325 -0.44701816626875274
Ni 4.3499784974452105 1.403868803722101 4.549345667551044 -2.4252658191023846 -0.31374554812413064 1.0214350083998538
Ni 3.678934202168958 6.0483914510210965 7.786715146182661 -0.6473135302908272 -0.638075813742643 0.36031542546386974
Ni 8.593268496978796 8.438869006742568 11.901528844521122 1.2513980746896902 -1.2800720455856147 1.202494921231084
Ni 4.6758535770962855 3.2437535267973616 5.865219661717766 0.5160738834158337 1.7190400878563816 0.5418548490346798
Ni 2.7547738585244357 3.72456636502834 0.041478216124409564 0.11414900994129372 1.5490217775512936 0.13599850171621738
Ni 6.522865715480882 6.713078611548789 11.865588295994474 1.1868127346091366 -1.1579343610118897 -0.8696409344122764
Ni 6.45471908707404 1.9343044149465949 5.251501873091643 1.940545253186852 -0.12397705177530907 0.09469655764363691
Ni 7.961703400564414 5.7335787138813865 8.78773649710833 -0.5884314112426383 -0.6296803905900962 2.444932444293376
Ni 4.019620941759747 3.542650225843958 9.282753123270219 0.3569434236678433 -1.1229701862318788 -1.7415056159487492
Ni 6.093986491925743 -0.07163609215203773 12.034003180241328 -0.260460463547745 -0.027267834577017553 -2.2697238480366004
Ni 2.236931870444172 2.2011463060785474 1.900700693470586 1.6519561497236905 -0.7147584513073626 0.8576184560301036
Ni 8.652422331850813 1.5123113139950068 11.558424537628143 0.3100902107597305 0.7830307533211999 -0.7881588185763846
P 7.838013047383644 8.417570285212715 10.066420788971534 -0.8470725621934572 -0.7791494159889226 -2.1959709825241664
Ni 2.4222075465321735 8.368550743983661 4.562330927317741 0.8172855607390118 0.9134772148709365 0.37985426682774587
P 2.220635332315013 8.105421048325322 9.579295362337676 0.18565473129076415 2.4900288224113827 -0.8174323707295211
Ni 8.977777704135582 6.08801913770191 11.289536298741362 -1.6065941766491234 -1.2493154811290483 -0.7438150023536867
P 1.977588614168917 2.5356893621605083 12.130985215038322 -1.0286490096497898 -1.6542698854585316 -2.037001988054705
P 4.051406615502555 4.057225481907443 3.9520357829182893 0.10240343936959138 0.9225832909372629 -0.0978055355862638
P 1.7088720643227902 0.1639778826070177 1.7049566261469973 -0.08295792905047003 0.6735871192753753 0.5724021256939174
Ni 6.509195555649304 0.06532071960255441 8.692126118538836 1.4120727389963488 -0.3980713040564048 0.579455432996273
