# total energy = -340858.74244391377 ev
CRYSTAL
PRIMVEC
9.26964549258974 0.00000000000000 0.00000000000000

0.00000000000000 9.26964549258974 0.00000000000000

0.00000000000000 0.00000000000000 13.56706316852685

PRIMCOORD
 96 1
Ni 3.1191892998856194 6.08808984029771 1.7153784551583933 -0.20490072400456968 0.6388864825693964 0.5080494704494605
Ni 1.1157408582021504 8.93448274824189 3.325992305944129 -0.9150648710730306 -1.7051975255463343 0.8573464333156396
Ni 4.043873498523905 5.063163697235395 8.524918301481712 0.9028629296901999 -0.6537757409764031 0.12218782108537021
Ni 2.2376182216020726 1.8648857835319654 12.45038505862456 3.0887485029539063 0.4324952900622293 0.7176167466917641
Ni 5.2358571894325125 5.762224728934452 13.545735478029824 0.2147709319304301 -0.01132828052862565 -0.07734341107717002
Ni 7.259967670520564 6.147953209734585 9.9176584088106 -0.3968253474644456 -1.5240604796202655 1.5215901637029021
Ni 0.5962829123171588 6.047609299212104 12.376295564524513 1.2750080007991462 0.4266743125050781 -0.1955640199846761
Ni 4.594629474846597 5.2567973181965115 11.139440301545129 -0.38536722622617503 -1.2635619637457336 -0.6134027364759952
Ni 5.266993928041751 6.451663868797728 2.7246194313851326 -0.2181601601176372 -0.013602421274783024 0.4423426151699543
Ni 6.198834292862334 1.5838486769065112 12.59125215060109 -2.6357805468596216 -1.7763168100906632 0.279209462020474
Ni 7.903327403528667 5.481576947412179 13.308298148138086 -0.5172082541305931 -0.504677211543118 0.9325440016944004
Ni 9.275948672668365 3.459746799071336 0.9431660174650501 -0.5458845390193631 0.01123366393229033 0.0023353330013959777
Ni 2.368987634990025 7.860789001183387 11.936695613018381 -0.12174122046625484 -1.5832688716596217 -1.282477569703314
Ni 6.050214069545298 1.4746986033358693 3.6413317350535035 1.9975604942296306 1.4089614470608767 0.09649555852558865
Ni 0.3902520677132931 1.3468887337484374 13.512428715452613 1.0697167262243772 -0.08449622007186738 1.6210460904083954
Ni 8.360070637078241 5.726907380288664 2.503327042736536 -0.4769195818138755 -1.0796630388038118 2.6002373596476898
Ni 0.8047118141637185 5.6735698411527435 1.2368802910217325 1.3015842086257778 -0.9654806045214213 -1.07404929216146
Ni 0.6220617959349892 4.5784817527098625 5.178385388486612 -1.0082457634030895 -0.2067981981375987 0.027785140533068277
Ni 6.047627838502732 6.701675472557709 7.871053279439418 -0.652253905015238 1.4466165384094891 0.3723818697101006
Ni 2.468293345237353 0.2707079408522256 1.2126067978028718 -0.27646326673390453 2.571797873360074 0.05478352349878307
Ni 5.248056042665546 7.395990445856072 10.65897697260193 -0.32635835179213474 0.39773448954227625 -0.8906941555381498
Ni 6.078875812855737 2.746391974298315 1.3274641919932544 0.39719275810619337 0.20798373380526763 -0.03400746729369627
Ni 6.9348904790089865 7.447001304018215 5.637372803166672 -1.100910378218362 2.059138414942428 -0.5731983963429677
Ni 1.2074361896468035 1.7502758888714631 2.8659741067051696 0.1758500864955165 1.7263327648630524 -1.889497542581417
P 8.72794578100389 6.425606895820481 5.572670678875964 0.838726247111291 -1.3498504998313332 -1.1548732055880626
P 7.999110648556731 2.367337638124159 12.866649605017594 1.5183922255908948 1.4921813715234817 0.4662741862848873
P 1.9617257681258082 0.9311358717767292 5.038739108797919 1.434518983815007 -1.15340433435202 -2.1199989978732265
P 2.0016223215566398 4.039118170477898 12.978103185448727 -1.1407025705146354 -0.19182512176753416 -0.3731655419536606
P 7.172972049250036 6.977363993837069 12.000270548438923 0.34993948154618437 -1.4872679933822643 0.07324198731428676
P 5.120793082151631 8.69899667868872 8.398636069442004 -1.3462370714484622 -0.7308275889550833 1.613605317859634
P 8.187136134102964 4.004384809486884 7.1420957876741165 1.9565655398745077 -1.1652028696488448 -0.9715550928502751
P 7.466486098467939 0.46340903549476775 5.9820163620067355 -0.059618740103897325 0.9400786195085485 -0.6463164564848805
Ni 2.406214530570466 0.2549782797191452 10.343989790014483 -0.34269925504400334 0.507624724207216 1.1139679827332685
Ni 1.5599886098686486 8.04655269327304 8.512897425438705 -1.226059081704269 0.2893509213298501 0.667475864171315
Ni 0.4300123573580112 6.788735981345434 10.1097143361393 0.35221156540981274 -0.665788449166563 0.5098798387899799
Ni 3.2458033852275645 8.187117594812335 2.979286251021732 0.056659914585889516 -0.8106935093437909 0.18103343046866888
Ni 3.886437842513393 8.064192828305305 0.22992057450673248 1.1518555018076615 0.09627752897751161 0.9034537691966633
Ni 4.093373404499891 4.131276984188244 2.092122795720337 5.177927687232799 -0.03846627439599827 -0.4696513302872363
Ni 1.282557395270284 2.741173163986615 7.408932724643276 -0.3086437081211911 1.0919881360280679 -0.9262129172700501
Ni 7.172295365142125 2.9884224134430677 5.437882620296262 -0.8523808617802482 -1.0029590610828534 0.8803804323169676
Ni 1.674617043819779 7.034103492803175 5.587038629112438 0.35908412415992996 -0.49748506467005293 -0.14047607787159677
Ni 5.923507287750214 8.230128749068623 13.06890770397872 0.6448375579465088 1.0222089104514007 -0.13351892982747326
Ni 1.896921677736648 9.131286587900346 6.698533989760843 0.8380875850860277 0.9323164590646267 0.6456294577201849
Ni 6.515142399907006 4.389436606179104 8.227840073640632 -1.6404715461228585 -0.13369685016623425 1.432623823674823
Ni 3.411646609537743 2.7329139100119697 7.599251520440157 1.4755491622834394 1.0029752590327694 -0.6702817090512262
Ni 5.40111642608792 9.273445868433624 6.345003621958387 -0.18635921355695645 -0.190911094593697 0.3092944543313125
Ni 6.619110741747203 5.3214252853247075 5.980470185168384 -0.021666429229840106 -1.473067019291534 0.03884705477418471
Ni 3.4545465280502636 2.670158411237172 10.603772526899796 -0.09559232998502892 0.6351815229139836 -1.7168096558639658
Ni 2.151632991670754 4.724107880590522 10.00294099962713 -0.8555690297002426 -0.3867895604949984 0.2963186108969349
Ni 9.123008794635073 0.5842954069972814 9.222930009331241 1.144970087541738 -0.9930906529292058 -0.5730446443739229
Ni 8.724135956779895 3.5713069804235804 9.38737629809262 -1.2443547946896634 0.22143266022132185 -1.775994393754238
Ni 8.210782999298608 8.903169886371689 13.355660473904697 -0.8654983729988127 -1.4201845694702058 -0.7854609600292474
Ni 5.433532375750469 8.796995368946796 2.232487472920854 0.3382869849089206 0.8202359016165874 -1.4594972510268995
Ni 2.995050209842474 6.864126006683017 9.851926426925525 1.0739945276641245 0.42719059001986426 0.3307803921192303
Ni 2.492876444609696 2.8039564716973544 1.3226106057069198 -3.5242159882705826 0.16215767661008845 -3.091208791568941
Ni 9.121275370961383 8.449309512514724 5.683704344374381 0.6476793982706781 1.9715910667490626 -0.5925032673191667
P 0.6573884142260905 9.067845135372323 11.99373174063453 0.2598763089095008 -0.9942358222772426 -0.12295940914407211
P 3.86327299887407 7.493970596823519 5.052632453194325 -1.210209516266522 -2.5849297827563418 0.9289159180235099
P 4.224622312498763 8.944762784894957 11.735997595363576 0.49235134298791333 0.968583411816461 -0.18985000031903435
P 1.8435470600194714 5.914015170948827 8.10721510613597 -1.320487473288184 -0.30299628002742657 1.803362501354546
P 2.8767139177658017 0.9276412154934058 8.491095219660519 0.3275788544627971 -0.801778209132032 -1.520028732753053
P 1.3571780400468163 2.6781766544336567 9.51220690367618 1.2381764337930936 0.48594312546872437 0.41832311232690533
P 4.110920843079018 1.8250726569089586 0.6376449966721108 2.7152327767496787 -1.5719696445967186 -0.7343875383921997
P 2.3344767454865427 4.103106532079439 2.916660527281328 -3.727253433814168 1.528432640546032 1.8088386939777685
Ni 5.840636658644351 4.378841401585368 3.865161225624502 0.4124136888210058 -0.7900979445806264 -0.3211801500253049
Ni 8.318505547490917 1.0182149198550825 1.773554749148147 -0.9343275759573845 0.7203971376503786 1.3295382706365426
Ni 3.432345727523581 5.47388314180168 4.224172734701041 0.31856893765470295 0.20211956171500675 0.028144580755016045
Ni 4.249798669171193 3.3799166136284176 12.708199849809745 0.0863363586043997 0.282416656103862 0.7119052981292836
Ni 7.450375454912459 1.6749600206963915 10.446787375651539 -0.03546142613140344 1.954312996394905 0.17664481448266997
Ni 4.210819810626433 1.7658488929987393 5.241539482009905 0.42317915486762603 0.1234404625455487 0.7601170819478199
Ni 5.545945364471589 2.163173700086504 7.982113826909246 0.9961695489648457 -0.020714606839532065 -0.05145780155965976
Ni 7.081805087588273 0.2035159898302167 8.207869549776463 -0.23197829694765207 0.37308532353502843 -0.08975489736764541
Ni 7.167169251283562 8.704178410419164 10.741735438999495 0.9654523223866469 0.28159313176130213 -0.1610317905357614
Ni 6.712919552323416 3.8389309102798865 11.869972706049253 1.236322668413806 1.650730247736389 2.713601668904159
Ni 0.19546622983966505 1.946273269387612 4.769094396263193 -3.5973173362419466 -0.006416702159621208 2.3937314959395293
Ni 2.6755996930364048 5.00171521844985 6.453458472130491 0.22844894363815496 -2.7643932976347294 -0.9257035817337993
Ni 0.16634378515712697 3.9272150122490412 11.473664779052418 -0.1515133095223649 1.1850222183676171 1.9744185088955286
Ni 3.8467266819888386 1.4633525574717108 2.766216037766525 -0.07234904318637217 0.1562261416170019 0.7107421310591179
Ni 8.613669593574686 1.9121702442779394 7.171237698611813 -2.2602259358484944 -1.3561047082711613 0.14622686431244494
Ni 7.596047931019689 8.708701997332327 3.487996970129841 0.5848295528239927 -0.13097996545570345 0.6985471316548229
Ni 7.125594892050923 7.39851178938144 1.5311785522331873 -0.029359684109039764 0.461369035673786 -1.338920740292707
Ni 0.428273371897132 1.7078394526246348 11.148041605431855 -1.2077268590539845 -0.3347134086250494 -0.6381820003032042
Ni 2.2871830150952555 2.907498409853114 4.688085111936351 1.3078772407233412 3.0936677946323945 0.6742358086029678
Ni 1.0257047932686774 6.416522643412904 3.445450225103778 1.0063359479748861 0.1808827638234175 0.02637000535309652
Ni 3.4098946465734246 7.019336947818204 7.1733678631049385 2.702294471421456 2.568288831765551 0.5860040327480681
Ni 8.740635925438557 5.957786436120849 7.8167313039711654 0.8477490194351915 0.45099026354262334 -0.005704249473628886
Ni 1.758312671358575 7.619824571249728 0.49363642189871737 -3.7816734033259447 0.011828617203811887 1.3553259211236077
Ni 5.211895156296198 1.1825193830431613 10.193938333460984 -0.9108040389141475 -1.3936515561766838 0.1093220208662956
P 4.884315160549878 9.070561141449282 4.2341987830725065 0.7267729592697354 1.8536566216234078 -0.8897942694316997
P 3.0258903198016696 6.098073248300731 13.116582416792408 0.8846525773297603 -0.9687024538928285 -0.9699628086624908
P 9.163285403523773 8.165129996127872 1.708079536438264 -0.28835436174453566 -0.3919106837716476 0.5274983232026915
P 4.788059163610808 4.15336654897116 6.327040903269199 0.013883185739995444 -0.6516113863352326 -0.0318924778332225
P 8.118364635519475 3.158946808636743 3.591839244793769 -0.44495434176118853 0.5458601135393308 -2.2970382195808376
P 5.90341996635509 3.4479280012961713 10.169069729012977 -2.2571760932785767 -0.997891673862275 -3.7532375165827556
P 8.107732352344483 7.763541152195735 8.9745174193879 1.006453447389357 1.066981329571085 -0.7915842993181658
P 6.656977242854301 5.225595692070075 1.602351815917497 -2.610211440141266 -1.959638779483193 -0.4370965362796666
