# total energy = -340852.0939605089 ev
CRYSTAL
PRIMVEC
9.40120541413147 0.00000000000000 0.00000000000000

0.00000000000000 9.40120541413147 0.00000000000000

0.00000000000000 0.00000000000000 13.75961441198792

PRIMCOORD
 96 1
Ni 4.846988723881104 6.111667039966876 7.264856464558545 2.4976125482959115 0.30779318719543763 -1.7149196379301046
Ni 7.929371247117713 0.21286584676330808 13.480418102525222 0.9513739899167099 0.3435880854068599 -1.5363773493144055
Ni 7.517109600284136 8.506896678720228 11.539156676870336 -0.47405100201682876 0.7168873247249073 -2.3746027455298786
Ni 7.997793217966358 8.546391141420854 5.26339630217171 0.13053387905722036 1.0320433800433193 -1.4799948567596188
Ni 6.083613843894829 8.717023014312156 8.997507969007033 0.03894912756968776 -0.8407304220255134 -0.6013013252267708
Ni 2.3072625624644294 4.293135526765658 1.5958263651614342 -0.18656875846460125 -0.8930806534924555 -0.9835022379098224
Ni 4.1735239940496225 2.2352399300555987 7.06627762921303 -1.4167518896395728 -0.19570311666570167 -0.4616392586160373
Ni 5.957355659160384 6.032800330232158 2.7312418713570543 0.7763885654143339 0.4356042680048562 -0.16488973082927086
Ni 2.559449889754193 1.4362221058735194 9.429904176841784 1.3137092740240859 -0.8151967965307833 -3.637524504588452
Ni 8.879381826699639 1.022399858990358 6.095591919335646 2.5957281589234262 -1.5946146356897442 1.1167460596990382
Ni 2.873186906951359 8.289493810366983 2.742662455334374 -1.7797363772951733 -0.7029128648226862 0.3042471217153921
Ni 2.6326570740078887 9.067105090495426 11.285098509762095 0.28744419122544046 -0.1637856991318147 0.9786101999248437
Ni 0.785279843143178 0.8418920201226189 13.049851369206431 0.4614860208676246 -0.32461745784162804 -2.703476921765331
Ni 2.139639075210879 3.8740204014010753 9.941279908872671 -0.6931658127382513 -0.2769096102427038 -0.7576830185850306
Ni 4.7100413689275165 8.837725086821878 3.6140723792864207 2.35497571532757 -0.699877163320156 0.7758576326115284
Ni 0.5741823630625617 8.917766947196343 2.424168428347511 -0.11513219979016945 -2.2320304472508847 -1.0463443700470239
Ni 8.29024590677642 3.885320649952885 11.388144178939742 0.5807060175739225 -0.2769414919219037 -0.47729213466194575
Ni 2.6876917287685322 5.839652571083297 7.638910673672148 -2.237149256534689 0.8197407071477238 0.5337967546168936
Ni 9.080633424660197 0.9659550234620172 3.6575115876545503 0.40111266198588985 1.8893083093887462 2.6182204264886715
Ni 5.941477023716118 7.202056414370452 4.920492986216528 -0.2789577510209841 -2.1923578112516116 -0.2908092510429314
Ni 6.3293613456787785 7.8667780234422136 13.600167832956492 -0.9442106393990513 -1.1953413409054383 -0.42142823361479037
Ni 9.199662082658918 6.555864580586226 4.822552171417944 -1.3580878001394612 1.2297545282779851 3.7718322488658074
Ni 0.8242365569110559 7.529293562117035 6.931790569638817 -0.11039339955360343 1.0180013001279564 -0.5646489641110598
Ni 0.7312135125096859 5.4471992634333 11.306880161899937 -0.867278604827687 0.24447411542181766 -0.7355465916973074
P 2.367110634245478 6.6685662275405475 10.62653657028363 0.790753061666122 0.9497161425983128 -0.16943389855652755
P 5.362691830627795 3.3698995793597337 9.624616296522277 1.835587937047155 -1.2309236088854218 0.6015563786603704
P 5.298801240646015 1.0796437969537267 10.084297621970936 -1.2593091020066505 -1.317026254212461 -2.0358154239457713
P 6.723713696762607 4.871065210188246 0.10605311469488773 0.2976193319862294 -0.07813042575483962 1.6701425908247303
P 7.101820765402569 0.9206242926241504 7.124205034788476 -0.9777882182441806 0.8098674138980697 1.8166558760293425
P 7.144069781202763 1.6276776481011441 4.320739345233066 0.025833159013020027 0.5440639408708566 -0.618273177194419
P 9.239617204410326 4.420023592243009 9.235522039460934 0.4163127667650959 -0.4762032724731412 1.1511281367233335
P 4.411872747405722 5.374509145461094 4.1550177217748825 1.0559998908589168 0.43526411105661805 -0.09043855369823134
Ni 2.4032488667189864 1.2786391056859698 2.512890421407406 2.8010711126717376 0.12054205795183111 1.5930732593445531
Ni 3.1242554908320828 4.9441971848009985 5.691320356731838 -1.0467786293709649 -0.9325211188762649 0.4603213111355621
Ni 7.086393387803967 4.972466608590758 9.255775995767106 -0.4851635669902225 -0.17930076404827833 -0.5580144895136777
Ni 3.64834447254401 1.247633931206878 12.913824392233892 -1.4728813856432892 0.2503647698746398 0.7762546109396309
Ni 5.297823515313745 3.719314169979627 5.526108278591049 -0.15209129351302195 0.9172806477774267 0.3686619976563522
Ni 6.311969116210519 3.5763594449556515 3.489369153878488 -1.110027510028282 -1.3578474019938809 -0.9827481333526172
Ni 0.735156377936166 3.022149002045723 13.168225703328941 0.24405631115810872 1.9986655543683511 -1.7465812306994435
Ni 8.913009937406647 5.073050102148007 7.087825191343435 1.2222929297936176 0.3130174117088545 0.7741478490092732
Ni 4.6088467970376 3.437682268260356 13.090882928943845 -0.746310772192347 1.0557674631331366 -0.756292051774775
Ni 7.320417586805797 5.024051021073104 4.526747952983321 2.220920453380652 2.460873283893349 1.2665411009787155
Ni 3.6793778506384562 6.10332817102723 2.3383908927305668 -1.4852514771728678 1.5947606743493052 -0.28535337013468276
Ni 1.2273461305622813 6.544235289855286 1.6568636893899071 1.3454114902233734 0.49166665821606287 -1.8034702305770038
Ni 2.125903914533513 9.069257966467443 0.698743630273213 1.037602876408968 -1.0394954654459903 -1.2333697564330695
Ni 0.9226427313629801 6.4221136353727495 9.02077501155352 -2.4105861056030227 -2.1561674773739834 -0.19443350592465872
Ni 3.5998530565454785 5.065801773002046 11.358010496175085 0.44281389837941804 0.21568213089078986 0.7512737726245771
Ni 8.650124038692624 2.445479080108944 8.27778366927203 1.3827757898044444 2.5525056007893654 -3.143049687499632
Ni 6.0133304344328256 1.7956583811491773 0.1382663440316398 -3.508674183881241 -2.4651374584863412 1.3487688367313801
Ni 4.733723004619704 9.205801069600957 1.3240093215853324 0.6090817405031381 1.2479222003259476 0.9995796030876593
Ni 9.099116193922143 5.193009479453408 0.13721998990200882 0.28821552217382623 -1.436200485282488 1.1954303010748188
Ni 6.046319263191811 2.5109678749607793 11.388309640149817 1.3992151663073902 -0.6118500472768947 1.8075343733440483
Ni 7.74715708952106 2.7391445243792267 13.517156131885256 3.0060919071939387 2.394764308079418 -0.9814602677791291
Ni 0.40011058921859033 8.132832128280995 10.833549226740486 0.1778756015659775 -0.5356793163515872 -1.132971520418965
Ni 6.29080700348995 4.754997931801688 11.870886660542801 -1.7907800367038451 1.9511299706812333 -1.4351725582386057
Ni 4.192429817541877 4.623569084252354 8.793672919880056 -1.7291110989391383 0.6540428785948608 -0.2817006038734439
P 6.908889233971423 5.143577942943079 6.6110402534236385 -1.8167119260782583 0.035677398796951455 0.3946928745024751
P 1.4381305505124689 9.176760746991524 4.902798037943469 -0.2956483243027876 -0.7178640868158799 0.18623220106078897
P 0.797532433773439 3.238245102887568 2.82589414460537 -0.10429242886218815 0.43096651212252873 2.091578023528372
P 7.5318882947295975 8.568145530063855 1.369527136405047 -0.8030467914318105 -1.671686281162766 2.2350622920986734
P 4.462545242991625 8.17246760905839 7.4856841919362695 -1.7874473727861862 0.3798709789982942 1.0138795646500989
P 9.088361215267176 6.188681712293354 2.890413675209542 0.9937295720647853 -2.86771127839879 -2.0747195572101367
P 8.507517158258015 8.061288957333181 8.900323951220447 0.569855962233296 0.49229066495330703 -0.27833888649006255
P 4.184062744986876 1.170356025137098 4.521987182711577 -1.0931854987702785 1.8036576639974613 1.33969489945457
Ni 5.668513033115624 9.113998301623901 6.024233952128656 -0.5039927838815836 2.0253325221365768 0.001667103289777774
Ni 7.528654280169013 1.0532452129824441 9.406086223675388 -0.42783773668555997 -1.4000929409266532 1.94679277675846
Ni 5.127323259294094 1.9356517265609896 2.648932440308132 0.2362584123802447 -1.5294204583805984 0.04394992321838882
Ni 0.7047575811871836 4.461501709223529 5.023731380099093 2.0875323927040883 -0.1704476845330226 -1.0495389657249214
Ni 5.194588881913227 0.005409453424884618 11.888485716523654 1.4965540466698806 -1.013881621532628 -0.5797097150989242
Ni 7.726154797287497 7.540716026335378 3.1721828345235354 -2.0735936711358094 2.229096818543858 0.4107134183004475
Ni 8.052733860675822 6.451718030289264 12.397261075218907 -0.4161073356225092 0.4483319999841698 -0.4513720723620743
Ni 7.860676641320646 1.1326947974344774 1.8275378677042413 -1.334083981025696 0.41167989597877486 0.21450276587070802
Ni 4.855299389205396 4.409945500356537 1.509690643629495 1.0257737449845237 -2.5240869404373565 -0.058300278402789917
Ni 8.607564783123538 3.0862746221554516 5.7011032507776065 -2.307044695974246 0.5253293405758307 -0.3222178472611999
Ni 4.492497482497503 7.382672367097048 10.156301451969531 -0.4529638423292263 -0.9072230064311085 0.24570156007101557
Ni 4.351056351497522 5.956669371186771 13.580559739441926 0.10468040832922618 1.0420845663294054 -0.25906461164148287
Ni 0.22069799074709567 2.254991862008471 10.306267595770494 1.4190609973887238 -0.582902253894293 1.188426873173792
Ni 0.7751011583619432 1.8480983032972593 1.3042996950554913 -2.571855208960571 -0.09293740886068509 -0.3427457920112226
Ni 3.195939679856666 7.4349054627325355 5.432392365372484 0.9535200897254351 0.9557098982879024 1.230893784088751
Ni 3.43073477767817 3.330649547992175 3.9535639979042885 0.12546597761600972 -0.3174708194945177 -0.8600854295133575
Ni 6.268356925668218 3.1311653765937972 7.538879030855326 1.3174232325405633 0.05518898646731785 0.9683188453011646
Ni 1.5558900458202631 1.9926324307810552 4.82864791281644 0.3492136591237534 0.6340376391175274 0.8286022713034116
Ni 0.6721495012354765 0.3467117441484746 8.703190081101564 -2.211651112263585 0.2672155228833914 -0.8657138314437284
Ni 7.452617333174806 7.37810338140971 6.978573786667411 -0.2670291179041982 -1.5241484113483816 1.8790634917322864
Ni 2.186654502005888 8.210063028325186 9.122252559717486 2.782566111889014 0.9664018307841097 -1.649480177379372
Ni 7.942730359590359 3.3455598593092883 1.994112180466625 1.272956517586756 1.7027732323755576 -0.0030752964912140585
Ni 1.8201297180712743 6.469486307962242 3.974065205905063 0.7709558244345368 -0.7765340898532626 -1.0159860694701406
Ni 2.63274168485395 0.2295022193400822 6.857984528619107 0.06850730084277878 -0.5891993997569143 0.16871347545073526
P 1.6918972802620527 4.912599734399473 13.022855808710155 2.1738414976149785 -0.09723037980908417 2.0395504655081713
P 8.146369863650884 1.4951112547325345 11.752746416427728 0.2268797993788222 0.5712551565736679 -1.1338346397502086
P 1.766636860949979 3.2465839718272145 7.147032100935438 0.7839452947156692 0.10403300455321439 -0.6767079242925442
P 0.4441336124245465 8.183006359995645 12.902926515261132 -0.5119382639809054 -1.060642788947567 1.4694656750935209
P 3.8331063567276344 2.2762761903955737 1.045304015019288 -0.408023015952478 0.5036050615248617 0.17576781119435536
P 6.57950861145794 6.691561575259121 10.562993824891217 -0.2840575341413946 0.4059627909893395 0.521033027193322
P 2.399469582261559 1.9775622989769364 11.27183434946114 -1.1765180375513478 1.1386364320142262 3.3135284823809066
P 4.178657052044039 8.28151218722182 13.398713168965386 -2.265007416397538 -2.0601678846482065 -1.56676213225385
