# total energy = -340893.10492109077 ev
CRYSTAL
PRIMVEC
9.04327456042575 0.00000000000000 0.00000000000000
0.00000000000000 9.04327456042575 0.00000000000000
0.00000000000000 0.00000000000000 13.23574642738767
PRIMCOORD
 96 1
Ni 6.464666106349737 2.2393317841962506 11.48370420722858 -0.22965196280732064 -1.4810811478452621 0.5195515575517891
Ni 4.600367955494369 0.5083070814042181 6.175574327101878 -1.4125892736214511 -1.4716385143751234 -0.886523311989912
Ni 2.7295676903332917 1.6954330876696646 4.555359578721744 -0.08096738098300249 -0.8317991809741546 1.528456551805432
Ni 3.5966277981457506 4.308206888909433 4.807051087963867 -0.3404829641189749 0.7689483070862048 -0.3909521765131202
Ni 5.001826036681266 4.597727319364652 2.4935083852481226 0.12868268478109451 0.2333324969827014 0.5094556067683678
Ni 7.268079648816457 6.043954893929382 2.8994618781476316 0.6549885303375816 -0.1599804664531116 -1.5850300773251023
Ni 5.20809408285503 4.6222165064854615 11.645497429820312 0.0808280271916608 0.14714629080292077 -0.6304661197161852
Ni 5.724700177191585 8.142238727046138 12.39117328244526 0.543462816951748 -0.5267779000968993 0.5331570641503656
Ni 1.9019000858805997 6.6386315763065396 0.30561112862510637 0.39760079217788946 -0.7085248116928249 -0.1886886330210815
Ni 2.9303826420337002 1.5664669512110714 0.3734239304946846 -0.49623576564398414 -0.1855629429079062 0.1622543500889528
Ni 0.6315551554490418 0.08663999487800293 4.712520836157169 -0.5829865860779831 -0.7231916696763803 -0.8893993479861263
Ni 8.49879695075341 2.5468392874665686 1.4680562303521059 1.586982830176099 -0.5461411351148594 -0.5141728097383791
Ni 6.939383753587476 0.3614280269807428 4.9000448874471445 -0.36942895772936374 1.448601172939686 0.626028909880438
Ni 0.7568325402730052 7.595681307841 2.318691038841253 -0.10760041018949856 -0.3913344995532035 0.9812437808929488
Ni 7.793955099430276 3.715646332745817 3.8918255962798627 -1.2529044840318873 0.17507464178207266 -0.3837068078046166
Ni 7.598837410612478 3.864742798056302 12.875191033093278 0.27479770610602355 0.29559484535703284 -0.42193345538598304
Ni 7.786042234315538 8.47560095187421 7.194805613526548 0.4207970277886946 2.0283882782437646 0.6507770633593953
Ni 7.238679963687302 0.5210056473403486 0.7397235694037805 -0.024311580162171033 0.2327804811339733 -1.5625244400234186
Ni 1.7133930306615142 6.610497949595742 9.159599864321406 1.0090456335965652 -1.104323260554653 -0.24704521858310358
Ni 0.2541829313439638 4.985629532200702 1.5023899260030906 -0.4266586287757942 -0.7608308201853929 -0.1527834344840401
Ni 6.117449585115063 1.8728802182769517 7.077722339651686 1.6589960872896072 1.3446843822493615 0.6142766544405163
Ni 3.4309007511826914 4.097860325973673 -0.00018900443531201188 -0.12523766365528755 1.2762297890213892 0.8985676447489558
Ni 5.920206726809307 5.682829816641604 4.741983824207242 -0.34221614475999773 -0.5281704095690517 1.3050672820783717
Ni 5.2439506659178114 2.834243591708246 9.50133344827715 -0.1766738679483925 0.8822192852979194 -0.7483301166152209
P 0.1727663317691292 5.299612019953479 12.589060926216936 0.9119312105400551 1.0646616802989728 -0.74661673346854
P 3.9544520802713814 6.3448427203265725 12.641407920178828 0.6773663838121496 -1.8941718081286345 0.21712426265395512
P 2.415757024794434 8.516666461001092 1.2679566016580697 1.0826023239377938 0.6768904726169955 0.5293382046249078
P 6.239687525407525 7.7496159249644965 6.0282467262673265 -1.6820624821907677 -1.1972830380128414 -0.9479395103138643
P 4.85745920389079 1.1838007942623734 12.623486863266972 0.19739130300140198 0.12632986827820178 0.2122923884829505
P 4.139549821035318 5.98507413420132 8.492981220975938 -0.7207987439641715 -0.19599956486019796 -1.9370246416281027
P 4.954538754755596 0.8507089633393655 3.8424429876718103 -0.5689910431298395 0.048532400382748676 -0.38724927374023627
P 0.30711864247039405 5.732178965134315 3.5473781256716252 -0.20843316263786038 -0.0599810085393225 0.7080085341780387
Ni 1.489915633272498 1.0834204482354197 2.5418989466526476 0.7421126749505993 0.26990438256946414 -1.137692580043718
Ni 1.9582577720463634 6.394336561209951 4.720052075091515 0.03878046320230741 0.7212204048826224 -0.31220622866146874
Ni 6.19986094487575 5.710918226980318 9.248450939794326 -0.4771193565295073 0.2870680388329443 0.8460775452700396
Ni 8.69356195186895 2.3837800064564787 10.225408535630024 -0.032436780372466716 -0.49365540651131756 -0.3756186314798434
Ni 2.316868819046259 5.153318969712215 6.897504349763079 0.3102174803662141 0.5014589617161364 0.8177375606747659
Ni 0.6962561665917844 9.005988996422031 9.205316329480869 -1.7308252534167679 0.6649608110589451 -0.1403776046205195
Ni 1.6283319914966918 1.1728132158459097 11.320771532060325 0.1718769607803814 -0.7356967441219265 -0.6532831176107008
Ni 4.196766618270681 6.891445355903794 1.5774491036628848 0.2893666050591339 0.7643411473314965 -0.7280194300823268
Ni 5.355336676910063 7.894968474666409 8.074215216882648 -0.34507958235072184 -0.04734429361191846 0.6224854155035537
Ni 5.30857390490057 2.7764208950869533 4.845050927063441 0.3978931266073276 -0.496095640521694 -0.037971594147766866
Ni 0.7488871193703671 7.396286150224036 6.827513927413924 1.1685499317442067 -0.2991187993498913 0.21195583107913818
Ni 5.09089324641275 4.33955087803821 7.361338416240148 -0.19639088676134564 0.1819446294290286 -0.43110278059007695
Ni 8.19653454664486 7.200173701220385 9.152743253658555 -0.13758255837388564 -0.4167166870717339 0.5949342453581624
Ni 4.4109565728336 0.35243268191830934 10.502749484100638 0.7773416733562225 0.48217748777870506 -1.0324231319802413
Ni 8.18296059174518 7.133217297438083 5.061547820930095 0.14751807232004271 -0.17643167003059937 -1.1360612150878822
Ni 7.216107950742863 6.03697348607958 7.031596214161138 -0.007764217326451143 -0.21722942077325172 -0.2214678843346315
Ni 2.518949829165026 5.324191639818457 2.366154664618052 -0.29678372345881143 -0.6310839558058421 0.47577286980394184
Ni 2.268396868171983 5.371686917055715 11.41899415281142 -0.0641222844012057 -0.9731268082127692 -0.14741060020790098
Ni 1.0260499153349698 3.4682675610730858 3.4415591544103825 1.350289644251281 0.07819984554019435 0.5858785629137974
Ni 3.8593077901317794 2.5128817920313242 2.717603438279809 0.053273514612159865 0.1817353416316999 -0.9811280812506911
Ni 0.7619835893808388 3.4797977359545604 8.065731721152206 1.1674459000467508 -1.5113720855193196 -0.5452829008796222
Ni 3.401754277737208 2.6192216558989774 6.988791683363897 0.7856411943608534 -0.138736983693303 0.25971870028571403
Ni 3.9304241001458307 6.9441405159307354 5.934061927543351 1.2745333751555727 0.18032406310647006 0.7650803394903662
Ni 0.60893340449531 7.09269438477621 11.350353891332702 0.6394127873865116 0.5940001635796673 -0.1983616373344713
P 0.23037108547697532 5.518296481901569 7.999340522020956 -0.5619289940767355 0.9927836632117483 -1.0636332390344587
P 8.42020185279663 1.474569196587116 8.002874633663058 -0.17961520996490357 0.8419054161702211 -0.11159230495771105
P 1.6895368727498832 3.3541685677557815 10.595943139948528 0.4654601750240242 -0.6852090197850199 -1.0723492787512177
P 4.047398854727691 6.297627784596236 3.7000132242614208 -1.2830640383344034 -1.437189845778951 0.5666536532459144
P 7.036825035428957 3.997262941360715 10.438053898922545 -0.3926221080163755 0.9015431824375117 -0.45977109505904684
P 6.286405081044935 7.847030076982726 10.287880379629014 0.7283459601838101 -0.8049535215362201 -0.26245126872552865
P 2.4720152349416122 8.579643824039984 5.754955356080575 -0.15926595688459022 -0.28135067673319286 -0.12248092684575679
P 7.009984596959767 4.027268525875798 1.8231973729582598 -0.8406502036068811 0.9932899134242055 -0.3692163274979254
Ni 5.428288771630734 2.999844032829469 0.6768565343127735 -0.2432119608799424 -0.7037698135063428 -0.8714309364331637
Ni 1.1958464357856078 1.078247695268986 6.73745828778868 0.12783962005450886 1.0968680898281884 0.9893640960072382
Ni 6.765156028672585 0.7436384028988317 9.306992576731757 -0.06907705730331974 -0.071808854412186 -0.12327359795038124
Ni 2.2869717538241776 1.8242726182864222 8.98434482343276 0.8506337971821543 0.11386336038007486 0.979856413627119
Ni 6.46961277745575 1.8835241522655752 2.6211677685534824 -0.014957649751096818 0.07096681812686488 0.782705251660981
Ni 4.079846123335322 6.83374022184992 10.461097066464102 0.8146584075288098 0.24262497802822086 0.008910929336384652
Ni 8.347891830559556 7.070212804575939 0.4076527241624341 -0.7764392161466112 0.410346521879332 0.09324105614403297
Ni 7.540101343275085 3.959136496419306 8.100594448356578 -0.8933688741568357 -1.2244171752254718 0.22517284399004445
Ni 3.340983473656025 8.440296008550856 12.330619516950081 -1.4739396517044745 -0.13363642924194405 1.0143351641302787
Ni 0.02985637048720609 4.863762366159329 10.152373242784718 0.2262244251830104 -0.038285525843759875 0.07056804002654944
Ni 8.237862310729833 2.2291400139284687 5.79171084062039 0.45750749583585076 0.46976188772317157 0.13945792101972757
Ni 3.7355957961093718 2.648910725809472 11.36807690053483 -0.44991991329658 0.0909049518116886 -0.3994296178565121
Ni 1.157900856332536 3.070535308945928 12.686462417650981 -1.2266224104069068 0.7789848653866004 0.6218539525671419
Ni 2.692897212572995 8.684455374531192 8.072349589370452 2.1731529561883867 -0.4316421980333147 -1.2382900765528222
Ni 5.6532402227496945 7.708324333977192 3.6784124589893508 -0.90640205319171 1.4539390402128314 -0.21936857860344153
Ni 3.2071158824635027 8.432934783175545 3.422287936628091 -0.2007370795451833 0.07358702935853133 0.5560751063991197
Ni 3.0465525451924615 4.213786060723178 9.149368303646188 0.44174020569926503 0.056108412957793695 0.016913745036203128
Ni 7.419753447335743 6.108279704856384 11.48882631785828 -1.1294845903116288 -0.10799301764222691 -0.3065608574502333
Ni 0.7915813222197231 -0.16641162283641384 -0.12255897653426034 -0.4946216270793288 0.7269663062274642 0.4275711132877346
Ni 4.728348375041527 0.267621237127392 1.4491684474050883 0.2620712596782906 0.20787626169312584 0.1931171011060803
Ni 6.102148364801765 5.7712006942429905 0.40601589149298556 -0.2839351496309175 0.016220318513604323 0.29134198361794983
Ni 8.152945963955679 8.84164557044475 11.225567556309574 -0.7108557738188468 0.580866968631819 0.14236609580545803
Ni 0.13884862674131906 4.779632784259442 5.6505652221771925 -0.09707405673687798 -0.020756772931377156 0.4870134757147677
Ni 7.663569168888238 8.648978608993916 2.8906871889809693 1.9849289215085493 0.07003659300311163 0.025013491325202083
P 8.702912697615966 1.6085814801703076 3.42149303280685 -1.5832632152326667 -0.22246701502310717 1.6574832501895065
P 2.043038469704263 3.286000365201622 1.487512835259943 0.0509968027628412 -0.08813175994192564 0.7009403144773476
P 4.6167995851097725 1.0860610843651377 8.43638479236557 -0.8900498370859317 0.10477039693987118 -0.9162568344986026
P 8.385448549212704 1.6359283420068398 12.426644622017884 1.0079115199921223 -0.16043143794760112 0.6051597797409126
P 6.419133219660934 7.682749953926361 1.4784460483296165 -0.48717211277981903 -0.6664417664798458 -0.6801516598667705
P 1.8633033906695151 3.3268307491936664 5.733923412769323 -1.290537463893313 -0.16377515760885342 -0.1790940473541109
P 6.7435878191884155 4.07841728597746 5.849392462160779 1.046154879744037 -0.8775419344269081 1.48444775032465
P 2.438111999152869 8.302639285377676 10.208413510018453 -0.5022007249781674 1.0722371786533855 1.839340976331684
