# total energy = -340894.9416802498 ev
CRYSTAL
PRIMVEC
9.01806724775620 0.00000000000000 0.00000000000000
0.00000000000000 9.01806724775620 0.00000000000000
0.00000000000000 0.00000000000000 13.19885297730327
PRIMCOORD
 96 1
Ni 6.202500271288702 1.9760929627041088 11.34231512739223 1.1878784568694896 0.22349057119161508 0.05696716141366318
Ni 4.596824413095566 0.3774286516505285 5.992173696849543 -0.11881376240681475 -1.2270031907850933 0.09802279380339247
Ni 2.7459292753926943 1.5077396499158597 4.7848213516861655 0.3500011880220553 0.5345685997859116 0.2828912817474354
Ni 3.6786318791943207 4.375917842381 4.932319052914663 -0.6866521799894497 -0.7846222661780359 -0.5072652839852683
Ni 5.268156379282061 4.8040956664146215 2.441708390332783 -0.24282449563353667 -0.9465398017528601 0.9375453115637337
Ni 7.486366406427084 6.306433494161228 2.45065701827694 -1.1188551356222407 0.05251118252483859 -0.06218341550728001
Ni 5.078335085725118 4.7253769590433174 11.351237602941909 -0.6727808213239962 -0.5884051859903932 0.6799202605822547
Ni 5.620816909750864 7.851291508098199 12.369278175337262 -1.1270929501510007 0.18084805393074016 0.41377585927585514
Ni 1.6379785744039292 6.475405016674242 0.46333656208248036 1.1074641201764799 0.05914848533569814 0.7153760302867034
Ni 2.738868128884305 1.7309638638649794 0.37844679142166154 0.20176474947874926 -0.07496436932203218 1.2243824653327946
Ni 0.7706885200258047 9.035471929949562 4.610926866364812 -0.38640029547637966 -0.6684212588037197 0.7817128058407247
Ni 8.576840093452557 2.2545708735330514 1.1656158290005716 0.2587020860957415 0.35852388078108577 0.4946473381109417
Ni 6.873381334122172 0.5357823020064839 4.970344634482063 -0.04909161532032835 0.5654501198561165 -1.3376259327406834
Ni 0.8748462927681365 7.387366066236665 2.7237024455086236 -0.7502419889259531 0.1593189216097127 -0.047205968261841286
Ni 7.588937901173471 3.8256804806832045 3.692510684400465 0.08612604236580652 -0.5300876811964226 0.0424334865738624
Ni 7.451809173451162 3.8826927006398293 12.422179058520994 0.9115216338064625 -0.9012544475524996 0.5618248643987034
Ni 7.930659516297859 8.603073650531618 6.9647704257135095 -0.2743865867105339 0.4113083715719691 0.382735959250915
Ni 6.792218730577467 0.7620176485471122 0.2531578839431129 -0.12021398518845104 0.03902934598831988 0.07433444904751714
Ni 1.786848825439039 6.375520905911892 9.260486230210196 0.05848822604387991 1.124847862870566 -0.072712597173378
Ni 0.025615819485414883 4.701929984685958 1.5367552806830915 -0.8506499951320705 -0.4308317863168774 -1.456355362963808
Ni 6.389264440112129 2.060655377530631 6.959107981406207 0.26390111379817777 -0.25918185394563753 0.44144838549045906
Ni 3.3827941892738713 4.361921802303069 0.7807121015635757 -0.09118134540152684 0.47231550738296074 -0.8378898672529248
Ni 6.21125681440447 5.6503781335752565 4.561114671149308 -0.5549415070153088 0.3008602075210302 0.5975742540841708
Ni 5.133633872940243 2.882778443036127 9.344233411774447 -0.12333761841909724 -0.19839814699936154 -0.47147758486269764
P 0.2658616350112713 5.602916046635727 12.233832218928447 -1.327381886415172 -1.218984948466307 0.3505352061486544
P 3.884667657326084 6.181100398154082 12.646533236272797 0.12277197572361437 -0.36116877460310054 0.10237258613165595
P 2.2831761822490297 8.460299612829422 1.5512743686505333 1.1121085609270267 -0.58383222190773 -2.0674608187651944
P 6.300138883352982 7.604737554663506 5.618988947557695 -1.142684891051987 0.10974342467443035 1.1163269698837484
P 4.60551782974191 1.0240736592588429 12.521091923460927 0.16765546649986607 -0.22952006521514665 0.2988020394404209
P 3.96844550031834 6.384746388514807 8.179342635365542 -0.7438713095129189 -1.6967409101385489 0.21326760791202626
P 4.725358922909196 0.9278779379242466 3.8384906449426768 0.2931659242005661 0.15593380718756372 -1.3960100291065312
P 0.005289096330996595 5.521293521670935 3.627440821525263 1.2428450429133562 -0.2709600775274882 1.4012867041244383
Ni 1.6946841800804964 1.0864877013847207 2.676014906892579 -0.8628408807713075 1.7745252654078791 -0.8775694452307338
Ni 1.7455370602347842 6.3810670171541135 4.831967806278579 0.5848987154990313 0.6094288394299118 0.47701368418957857
Ni 5.931336012845843 5.579766668491364 9.171143338034891 -0.19773248839090463 1.264701990887448 -0.2851649082729605
Ni 8.607772063470149 2.214196987303091 10.065748215732633 0.27595573096986664 1.0721088806056374 -0.45506289095010016
Ni 2.3556363510803298 5.223823561612532 7.07763424039607 0.12018313195051558 0.1516719465874162 -0.5618706300349743
Ni 0.4019217217869083 0.02640129312638641 9.2379428661723 0.8151515451151445 0.2054134019749301 -0.16755339370436304
Ni 1.659522736611518 1.2381445351415319 11.630815717952235 -1.1098326204086564 -0.5371011363997782 -2.1441347145791654
Ni 4.10576360744892 6.8522790572005485 1.5399630071365196 -0.6811034822570786 0.7531763889639287 -0.15419574145053444
Ni 5.442980627317355 7.8716452854537975 7.735029685747233 1.4959516371991914 0.051909801495413826 0.45535445404858993
Ni 5.424529662111525 2.6121733047510203 4.883219284996942 -0.3064425867048142 1.2933001142401146 -0.5131230283176259
Ni 0.9768189878617036 7.525288383860301 7.105932033025283 -0.08183050031424617 -0.8474667123080823 -0.08806542548036447
Ni 4.9937907070327165 4.386432908573569 7.24271176155235 0.09196193232129322 0.3459794684571719 -0.5458184616681181
Ni 8.190055197226735 7.066863962905687 9.240437263521242 -0.6516669221635164 0.27967174636887315 -0.3653653291829514
Ni 4.70936989001089 0.3342762989592211 10.368781421360673 -0.8026055901293339 -0.843331092873154 -0.32637146441825726
Ni 8.22100520337845 7.3099279243879565 4.844942099358552 0.918566970689018 -0.9191243858543848 -0.756332160984091
Ni 7.274008963285895 6.1527205411146175 6.944127168405267 -0.6256820680639806 -0.8815783092798108 0.26842856935488607
Ni 1.9691039607322036 5.166423564772304 2.7218411164673317 2.4151274451168017 0.2615603814801431 0.17454473742053164
Ni 2.2795869915589417 5.2775622232261865 11.421006780562351 0.0575096641806945 -0.6708398955475414 -0.025340021426685393
Ni 1.124408673374219 3.194767491061972 3.878891585373819 -0.47421992349452524 0.22755831350308553 0.26836120645206035
Ni 3.95412480982623 2.793499579136952 2.718409741950803 -0.9166437855243762 -0.4946085144532063 0.18934940653353197
Ni 1.067342345015231 3.5715603689847337 8.25712346376255 0.012515873078823606 -1.4190021191263305 -0.7734667637818485
Ni 3.6368782287041 2.3947837801900596 6.884495199967559 0.6299485566498183 0.6583420201908468 0.5543596663699097
Ni 4.107197480111543 6.493224717185835 5.86919972718543 0.6124730255728742 1.8414659930944868 0.33045771867248896
Ni 0.8878521490828224 7.564300541964123 11.653148059220912 0.06885645665208141 0.041196271732651626 -1.2510987982817163
P 0.14444508552851112 5.542693394805555 7.910732293514222 0.7428978898560561 1.236102067762568 0.5235969312657563
P 8.342622855756659 1.5585113674666027 7.844592887885642 0.7578460265254562 0.3532613468305658 0.539532114438774
P 1.8857589849588523 3.2169970263661605 10.199756692252 -0.5386908494844013 -0.3889300038767689 1.734523528203961
P 4.065380703151899 6.16743802655739 3.6502880944230975 -1.0118699904192379 -0.5463884752389752 0.42200776026734416
P 6.785815902964496 3.8812227557089645 10.260352692058477 0.8915588175312903 0.03487598594157865 0.4248154049194684
P 6.295224036804997 7.582453910956954 10.296082273752269 -0.5795086548317117 0.34140084794755393 -1.2476612333550772
P 2.4978693047588947 8.439648239260825 5.801806810235438 0.166983380133506 -0.38344866904722347 0.5987788159152333
P 6.934496774591334 3.826483088651591 1.4080268824276596 0.5509041037211415 0.16415053867040116 0.6104400543032454
Ni 5.262357762162145 2.8837884665469056 0.43644558791470756 -0.38443083045483467 -0.02783759103755851 -0.3279688908123642
Ni 1.3246909247213687 1.0203762517640285 6.943955825131116 0.03953353931824804 0.6433440041201177 0.45664566205618773
Ni 6.893816274081317 0.49296271598970975 9.186440685189655 -0.35993670196821237 -0.13716809654428636 -0.219363436397119
Ni 2.753134710974052 1.5218889971338199 9.021878095662531 -0.22132004590285753 0.9321267116513238 1.269259528351143
Ni 6.417626261017473 1.8691927957686723 2.5076764526872135 0.3002135750759668 -0.13373001739701484 0.5542861328194969
Ni 4.007313369349194 6.799081479610525 10.488349267096027 0.16118477117385788 0.8525189300200092 -0.7120032571597287
Ni 8.107061926068745 7.230388572914147 0.1829874023384793 0.20342516790030774 -0.44021631285557083 0.49999806089989374
Ni 7.629852871427063 3.8863720720005226 8.189703492611375 -0.6964521967990069 -0.5725376228305172 -1.0070021208039752
Ni 3.0024572109963246 8.34314590364617 12.318753552823978 1.4535276637070256 -0.07740074667766669 1.4110507254897375
Ni -0.20145009103148753 4.9019326759542325 10.017982219933161 0.9377962512322753 -1.0617799878758036 1.3696672774469443
Ni 8.571871138502209 2.2392040872619208 5.644053763145713 0.09109367078372699 0.5673308818185971 0.5606773810578215
Ni 3.6663853441261303 2.769195888408843 11.511101779530502 -0.3284800261208279 0.34782114965160094 -0.35042542004366745
Ni 0.9794702995774973 3.3652269946399733 12.382120804638152 -0.281234977090935 0.7548576333210936 0.28092387360841947
Ni 3.111097864874442 8.472464985294065 8.06873604286823 0.09990509842776987 -0.8265147926467636 -0.1361558532296881
Ni 5.67647641964841 7.866982944783508 3.39107548025555 -0.5621951032539285 0.4027458267139386 0.719534018319135
Ni 3.122397502901277 8.361353381041365 3.61599689442546 0.7141611840429959 -1.2723211979956024 0.31215223549508175
Ni 3.3921278886815123 4.441948129398148 9.273869943534718 0.39152553251808697 0.4136570743098037 -0.10203551450721138
Ni 7.158983517928927 5.957903238406144 11.446123900939318 0.6190272817516242 1.118259411019771 -0.37388905038324644
Ni 0.4937400733703268 9.199240027768655 0.48367861595090156 0.5895303007337719 -0.44234930003817363 -0.6880580591980409
Ni 4.493919249867941 0.41395182324564567 1.5957677079137405 0.011607245221625172 -0.5252354953104439 -0.22434520588242654
Ni 6.005257108540949 5.661939295546847 0.4382482995201061 0.05983085611470342 0.31096567138614833 -0.8925962576568691
Ni 7.904227561743467 8.609765056290525 11.397618423640884 -0.5845143355764191 1.0114557856999549 -0.3484356433071483
Ni 0.08774669430559244 4.776554489611785 5.8687506274458165 -0.25035371413104623 -0.6355142236630539 -0.6374335521729538
Ni 7.967155633691794 8.813438100852432 2.337437891752195 0.3506077112578026 0.31674859661651256 0.4551418238171517
P 8.527583411167981 1.408117063098265 3.624022072302619 -0.5389718710599298 1.684824361206621 -0.7021001391134037
P 1.7179778472978267 3.207194387471372 1.660349693360968 0.20352544092359787 -0.28589535868108185 -0.06977562603224112
P 4.92845481117923 1.0848644493138266 8.218384553090662 -1.1275837737444903 -1.1340362142380533 -0.07710969779980913
P 8.447403776932873 1.6328112219782498 12.105921759355404 -0.10151975121305741 -0.3711801360925156 1.688867420927743
P 6.321015708598092 7.876145300916999 1.332542955710966 -0.5591059228056435 -0.6066121959167231 -0.8856326818548425
P 1.8910255361221977 3.2318317466807205 6.053575010044524 -0.8997783772276053 0.19129984539168343 -0.7675781662115555
P 6.775887011130861 4.033375583154104 5.971728837016631 0.6177584423415297 0.256679399238758 -0.12858164042685596
P 2.2696490816582457 8.562654673966355 10.266133273044273 0.7000113749051751 -0.06126913122312675 -0.9730810425764982
