# total energy = -340890.31277650286 ev
CRYSTAL
PRIMVEC
9.08861702391841 0.00000000000000 0.00000000000000
0.00000000000000 9.08861702391841 0.00000000000000
0.00000000000000 0.00000000000000 13.30210970599373
PRIMCOORD
 96 1
Ni 6.5886474515870725 2.132507641803437 11.426166533080591 -0.164722094903155 -0.29212514164087755 0.42441688392946914
Ni 4.790219192217674 0.6035605109209596 5.884480495161635 -1.0739477335865892 -0.9124418316278866 1.4087398179683739
Ni 2.7280847115815146 1.6799308713674663 4.314312850891832 -0.2791690957008418 -0.10819227813722657 1.4869188375729616
Ni 3.383337640357957 4.360327609728691 4.445006254000359 0.6949259899624677 0.5452420203393578 -0.3702185435101947
Ni 3.9315448385095526 2.44212955598213 2.3969873043740004 -0.18606867889973117 0.9524116871526048 -0.3856587893246648
Ni 5.201415489607719 4.550779578249974 2.6050848227346557 0.8923046945583794 -1.8716420024572347 -0.9873493795700544
Ni 5.273188297787749 4.8688357289730595 11.546617064868503 0.5081312315299894 -0.8222048524175002 -2.1167450097123033
Ni 5.614502219326678 8.349757849694319 12.250990332899066 -0.40217607025339763 -1.1893635260554485 0.3656597204949186
Ni 1.8047721140116244 6.463960715431336 0.234693538188087 0.26084124392593144 0.34725139319106 -0.3558697309876903
Ni 2.8148810036062457 1.7954653702385015 0.2881645983838044 0.038094749989192454 -0.8342954650334471 -0.3934140077900515
Ni 7.922792801868369 0.14827715035253203 6.848897271821687 1.022310983246904 0.29516547112909813 0.23603961150121927
Ni 8.625142943762315 2.3178336303559286 1.1053239675149031 0.4569356824927808 0.3288060420016789 0.06202837798665446
Ni 6.86704996648776 0.8131667396979613 4.742653915326425 0.8802387645327807 -0.3604540079242631 -0.052907132411676626
Ni 0.7966336365752189 7.591067371228508 2.648702913277597 -0.13812557536154924 -0.13112908943905802 -1.3421983826027142
Ni 7.834924053041656 3.9570747635668795 3.7527381149067303 -1.9671551424648956 -0.3131099714226607 0.05806425113258388
Ni 7.724715483712663 3.9174665708293115 12.620296285831394 -0.035989273610415436 0.04905767675859938 -0.2554079887255021
Ni 8.120697436301722 7.182824874352395 8.780881848643883 0.04064399877360742 0.7983231607038961 0.11987691356400645
Ni 7.125893777677744 0.5807871633894027 0.18229311707095736 -0.39800831202895326 -0.10705430787804143 0.6998625080321367
Ni 2.1275361683230676 6.304001056830783 9.175688643059248 0.19875784433162544 1.2265365355613198 -0.5176232301808247
Ni 0.39767879737660045 4.760044983890753 1.4196274282927523 -0.8910304558316461 0.04527044180202526 -0.10555535473501176
Ni 6.390124791200035 2.204253184132571 7.151094694800904 0.2167699646383299 1.052113411320317 -2.3560908027686196
Ni 3.3867367831032187 4.6096374617214035 0.7730468578252102 1.24833846192776 -0.3883419925837828 -2.3690530193562425
Ni 6.249478443652107 5.743369719286747 4.654687918298177 0.5619678177344708 0.6980773911072558 -0.8932423758813003
Ni 5.652338131755887 2.909357176967197 9.392765714982252 -1.2854063133143345 0.8750255957629575 -0.24086788612779808
P 0.11051212913565629 5.493087385278679 12.328301744258145 0.3870268733167851 0.7915030524582691 1.3396339643096475
P 3.965127278198703 6.65187695981912 12.401609619843722 1.110847434826416 -0.8829502499266728 0.9254474998589353
P 2.313053017831844 8.425620535509024 1.137973006241651 0.36693113100817454 0.7294656756105502 1.6919347469991572
P 6.655103418842028 7.814992716035349 5.921553872627403 -2.507142599273534 0.16756136412416303 -1.086865984310154
P 4.912761014769449 1.3573122349274784 12.628516939877088 -0.15399082452857996 -0.6145147385932513 1.0539808035463591
P 4.012160870997445 6.155647562095738 8.141675781982505 2.0278581167719074 -0.6292834122619937 -0.14737049099858487
P 4.718310054783154 0.9289202742378754 3.782175236397715 0.31743096739551785 -0.7109974416030336 -1.6495855926089849
P 0.1304125648442795 5.702761778682925 3.6214194149509464 0.38744750579397147 0.7984805122173667 -1.2542044337902336
Ni 0.6289450181068312 9.44543606802327 4.722634418735548 -0.17350652596400443 -0.40435019508658104 -0.20734558600063646
Ni 1.7834320413755964 6.9734413166910585 4.6785382669401985 0.4650783662045732 -0.7100967841656352 0.5341965611584736
Ni 6.128054520987142 5.530923297707889 8.82302303892986 -0.9190259126033076 0.4385366111603028 -0.20994111464195456
Ni -0.4060057882407951 2.453308554850237 10.187168096092332 0.3467284308080545 1.1123957531501423 -0.7883349391429326
Ni 2.597090475251415 5.569331793005953 6.663612182045543 -0.981010324725904 -0.47551627370844557 0.25744301687765986
Ni 0.5989889365870916 0.0008561477181915902 8.912320518343618 0.2977861965813968 -0.2042288947485257 0.22598119882395276
Ni 1.4878793062601787 1.256801219901143 11.165405023710793 0.4200133555451347 -0.0706649706157299 0.5750159091676806
Ni 4.378977451742801 6.903031801055919 1.3040856585281446 -0.5413329150929387 0.29221024515551614 -0.01185355690447636
Ni 5.801100614254401 8.11299937773157 7.825670932108633 -0.054996153730221424 -0.3983412698883398 1.023882698609398
Ni 5.283458434959263 2.792004954702974 4.624199243824234 0.4564407451342332 1.4981306471283813 0.9062896959835617
Ni 0.7172282078671904 7.660077239850894 6.756434227118692 -0.04923559709736037 -0.6763112030747578 1.0229025940843157
Ni 4.98225258009103 4.92431264693316 6.466500983873316 0.42325423107993554 0.18779260356937336 0.6208918457641887
Ni 1.0024562741092995 7.1834792547739434 11.240881443304445 0.19299394526465471 1.3735010493707378 0.07054721409094301
Ni 4.7524105456393615 0.6532352558100036 10.413849109563246 -0.24470705736823015 -0.7251811893025834 -0.30812125995881773
Ni 8.274176911005558 7.390963291489397 4.778157688642175 1.1777655368052038 -0.17761154927131348 -1.3509751003540797
Ni 7.380956724209897 5.969839876844051 6.770959654753659 0.7294075686791051 0.45933066508751863 0.7958777844871971
Ni 2.4852641321024835 5.663071788392663 2.4711195175183907 -0.6602587775975856 0.8969625050453649 2.083263590125406
Ni 2.821842884202156 5.154890859359069 11.48186248670957 -1.0164462969360109 0.46288392965641567 0.1695262011600177
Ni 0.9983663964746263 3.6325929606488736 3.7452890844414455 1.8555214427462883 -0.9770402843345625 -0.9921686553355686
Ni 1.3077701838461369 1.1158367707594066 2.2843584363469764 0.5391788448644135 -0.0674328368316774 0.3668329148674134
Ni 1.422668479529556 3.4159566866487174 8.070230164013248 -0.41573941076012916 1.3315216196151585 0.5002484863478031
Ni 3.7614059289071475 3.121358256314724 7.007777202726685 0.0426304330760169 -1.5014987922696656 0.8256655572725909
Ni 4.279393475646992 7.097500938276147 5.596463132372679 0.11419837512199042 0.9261144440189729 -0.07226419678204975
Ni 0.601061141255326 0.0227242689999409 -0.019397835190406696 0.2294861266534177 0.2062919479251415 0.07771930635935002
P 0.31341277631518694 5.6223366071513174 7.891157143933323 1.1996211992277146 1.0173253571068543 -0.622571804569773
P 8.868554283344132 1.761183107042974 7.984590852928281 -0.17217752273993575 0.9408982871963667 -0.18877682185951358
P 1.8539051773294983 3.469016032495878 10.463293003581356 0.1053712637486637 -0.73312435540906 -0.9206763037225368
P 4.4913672891436205 6.194346893136712 3.503296477968012 -2.3068284661983824 1.82112625309587 0.969898788193775
P 7.192767821313134 4.252482080810842 10.108805131750298 0.14677785171990854 -0.2390380320079109 1.715751646913097
P 6.482955924890151 8.166894876339597 10.127561310582907 0.18900127916549386 0.36378538629034124 -0.3744374666875487
P 2.4773843011930134 8.666250758299263 5.926808002095413 0.4711379421350918 -0.07034229716898853 -1.1491360459939695
P 7.0907208300195546 3.786672284072462 1.5765396736246244 -0.47357329104946183 1.2734643104611099 -0.6655290248575892
Ni 5.364138087765916 3.4559011582140253 0.23243592573374738 0.22963447930582384 -1.5568317605140156 0.25320609597817684
Ni 1.7507039316812445 1.3649103187110045 6.9692014768764485 0.3010535544787589 -0.49549863036764347 -0.5672306087953071
Ni 6.956718261473728 0.977653438409248 8.979230007585175 0.76284862194637 -1.4994159415987078 1.5510619479097738
Ni 3.020410987674023 1.9909887870267784 9.439044043711124 0.07336565737634462 -1.483856139487238 -1.701048279264651
Ni 6.404566603558915 1.8523692010622546 2.5516637499322514 0.5218647790659979 0.49160340907829536 -0.7346266509861993
Ni 4.673021476441873 6.886236036902861 10.310146172258472 -0.5193096167443121 0.6952378647759316 -0.5810425749777348
Ni 8.363963358012084 7.159803407577668 0.24758301476918373 0.23032533472526137 -0.29978368662739985 -0.2466487544756333
Ni 8.05888575231636 3.9467410060766053 8.046139875883327 -0.4699981721036938 -1.1367821524143067 -0.20345087893192057
Ni 2.914719460977101 8.53251175964545 12.346073625873343 0.4529748980728198 0.7201330853557146 -0.7863294786771297
Ni 0.38420401386289715 5.203096883746418 10.14981569808571 -1.1475280780769013 -2.099552814203732 -0.4409837871492147
Ni 8.77445983189575 2.4688137353941313 5.726065901445294 -0.36590706061903433 0.36634851903182714 0.32994915446718664
Ni 3.8522012123968925 2.899350609687696 11.599945433777854 -0.17439098545148676 0.04690540630228696 -0.4357904158737334
Ni 1.2477489574030662 3.5361445574063137 12.546177705612454 -0.6317622128197894 -0.1670502288156994 0.754342641357888
Ni 3.399497201323399 8.221153919626262 7.995685327658604 -0.8011138360751557 1.087759956879333 -0.13194952845782437
Ni 5.7514676770034 8.036982185428444 3.310323327100378 -0.4243472070337982 -0.20574841671684566 0.8363680312917597
Ni 3.15973948576189 8.280157220969148 3.2683548205367545 0.48364815878696055 0.29847628066988596 0.0036522520406066135
Ni 3.6544601730689266 4.305677755912491 9.359803118970179 0.40408408590938794 0.6539603461833834 -0.5758520319157308
Ni 7.5492779104191134 6.534542914788829 11.05906820520929 -0.7382555059880382 -1.3818648479544007 0.8451794589358024
Ni 7.878449439691544 8.88738589769756 2.646481655291122 0.7785274661342075 0.3053796926579386 -0.6565314493446693
Ni 4.527076465202801 0.25896378093393435 1.452816330867277 0.38065336569027347 0.30911293444812565 -1.0809761011882804
Ni 6.09333600417725 5.779560592045122 0.05849342993109612 1.0306202744435475 1.0099586323291379 1.1588113643002043
Ni 8.351611927555371 8.943353600973822 11.070600751277373 -0.5399771723959926 -0.3075293920110897 -0.35604328045107714
Ni 9.560134414133437 5.062814080877127 5.641677184054839 -0.6274664136579129 -0.45666674510211036 1.2713662902815006
Ni 7.3414212404080565 6.0350416149577075 2.3017704087303255 0.5707715320690299 -0.5553739665670371 0.8289871654466563
P 8.561877081062404 1.8502788191600883 3.370129153321356 -0.23770362946720353 -1.0365001302630923 0.9269346259274229
P 2.034196072082859 3.309883438039226 1.6508182135021658 -1.1685854129678328 -0.7819997409535241 0.6395786235404146
P 4.797135629728755 1.1139463384304908 8.144881337186392 -0.5385779780556209 0.6586587801003173 0.03705859541519424
P 8.608210850354768 1.631006846239809 12.236796639783359 0.4510455422605909 1.1090317217739158 0.6782117625315804
P 6.526335893668585 7.721679885646038 1.2287691985930929 -0.7192128875342904 1.0155926906864636 -0.6399216087021302
P 2.0565540698190725 3.4004878605726865 5.766238497296446 -1.1028304780592104 -0.6383545213253264 0.44597866926064483
P 6.941849284117451 4.074181593173022 5.934377002304648 0.17107760480753764 -1.6172238884488277 -0.30085969330039797
P 2.44580135723637 8.593123746191306 9.979628618813386 -0.16395539194045958 0.24818910237955963 1.0064184803863636
