# total energy = -381164.68867986934 ev
CRYSTAL
PRIMVEC
9.27548412967801 0.00000000000000 0.00000000000000
0.00000000000000 9.27548412967801 0.00000000000000
0.00000000000000 0.00000000000000 13.57560860409815
PRIMCOORD
 96 1
Ni 0.601695098342449 8.627489649621351 4.72944327512629 -1.5441981309104051 0.8605117184174985 -0.8185436015158291
Ni 4.2299918397286005 5.2565560596697525 12.995319823123934 -2.9752972904105857 0.42659203720391686 -1.1679148692633692
Ni 3.0845251871204002 0.9188211223815004 5.232283972470818 -1.0152355644573612 -0.9894309446894315 -2.767146177789518
Ni 8.66274576527526 8.85376508802627 2.1738618531413234 -0.6845644442224856 -0.683971290723177 -0.1326354987812554
Ni 5.343235460034334 0.18062335999781376 12.909209009944195 -1.8868048262406023 -1.3846580944288218 -1.610357757456614
Ni 9.060320846904693 3.010673781480721 1.1919720755667815 -1.6078406474617146 -0.4835892805245671 -1.2354374375953756
Ni 2.342347314442819 6.627732346143307 10.894046054666735 1.1456511727691625 -0.4860801652672209 -0.44994562432819285
Ni 8.438381076626905 3.6770152948880166 4.322486968721175 0.674486234050877 -0.6417332079895723 0.7816958365598602
Ni 8.407336030824846 3.9484808925841333 7.354776338710149 0.7145579052607823 -0.36076485429646254 1.5080273374168027
Ni 4.472313865894967 5.047356787778605 10.361122179237407 -0.6066461344784521 0.8101972864336626 0.19233497152441714
Ni 5.538206139078048 2.405031037039271 12.045203216865483 -1.19485308841511 1.7986039036236379 1.9732807957466596
Ni 1.4109031855384553 4.334712056969492 0.3213806886668986 1.663518400639993 -1.452038737866325 -0.07983043916508187
Ni 6.972288759770177 6.222041215790597 10.366308102484474 0.233295730207495 -1.0865831629624125 -0.09867354001351394
Ni 4.9008876159051855 1.98737453199739 1.9085403362158326 1.4781997125324091 2.026504688067807 -0.8530658036624146
Ni 0.8782418063135488 1.986511911961659 11.751725967483418 -1.2100858462044641 0.8961860318906566 0.024911932750331288
Ni 6.532816315760132 1.4684297388890317 10.414731695587024 1.3455174196736182 -1.2348445412063829 -1.4166248771434053
Ni 7.483674033210571 7.580435884960524 4.141646562391791 1.1348260571292004 0.8748659302566417 -1.0366451404813888
Ni 8.96138853183903 0.6994188178096639 13.51933830611987 -1.100567907277279 -0.12345486072325192 -1.2672669234011467
Ni 5.28205436588722 4.639866213480393 1.229839240038521 -1.2108376367688243 0.8059102290225345 0.9519221491106961
Ni 2.8951290741140445 4.907222771651468 7.900162754784726 -1.4262960816845822 0.9752106873249914 2.447756286895417
Ni 9.228244213860325 8.299156057956775 7.357110978097175 0.8705030253022557 -0.03460344900648234 -1.1968356660627775
Ni 6.908315744862257 9.023005573746136 7.092196654930487 0.056884629002185896 -0.0717314642070313 -0.23532947280807215
Ni 6.411678491387588 5.468389569089369 12.682998499929061 1.3629392146944914 -0.514128586764005 -0.4681222952372196
Ni 1.5569456851361372 5.53672206159722 4.428744133703148 -0.5066222510846308 0.2931857216949079 -1.7757437111960128
P 4.993586805551373 5.1964138197592185 4.046142466306838 -0.6434458198053047 2.3463146972184625 0.014643460944787683
Ni 3.9532299405227813 0.1825888351114847 0.9603483929403305 -2.7607767839280646 -1.224847063674039 1.4863100003443694
P 9.227910296427138 0.49664189121679747 10.50954384054654 -0.56922012842151 -0.4555858533331057 -0.27548341931913845
Ni 1.174786458338799 4.301042049123217 6.126427668991434 1.214610473547695 -1.2407907314874889 2.584514035375162
P 3.1146334090126877 2.860717027527357 6.344262416724146 -1.7072448949936663 0.41751321483110027 -0.4713839967076269
P 1.8908074654167952 7.852624970428544 6.043697769822704 -2.1065433865889527 2.0064655100287445 -0.3197184778781139
P 7.249319648019397 8.283128021163838 0.30096998556339283 -0.10300970549502259 0.6020695708513631 1.2834705297442024
Ni 0.4970704185893864 4.711055555138837 11.628024399262744 0.2213359867424575 -0.26132795375436285 -0.726460056015007
Ni 0.05993910680534644 7.424950942391077 10.49609067818284 0.20387819627732628 0.12204589619086723 -1.366655230093498
Ni 6.642610222888602 3.4266514238724164 6.062296970851175 -0.6733606050868662 0.02583804410902647 -1.2543029070413108
Ni 4.9400208839777555 1.6079422975710724 6.325351559424702 2.056365480182981 -1.1479564238635713 -0.3933394457983742
Ni 7.311585973824367 8.346767118638573 9.592471146947139 -0.3106846498106197 1.9971781711895475 -0.814216949116017
Ni 2.2907199690785323 8.07608066161989 8.83658132589514 -0.801350377565994 -0.46990278417641007 0.49879015663472154
Ni 7.657357475888665 6.743805756112527 8.001844323383622 0.6414172194110501 -1.605196010750016 -0.2568256950086351
Ni 3.7907883847619552 5.12127312180807 5.951370527095149 1.2652342092418338 -1.108296129159472 -2.691229728966862
Ni 6.998863022161245 2.024114725132126 7.911810907912371 -0.26184320282788454 -0.13515672254121242 0.5833570820435244
Ni 2.9905088787099774 7.215046733696537 4.293395339903253 1.0219859958073174 0.11899528229000152 0.49310287644195716
Ni 1.266511722138194 8.474453434895269 0.6359401862125438 1.0900027301669226 -1.605441808212235 -0.5297153854586684
Ni 3.6242841668973638 3.8917613063637564 2.7821444004017954 -0.9287459681045488 0.9108526327638957 0.2799877349473952
Ni 2.9859175140036673 3.6115118250779927 11.892504629766291 -0.18471679285752704 0.1549174501079074 0.36154621254717734
Ni 3.513228793910191 7.249848350621942 6.8478627762291735 2.803958204411545 -1.0635414506516008 2.3138156961494927
Ni 3.0228339413392513 0.5988085676422396 7.439990212562413 0.6232935132271459 -0.3300041760748381 1.9595199945171413
Ni 5.10669206055894 7.282729942306527 0.29718466043885716 0.988026351032421 -0.4107386151114281 2.487705573594845
Ni 1.4232024776608132 6.296894373729835 13.022579543801458 1.4557547532653314 1.700740003995613 0.6476642287620266
Ni 1.1236692646085467 1.8093687136563856 6.736543051940728 -0.567756656502106 -0.2666609359315021 -2.9421717115012105
Ni 8.001134748838101 3.23207031516742 12.172135436252233 -0.3009874771275139 -0.4368471392730218 0.19004977503466622
Ni 1.6223656755878648 1.4472445328502188 0.7623965732570046 0.7569787934291543 1.4885854266421072 0.6251742751896265
Ni 6.313015165365323 3.815071602541995 9.815002072358245 1.4533757115101937 0.2738242864491607 -0.29278000161605705
Ni 9.175902656208391 0.9698817356577962 8.348918103437347 -0.9769104436249175 0.5741090810826951 2.070157648871067
Ni 1.2772341819371726 3.964861397778767 2.592669445779271 -0.42299197855748444 0.6352717686349446 0.026163031548613006
Ni 4.320464913153548 2.6302119683020795 10.01604355584697 -1.8469563267850966 0.2312177646325437 1.6044025683144432
Ni 1.9759007579737422 8.760750531915406 2.79616800504719 -0.20524756582102716 -0.04518996627307701 -0.2870248442998347
P 2.293419134996787 4.5076812873599374 10.115919187661383 -0.7748263631335366 0.24043439813480524 -0.9151052373926627
Ni 6.174532185435607 0.19039322756378632 2.4197976079735044 -0.611092857395896 -2.7116080355128975 -0.6141133893897747
P 4.084580073060271 8.973001438126506 3.4766045443286444 0.7504983279111332 1.2225482403375332 -0.2826670815517712
Ni 7.560679103497008 2.0796748758206056 2.573351394721025 -1.4560913106691438 -0.27311903285201994 0.1932140316952608
P 8.315146992812691 1.724692817890921 5.723354080295533 -0.2040977684873001 0.3077829027827925 0.47608962971341234
P 6.749927575720941 3.5888425415583525 0.2714303508559468 1.447571960344223 -0.7871589165569605 0.14211875568134233
P 3.334647895545366 2.993625441419715 0.5481263941235547 -0.260980340606957 0.20197120906260058 0.21758423300950916
Ni 1.5677052468721366 2.9907036638793363 8.53317930836004 -0.08364312804295272 1.360382766821225 1.3392981782367837
Ni 2.868091037510218 6.054720755311551 1.705612219229607 1.0090623457671137 -0.27369444573951573 -0.5726834043797621
Ni 5.598005186071141 3.2979262533791402 3.8897652221520436 0.7302519189572714 -2.2720018454375 0.582882456399951
Ni 5.193427113829053 7.1267070216502795 11.66200420828314 -0.7870439882456509 0.6679510040355207 -1.4906795901669747
Ni 5.117683509401318 8.513456846188268 5.590625610797726 -1.3279706690391067 2.3615765084735396 -1.059671426173233
Ni 1.5635312789573093 2.79911853658876 4.461650769195221 1.1406285227435904 -0.18491013981525575 1.1519125802978418
Ni 7.156128857707685 8.825632544280333 11.820445247684711 1.0881767327017775 0.26639816918841863 -1.3723653931043978
Ni 8.72637558726574 5.753035629912085 5.93840525520327 -1.4125085409821867 1.3460918041198495 -0.21589733222538945
Ni 8.449984707430126 5.3309176169434656 0.25241560813284436 0.5124787098654077 -0.715659108744761 0.4139908035001386
Ni 5.881714422984084 5.050677411141956 7.711827757177162 0.6925029823432719 0.8640703823030345 0.23357906577586873
Ni 2.256734594767582 1.1884028692253912 9.811418025242046 -0.2680868697447512 -0.9717409836088363 0.3138869587980013
Ni 6.585454688908233 1.0239207069284277 4.464365703436711 0.5763824504979042 0.1356873982337018 1.8448418515452552
Ni 4.760512437187414 7.008277638680244 2.7270814156693928 1.3205622923901774 -0.20229773916408383 0.2273965911142406
Ni 6.719411232521426 1.3479875758356243 0.27580745187596245 2.2608733396245064 2.33860035929334 1.9736690323240138
Ni 9.352934548702603 5.1590614446636405 9.304274430751544 0.4152922959203816 0.2512739119524705 -0.6637976439887793
Ni 6.073874630298482 6.624838395055693 5.489012680782317 -0.2181079667234631 -3.364824047331089 0.9781417449288573
Ni 4.652091301728709 7.364567539889908 9.373265482641512 -1.886438701150435 -0.11741379673549457 2.0924840802824094
Ni 0.34383199830654226 1.4348246594325436 3.1280234980834543 1.0712735291885358 -0.09980791072827327 -0.17829392005031874
Ni 4.61111221228936 3.2411231878004676 7.7665104470551025 0.07709144296736402 0.5683966040789501 1.033316333218472
Ni 2.874481846162032 1.6925347139782403 2.770197576681134 -0.8525135307033704 -0.6787645497112569 0.8569556256351242
Ni 7.054645784471849 6.714597256192992 1.779259564215672 0.3813159389749369 0.2776266909143864 0.43053096724700696
Ni 1.7349793299299068 8.822747868676975 11.743933633160648 -0.5338659172919321 -0.31363267669535017 -0.17451696950638979
Ni 7.077277966054469 4.370886445564662 2.5362355444739544 1.8471203631667867 0.8504785025512127 -0.2853217455657989
Ni 4.383816470616371 9.26222031268702 10.85870831475138 -0.5694450999481224 0.771943899379419 -1.5080643613023252
Ni 8.495907629977483 2.862015595323081 9.831211908642585 0.8425777596468972 -0.19433477556326528 -0.27239321042958897
P 8.736318906387284 5.789395528192358 3.772607508073393 -0.482823091782504 0.23091103202540228 -1.5449576347842489
Ni 8.803436310457707 7.400380184599126 12.64289687130025 -0.4395642810938688 -0.19958779643208852 1.0369500733163175
P 3.2757763969777898 7.729854660827089 12.9791647121967 -1.177383985096069 0.07236755512913344 -0.4696341038960557
Ni 2.937202670695504 1.3865643148528843 12.367827747971 2.8171150535084775 -0.42393017410103767 0.6513473340405685
P 0.8900476426735315 6.428467117889448 7.5292769515511235 0.1902130400854079 -2.0998765160917383 1.3825477329540383
P 5.108389474177637 1.2215348989848656 8.768349936165668 -0.23886499676515632 -1.6674385616300058 -1.3117992014855666
P 5.596790097633714 7.188073625482497 7.705121582060673 2.036810955089821 0.8323740796410181 -3.210236983979407
Ni 0.7066249415275069 6.412531835939063 1.9814011201370592 -1.757404803677509 0.36432300396136613 0.4105810064876413
