# total energy = -381172.5025574562 ev
CRYSTAL
PRIMVEC
9.15892772230093 0.00000000000000 0.00000000000000
0.00000000000000 9.15892772230093 0.00000000000000
0.00000000000000 0.00000000000000 13.40501652018519
PRIMCOORD
 96 1
Ni 7.135088592017693 7.007504729389883 2.2228864030114863 -0.0399063492766345 -0.17390016185799725 0.17349649866167538
Ni 5.685074637987025 3.7772333658532418 7.08917580343428 -0.6878197179349896 -0.010819716323323302 0.2872197339194602
Ni 6.869745298105968 4.794094152959496 4.760174980177312 2.606227515792854 -2.23868729044577 -0.6389623301126545
Ni 1.4089361633712467 2.6165957319751727 0.5975128718788185 1.587892486474562 -0.5627252647257857 0.9921084915215945
Ni 1.490441460824577 5.985936253454432 8.182086830665714 -0.17284575245155395 -0.6499244855511129 0.20651126302479914
Ni 5.280744616481831 4.939492129931248 2.8548533290491926 -0.9559767787960438 1.0343766561621863 0.7044580978226189
Ni 8.534288815261634 8.263669979004353 0.7108307887471842 -0.8732119395929865 1.9989943984626801 2.7160627288501415
Ni 2.965651624911893 1.2731367426115512 8.012178647320791 -0.5071786378087331 -1.081797054427679 0.03784972385792191
Ni 5.988949540662225 8.024585330760534 4.955365467499106 -0.5798344136022465 -0.4670172350984989 -0.21435878409367595
Ni 6.527741779485359 7.710800468332049 -0.439953670729234 -2.5744527944844178 0.593881635723932 1.878170804714688
Ni 1.8714894881589248 9.385153197036486 1.562220892971054 -1.1638831223961568 -0.19025032108124657 -1.4182318166192092
Ni 5.021327148781175 5.616062117893662 5.356697771973569 -1.6783456954608127 0.42117086618834565 0.6675380848678181
Ni 2.808869100829849 2.05558393459245 3.385892535588447 0.7516491536861248 -0.4017888621173081 0.5835247179696402
Ni 6.479052919921148 5.94496836992721 11.434171096372808 2.131075310292046 -1.319622039964095 0.08405219055591331
Ni 4.868913433204047 7.355360802800096 1.6764583661788188 -0.4713906815758462 -1.054640548617545 0.3438765631815562
Ni 6.199064500643892 6.414345095838917 9.014016045348193 -0.13380920737438246 1.2997404705488194 1.1293694048900034
Ni 2.8779457334169956 1.055786229760109 12.72223231164423 -0.8600682031221769 0.21030261174643133 0.2998181394097611
Ni 7.460972397915766 4.648256547458948 2.1892942039475938 -0.5563273316192419 0.996236397647039 -0.5176417421235859
Ni 7.50717002915013 0.08840380178436183 3.078408099513275 3.581768332763754 -1.201307328680886 -1.3336350664137353
Ni 4.8370403648663025 4.452127270049619 10.450162466973637 -0.7463832773014952 -1.3791831873571796 0.8329911443997268
Ni 8.55618781135231 3.390955590811753 13.41641033807771 0.47494574591695626 0.5669570434189461 -1.2954845234859431
Ni 2.3047708800709037 0.8201718992154783 10.287170189922344 -1.4916771781935536 0.5080993498507894 0.049233283104515205
Ni 3.7892224021906293 5.761414300226997 12.944768609349934 0.4372279196512083 -0.49197853302952693 0.9624575014243811
Ni 6.944198221243189 6.014869306005851 6.887082232317612 0.503953703113532 -0.8789131037428217 -1.2590044262820383
P 6.210091849574536 8.280009505991288 11.024781683215378 -0.0011495402234109233 -0.5438824209876698 -1.2761480279408604
Ni 3.8531150817090505 8.921143602747168 5.542625835729283 -0.23646307219188312 0.32964884961794844 0.63985321735804
P 5.856090135688856 5.451109830318149 0.7525735175564098 0.18171014482071932 0.5385448108248403 -0.6983884945897715
Ni 0.20887484117335342 7.682133024683445 6.666797199036453 -1.4053377342653603 -2.002772377447873 -0.05982339991553568
P 7.143212560872745 2.5286975029989267 5.5720095075227185 -0.3551904455324786 -0.4109988107513502 0.12976486210167973
P 8.073310826035478 4.232780110963226 11.291715882865686 -0.6564810557227081 0.22938251119601785 0.19601242037600436
P 3.9398043322311063 6.768355968652282 3.951061570246601 -0.3596024585572452 0.7546869120711841 -0.6362490449465494
Ni 5.803865930038907 1.0951879366534936 6.604101591366234 0.38151262836677524 1.5472114638154322 -2.484581426143566
Ni 6.3547845891146775 3.548553259457607 12.653450596528485 -0.33991063655527265 1.7052260647914248 -2.3993624689730613
Ni 0.9522445523008553 7.161924250129645 13.165964955935577 3.318658090297988 -0.5042851183110219 -0.8904308745744344
Ni 8.43627913012307 7.968981480795463 11.75756642161934 -0.5441467303926499 0.4229441560386845 -1.310192519120079
Ni 6.900345275495741 4.18946754194909 9.25581539975733 -0.1746252129494799 -0.5042290682621058 0.39193228103820243
Ni 2.2542685528254087 3.450296283271594 9.336928695105817 1.86685795080503 -0.4603763327432136 0.48507177860736467
Ni 2.511973301049294 7.034459453561715 1.779127197829858 -0.0010801204380562043 -0.6018178598518732 -0.07239249482979791
Ni 0.25923703682529503 6.615786551304536 10.208885171442446 0.5104817340400369 -0.17493785909389228 0.7381637176051803
Ni 1.8838448816036426 5.666729305837456 4.121854506005728 1.5071469916943787 0.4735388382671006 -0.7556158516433567
Ni 5.01462281371703 2.8924076802288634 4.949212499881492 -0.5497370799962339 -0.12399556371807033 -1.1508676839730951
Ni 8.059920473762551 6.100926590517761 0.06032710897132841 -0.061814719313951605 -2.4130949880678054 -0.05285262502465737
Ni 0.5995470697172706 0.49269627168605484 12.66392016676322 1.7260746261056596 0.838102497484363 0.27268528774871104
Ni 6.475352713137112 1.8075143782913539 10.760166524054474 -0.83464924882844 1.0071314472929882 0.19316878027962214
Ni 2.856990106877697 3.982384187030582 5.446015634740721 0.08510120064571797 -0.14820429975378993 -0.9654230118106083
Ni 8.611132218524185 -0.1051060223075547 4.962336327358836 -0.31556228961789523 0.33667618877837496 0.957898678409105
Ni 8.652759544844603 1.1975939070800232 10.654481657517337 2.203614358002037 0.19638111656933277 -0.009242858754506663
Ni 2.93440136365661 6.205356683962291 6.339701667005885 -0.17178465817689123 1.0479515666331436 -0.20434202328762227
Ni 0.5500916079059718 5.432627114253331 5.883970827449467 -1.3325978833984726 -0.9706125264313478 0.5788751350127708
Ni 4.050535767921719 1.0031315545090476 1.523452983873351 0.1106548807451062 0.9797034329890223 -0.7430490707219396
Ni 6.843798055979293 2.5516589347008596 1.10270741628145 -1.3381581510950695 -2.0312691993359855 1.8163923379553104
Ni 6.983773947762556 2.4081934914702754 3.415584863244807 -0.5907747146638342 1.1528520613929758 1.2999459016914063
Ni 6.096695165928095 0.09289808759853749 1.3310486423528043 0.9836832435723768 0.2695212881984326 -1.1291575459895136
Ni 2.8282768685906774 4.216770305372887 2.695882737143618 0.43487330337610264 -0.003272500103684686 -1.3293528940986137
Ni 0.7894134723767864 0.8940065947340784 3.492100376896298 -0.03498808603941071 -0.09532879191099711 -0.35770498442421617
Ni 4.047284348594162 5.318763325295043 8.338805242253976 -0.1312717856645094 -0.32677332784236623 0.13124787440510943
P 4.759903875917886 2.961658332441992 2.3120439845441805 -0.02496695435798281 -1.5083623521587184 0.46235171130202957
Ni 7.571163456873067 1.0165585424927068 12.639710373218056 -1.189672572655435 -0.051533649102917696 1.772205101915135
P 0.019186121710892973 4.80646786425958 3.6744353933218687 -1.2966592605203346 0.2754656787073256 2.3362873948894474
Ni 5.141446485347131 1.2280198648438128 12.757996092461823 2.137998005553808 -0.15100243132421737 1.706103068079739
P 1.9710653499313273 8.601387119469198 6.832442817437587 2.519711179967164 1.6702374645313816 0.7452604765509616
P 8.454322217659092 6.402081291671032 8.286310848237372 0.058554817615757225 0.14667937846883125 0.7226959609868844
P 3.9678947634356643 2.398521663836753 11.351488876712176 -0.6423340747983647 2.081873651756415 -1.1389750463005675
Ni 2.563647971038247 5.485382537708908 10.637697922537763 -1.0453766068171157 0.13223646357062388 -0.6992639552161892
Ni 7.881009980397752 6.883135650378895 4.702734765211746 0.38158976146161383 -0.8812103844174308 0.5513116235722053
Ni 0.14081759723735363 4.307223875172763 9.371004485551385 -0.673034332095699 0.8135160663942506 0.364074892506302
Ni 3.083920858085829 7.729924309334695 8.645914162294135 0.09795157424582486 0.5846020101942191 0.22626093484790064
Ni -0.030207975284928013 0.9675308026042161 6.936090738457967 0.33886368334799705 1.1982387170578912 1.1245524431173342
Ni 1.2612026598402635 3.295400498292302 7.173011132090231 -1.4349840963768834 0.3028214450124591 0.3265943790623408
Ni 5.617481751684568 0.663464478340437 3.563267992673533 -4.8707461654794315 0.5537035208431497 1.1961203851633078
Ni 0.7947283981113821 4.935975101700876 12.187907797744991 0.04609885124059158 1.2399252981634 0.3494609992478691
Ni 1.7253679559001953 7.796015131497099 4.739504196288962 0.9492456307197974 1.8245643322431417 1.1844036109470117
Ni 4.529877407152813 0.43854685943708527 10.731425808984405 -0.21064533979783076 -2.078176919631118 -1.72572392763446
Ni 5.043070443101236 7.390540244031497 7.120932553390447 -1.105740966837786 -1.1921369750355275 -0.7570369003605995
Ni 4.455854953616706 6.639993597171393 10.973587856929798 -0.477046594310043 3.2622784259566786 -1.6040367003345923
Ni -0.23812112905153915 3.0578545498992713 2.5406792121941675 2.7734255830403267 -1.3426735224669197 -0.6502106493329641
Ni 0.6896983949035984 5.545034633709981 1.852385796797181 -0.08796566667770656 -1.0660760441479962 -2.4260546335522672
Ni 1.47760980314033 2.8645462222163864 11.629857081682266 0.3915646132861385 -1.063018231158279 -0.7408214669430017
Ni 7.13592205443687 1.8463207548853264 8.553258786279203 0.5939561977156094 -0.003128775436968805 -1.1386713990172195
Ni 0.6331282780679433 8.626711554513411 8.839549463695311 0.9233862464545324 0.32139226603611104 0.33695541058169065
Ni 3.846218409163556 8.091189052873201 12.885706348291665 -0.46474977922056093 0.39261259493467865 0.13234265013118499
Ni 0.21114442345326528 2.6977621491042223 5.025795789597839 -0.7643223782784191 0.7176653405415123 -0.24507523934092626
Ni 7.200281839267138 8.4241160741597 7.034268947865905 0.13054004970480743 0.28683098312147376 0.44341502229852664
Ni 0.2594550193041566 7.2947744961753305 3.177886876652235 -0.32844351645593756 1.5650618617332916 -1.7326008572599516
Ni 7.526019102322279 8.84571067434784 9.422506967699892 -1.3110232425514905 -1.5999638158167995 -0.39250049483684657
Ni 4.7582277921518505 2.3729774145281413 9.077997566465143 0.003860511396670771 0.7431560286134492 -0.08616512313385806
Ni 5.046889715945155 9.219193427415815 8.272624662600277 -0.09099416909138522 -0.12051557558926987 3.021047757172823
Ni 8.079163380825081 3.63933655065408 7.071293913025483 0.37218080944288806 0.6626378193527233 0.6734287393206403
P 0.3206732919390662 2.2124122533129102 9.022902952879262 0.6000445700015343 -0.6226252835155277 -1.3992632459365064
Ni 4.182790683667993 3.3688093036736304 -0.03180529227288855 -1.278333208517637 -0.03623378552105373 0.9429582550491888
P 2.306703413812072 4.667362070606228 0.5912106137399674 -0.65394132001999 -0.0061320810396668585 -0.26632180742452843
Ni 2.1943416889938385 1.630618849016871 5.852724229765258 0.3332622780008196 -1.0906105389542506 -1.5662042028678511
P 3.3510226661127396 3.3510593018234727 7.361163899380209 2.263722379037527 -0.04785774291322725 0.9820930162671218
P 8.785582314107238 1.163064749714133 1.5096459003908367 0.3078027002771344 -0.39805536321680474 -0.697429987331244
P 2.177873937019337 8.035969877870826 11.181526655693922 0.033626172694877575 -1.081303916841344 0.246710203841188
Ni 3.3513890232200696 8.773501688493019 3.203236040801193 0.23692227121648876 -0.47573867413189674 0.8424659166593812
