# total energy = -381181.50061950187 ev
CRYSTAL
PRIMVEC
9.06508659194228 0.00000000000000 0.00000000000000
0.00000000000000 9.06508659194228 0.00000000000000
0.00000000000000 0.00000000000000 13.26767054031380
PRIMCOORD
 96 1
Ni 4.80059789603667 0.6815213670754448 10.06247997436868 0.4813066551379775 0.529696616405591 0.16346585389855076
Ni 0.12555598156817022 8.783833196204915 5.473802952690784 -0.12844022975298525 1.9210658043060012 -1.086588305168735
Ni 2.271139594537718 1.3837945303319557 9.442428959339281 0.9599018248820629 1.1139543558865137 -0.4573475732192188
Ni 3.925980213378268 5.440810570111285 2.594771343742951 -0.45198193803193126 1.0330134572660725 -0.10822467403705878
Ni 0.49051183442140645 4.872193949783856 8.54899668950029 -0.0452429309981995 -0.9606762411542422 0.33188930891269297
Ni 7.370123880184719 5.196805634847545 3.617497130343827 -0.05006092121213314 -1.014995166311781 0.1846363173285788
Ni 6.084014722754723 4.478479109780335 1.701631876200243 -1.3036290069699485 -1.4714482527411883 -0.2668709950597791
Ni 0.6743209688111512 5.853616482435846 2.4604231347084102 1.1492327194728338 0.6493156483225204 -0.279247514347261
Ni 4.928723829648057 8.536029989667425 5.32276410625952 -0.3051158974735907 0.5298449690579972 0.6573020089621067
Ni 3.9961530485336203 3.196195418883806 1.9988543086947044 -0.8139469832840821 -0.8157482981588791 0.7665967761348926
Ni 6.857402583661438 7.689758832720273 6.412437370213362 -0.18622294508940831 -0.7301246493507877 -0.3794135797459014
Ni 2.947975218363996 4.453142192811054 9.37301215240405 0.2815939030922505 -0.9970552940039087 -0.013397761463144668
Ni 7.5840236629422035 6.601395473776113 12.358821416085753 0.37193861152509494 -0.7632036912929436 -0.20413453526250652
Ni 2.951737229291456 6.635697761365295 12.493250304390788 0.5877778368190393 -0.9679367793713974 -0.41365424609632634
Ni 5.761188859745758 3.1073031799568738 10.412533731405887 -0.13542334593903774 0.5900110970249323 0.14901753968370465
Ni 1.5396414986811113 6.096633323263218 10.50185202940171 0.8783986260002484 -0.576358282128188 -0.2412514947194619
Ni 0.37912911570886126 4.052963946081559 4.119558791566866 -0.4729603400558112 1.0061924804184865 1.047364326671106
Ni 2.868764491896166 0.6987114907422959 2.2899469296490484 -0.677095132428634 -0.16001697611800184 0.9306722385929843
Ni 3.371677364748334 3.323614275742562 6.321209058476775 0.7677293470774391 1.467474355695105 -0.10984601169056567
Ni 7.18335590153781 2.136994443442394 0.7720879274922614 0.06605369709596366 -0.6123817514106485 0.013054776301429127
Ni 1.2290988279774686 3.3333592438076707 10.38711341564014 -0.7701132739285833 0.1946332806402906 0.3642397002189404
Ni 8.274638218358216 2.6199641258357356 11.249458784097108 -1.0125122519889271 -1.8191621873909638 -1.341132403232045
Ni 8.517482822540716 3.699489025372006 1.9975933551525122 0.8025605958240113 -1.266355981551103 0.05973906773184551
Ni 5.035492419295356 7.768298742781759 11.430283691987286 0.551932544985656 1.2670743477743662 1.842284375230724
P 6.65493387507149 2.245503529711554 2.8081426319532774 -0.6537163484933773 0.040554524383594664 0.20700182950797255
Ni 2.2559283792695766 6.363826749978629 8.2184328685933 0.7697204093655389 1.864704137686821 -0.4627193790540934
P 6.364379720259534 7.203226571304059 2.1248436014010257 0.5395470268371094 -0.6616289184722347 -0.9176629708175099
Ni 4.8774154396494405 5.051718924259583 8.375986792744 1.3922659886830668 -1.9236299654887516 0.28052226729462654
P 7.880624230497813 5.914968988356454 5.619641158955581 0.5517600239635337 -0.5250128377766764 0.8066939012660944
P 3.9266691599577546 4.789094301176556 11.49659570677154 0.6787972027214051 0.7152932407649101 -0.10119244978062572
P 2.4963435402507286 6.686734198766745 1.459749077703053 -0.6202408424437511 -0.035044393198642866 0.5882974567679352
Ni 0.7087909605019181 5.574058277635962 12.758749466425858 -0.2189780280332422 1.0596246320956977 0.8660033376596891
Ni 5.5671778769276665 0.255705242502471 7.664945877754864 0.32429324173298985 0.9019239628156983 -0.04727641648846052
Ni 2.4202874639100225 7.931869164890424 6.178409469230978 0.9282680000268658 -0.5600911695370483 -0.35975415364376107
Ni 4.3822804110762155 2.501138971047419 8.244756066981637 -0.7194769398289544 -0.5445593924500364 1.5530946620690864
Ni 8.743720188122957 2.483561768183935 8.38151921507901 0.5281382707795356 -0.5553243442760242 0.48825223321787525
Ni 6.146618210622295 5.632990405441793 10.713152851838949 0.12683071917402028 -0.6217678206112389 -0.5793721292538474
Ni 4.127406437012414 6.640592908114279 9.794220493472379 -1.4041928220276398 -0.3138730748409304 -0.011476633181031847
Ni 4.736253911547239 3.314467603391219 13.029728473293817 0.9882459232423949 0.9596652833912247 -0.41956212694032896
Ni 0.7526424102862485 7.71388102808888 11.882485564045943 -1.714006639197532 1.8790272391777123 -0.6214927125729812
Ni 5.62041713036616 2.0628964258012816 6.085986379084176 -0.5211039896405735 0.24270339667464008 0.90709805081747
Ni 5.150292675645619 3.8317667686334578 3.8967679718993735 0.19821842688838767 0.5520505586207589 1.0298157762643811
Ni 6.114872277446472 1.4105818611527883 12.142957229068074 -0.9473967504365166 0.2808076597455293 -1.2862226385680429
Ni 4.163077552673997 1.6810749793804791 4.126537095210141 0.7905435167584772 -0.866376918949024 -0.1488092803276405
Ni 4.235879262935286 7.970676800505987 1.0944995160448776 0.3860794218018512 -0.9768911603512078 -0.060708887844282536
Ni 7.796654333579582 7.412720721987458 3.9686921817804737 -0.24151888944823569 0.8168705846887804 -0.029869533865922754
Ni 8.37593149571591 6.729321975482912 9.738138428884843 0.258347016749168 0.08545781265418831 0.5054305447693747
Ni 7.349981257821304 4.025723360932116 12.71966262614387 -1.652643148488386 2.0826048734954847 0.24624200595551785
Ni 6.99381400639981 0.7510215728071402 4.61996244845585 -0.35357836385035235 -2.1105262824961004 0.3259235782475613
Ni 0.08700579441125886 1.6609051617573478 3.7560642306690672 -0.4228315417202202 -0.13236579005963656 -2.1586071971637275
Ni 2.7132801270098983 8.475710903616047 10.801861069508465 0.14036037822933892 -0.17682247771111484 -0.3018559957753963
Ni 1.6241643658802463 5.046742191731448 6.443112716665008 0.20078850160840905 -0.46593557199854596 -1.2886880693894
Ni 8.82778073590691 7.8359968093029035 0.7928070893616675 -0.14227250765038724 0.26230728694849664 0.31321950041733154
Ni 1.2384630624065445 0.3878823633029716 7.465599184980379 0.6589966230557103 0.9105536134662382 0.5945478085530213
Ni 0.5379276762459233 3.395446021740626 12.953598063243218 0.8162833447267426 -1.535296714655717 1.0306225884363927
Ni 8.049769680848378 9.095907866539259 7.901296253917043 -1.1304934911921176 0.609971085086627 0.7243337537006235
P 2.2194414058164966 0.72077772447633 4.5138338539205485 -0.15928626859956438 -1.342383502030327 -0.02413031738930038
Ni 5.3458719184407 8.839828235961356 3.01461357626485 -0.9945410122224871 0.45002584274682494 0.25165212122749564
P 4.075635727598615 5.475964975838253 5.3035651594082704 -1.4517152930886352 -0.6343006629709269 0.7603207133181937
Ni 7.587676892830799 0.14481566449945316 2.433569628755601 -0.13149521452922516 0.631861714512131 -1.2725253435866084
P 7.896714759163457 1.6453132128531744 6.438402497682096 0.283124480804164 -0.4396642970068428 -0.22263413672859075
P 6.777276283449816 1.501876348021352 9.355724125802219 0.4196510871097095 -0.3975840800073411 0.10971951341503039
P 1.045440174024822 8.01217676683349 9.148881512941188 0.7265605861486132 -0.6836686718810936 -0.14206142008084569
Ni 3.4392666502306106 8.734836403282207 8.418389641694095 -0.5885026308002058 -1.3591429808768527 -0.14682747401092133
Ni 2.647123125206028 2.0827036399615255 0.33985916067811767 0.22915162613213438 0.7635551610950915 0.8275293499542071
Ni 0.6667670321705421 8.528261210475055 3.018925837947242 1.516283406778008 -0.7795939597255089 0.016312878227410618
Ni 8.422897709246445 3.823299977775029 6.519759836650222 0.6880799135749117 1.745322161481362 -0.22995612431130072
Ni 2.4857101937015447 4.5791197009048314 0.7563835715145929 -0.025363161355136964 -0.22108581840486438 0.06742615196345808
Ni 4.8843592959637405 1.2128269975803805 1.1356559155912949 0.6686973952832419 0.24652714129610445 -0.6553939933061165
Ni 5.374309095017671 5.911805273142758 13.022151873936778 -0.31708335424811196 -0.3143705833026392 0.5442138361851595
Ni 1.4113070680785638 1.2715143680487633 11.952990181369838 -1.4230948011384652 -0.5002811393579513 -1.0829280827083285
Ni 3.437263266098156 2.623535769945179 11.080163759818102 -0.05294904139320558 0.07417375509993679 0.32713533916747534
Ni 7.345911033950389 5.564857214765185 8.05132706272148 -0.8199975603535361 0.3417494895362243 -1.0210714544128479
Ni 1.0453132628128112 6.7017006566974375 4.683434371617037 -0.7956129608615846 -1.023224496200109 0.16140434338383172
Ni 5.969640525473355 4.587423320204961 6.199558316203906 -0.4190607618238783 1.1100082267545723 -0.990263725003372
Ni 6.287235833530165 7.608907325582876 9.039953619672392 -0.6386972493767259 -0.5318290893675615 0.27635039530512406
Ni 1.9745571571552534 8.540870745896976 0.3668377648256237 0.7599000808410075 0.6005629043988495 0.3878434556808094
Ni 9.234784992825267 0.7241399650859568 9.940616202561364 -1.3238232225296362 -0.6322250113888208 1.032876417467576
Ni 3.5864473958167493 1.015779210760604 6.440299820301657 -1.609113086416235 -0.40331455473321504 -0.034419615130450394
Ni 3.1503079506553613 7.64255692693886 3.804424654514407 -0.3388066048578165 0.11628251134452879 -0.6554274176472131
Ni 2.4975129364185413 3.3194262057462085 4.203715429268485 1.4290358492132487 1.1486447081798477 -1.023231438178644
Ni 7.180881132903601 2.9616725641745805 4.769449352065956 1.2969809055258115 2.1623337540856955 -1.5233400565144732
Ni 0.14626335882503252 7.213379468264916 7.028150741317965 0.3926429339519818 -2.283802437616854 1.2066703927650122
Ni 1.0610321229289954 2.2031514452462644 5.64536696813881 0.37074176300351636 0.2009409680258733 2.865979126199032
Ni 6.518894120882577 3.3371575150814197 8.05210937969266 0.3522976973657158 -0.7463513956222952 0.6070893926634576
Ni 7.840937281484748 5.7499209571365215 1.2567681917217755 -0.7429220582257721 1.3562394340768127 -0.8125107650581878
Ni 6.463053187597863 8.591816532432706 0.1722040105600223 -0.04637575905106207 -1.4623244360630494 1.0144902016509045
Ni 0.3429358510607203 1.1737564744542255 1.2086488991792566 0.8541191846275935 0.6541624348918604 -0.5753812629268993
P 8.698585122080004 4.8823468467447135 11.020113906837917 -0.5668351731291013 -0.18285351439654315 -0.26043038164075794
Ni 4.604511008393547 6.909499636191836 7.346919071577218 -0.23276042652931528 1.1118959306955882 -1.9216810692924968
P 8.216395037131871 0.5602685821030949 12.52745378253633 1.6313081344560356 0.8799032355702331 0.973860086834368
Ni 5.381733400920298 6.587942885302977 4.082435449036418 0.8124161484618524 -0.1501511390675156 0.09170122246073885
P 1.8301140677139174 2.841306344668991 7.796441304045135 0.24590467722075712 0.6445812189613286 0.35690999932674655
P 3.742548186589927 0.69331141867124 12.300364298816305 1.0320634346479773 -0.4340904024634911 0.10725048304924754
P 1.651414016116261 2.92683543647764 2.298226073215433 -0.5430393562610841 0.047864684891762724 -1.300418984673083
Ni 7.3194681764193 8.42939737631871 11.082949460921737 -0.5685999783390078 0.8298222597534417 -1.3730842735482933
