# total energy = -340889.51395734935 ev
CRYSTAL
PRIMVEC
9.07750970103543 0.00000000000000 0.00000000000000

0.00000000000000 9.07750970103543 0.00000000000000

0.00000000000000 0.00000000000000 13.28585301620422

PRIMCOORD
 96 1
Ni 6.683960899305274 1.8351456379040547 11.480371698153219 -1.1536488462626584 -0.39303656984597474 -0.23677468989503095
Ni 4.460860658837244 0.2889707153268945 5.840566765031332 0.7747608000029238 -0.21864378462227504 0.555761688923759
Ni 2.6486629650410496 1.5576734039068383 4.876080469044561 0.28528857833501836 0.06255982501009226 -0.07593521787573373
Ni 3.1597721394845104 4.000122584810918 4.3163212899920556 0.7120366815008254 0.8948536862324782 0.6320162378121245
Ni 4.8312502804484065 4.440971835443129 2.6223744974238175 0.6734976448853627 0.09762478703402541 -0.7125989817621985
Ni 7.206934378712727 6.027911130095118 2.4628254665602958 0.15016476591427044 -0.743319807884823 0.7497213405357926
Ni 5.225286814401728 4.775886549786287 11.50032678736695 1.1912556008718387 -2.0825889326558844 -1.9594346338921864
Ni 5.908078926705932 8.033732102301384 12.464720492756449 -1.2280969380699043 -0.3042121547123987 0.08732134822548833
Ni 1.7876974955576206 6.526919984326642 0.37584883584631607 0.13622295902219766 0.08311810877741815 0.6396518999805113
Ni 2.8984941825001194 1.827293592155123 0.2920134965234747 -0.13911493585801202 -0.5912472834248785 0.7228337721163294
Ni 0.6352087150656789 9.028963015336775 4.6743881924076405 0.22648230683008738 -0.03898203769015222 1.0666290884379888
Ni 8.75828075847274 2.3221903345666854 1.6648370349871122 -0.6332575664183933 -0.528666889589496 -0.5708769472986427
Ni 6.809947654160096 0.7050792137178192 4.625323345612785 -1.0237597998782886 -1.095203557641572 0.3684858770898041
Ni 0.765125123798782 7.742661759018734 2.693998770918378 0.19383263911586618 -1.9592037488283034 0.6573673149824034
Ni 7.648518907617381 3.770634066222779 3.8417372906699545 -0.10149532573302521 0.014130011643478891 -0.5903867351967961
Ni 7.396372925226546 3.799464236510186 12.502253271436341 1.7933786506689564 0.6247916950392272 1.2134856159146328
Ni 8.045496554660476 8.929691371047392 6.7163576230895075 -0.21519310706951322 -0.09400775910672841 0.3187193471896382
Ni 6.720779277984657 0.7881266252129064 0.542611763538365 1.8614522064084267 -0.1731108331874825 -0.5969499902366107
Ni 1.9152001945050114 6.393489671652023 9.375520543411238 -0.041824906455586036 0.7963588378886737 -0.48934932293679595
Ni -0.0033051212221803404 4.655128440424395 1.4739587954608304 -1.8718376634078087 -0.012284216683991748 -1.2488899635558555
Ni 6.518795613291621 1.8480175464265807 6.651017709446952 -2.7061655243410874 -0.47396384161966115 1.791593533744076
Ni 3.412126904594682 4.401457436431454 0.2722871605500605 0.1522509590193378 -0.3774428291727758 2.244595428400089
Ni 5.978493168179299 5.600986779091648 4.63093052325338 0.21445288646937904 -0.5657475964918772 1.0376661255467354
Ni 5.0850756021034655 2.8812650694001514 9.690940398274158 1.8631861583803975 -0.07852303320756798 -1.0560235450080007
P 0.019819834321638436 5.669721681300793 12.708662222028343 0.6740334627841746 -0.8627745463097464 0.3397322019958794
P 4.199074361318818 6.131766916700352 12.480995559604148 -1.9813522599008844 3.087122280204393 1.742628930919915
P 2.3644279864392623 8.346806328700113 1.502828906790197 1.7781266096058927 0.8303732471609053 0.07567167980170192
P 6.276289946028374 7.696965576012813 5.737548832556303 -0.5592100524836756 0.8153307510054862 0.7645728037263284
P 4.758693746724464 0.9685248799794874 12.49806853954009 0.37144084595307 1.0599632463820392 -0.20330535449299184
P 4.190995377831478 6.232055242057804 8.458956235768698 -0.6250089532563559 -0.19954151657518537 -0.9283934698611366
P 4.638353202801243 0.9052873175455487 3.6158380193524837 0.4836725842669929 -1.020723584155126 0.9390905445636665
P -0.00348848691481435 5.698125208639992 3.547202969748239 1.0509422738303513 -0.5267473039692799 0.6611090414130227
Ni 1.570781327677309 1.1625929563568385 2.685681956681186 -0.05249061369954831 -1.0927355557170535 -0.6406446029110838
Ni 2.058733775293574 6.161976868437281 4.880823467777297 -1.0020314070622613 1.160999887311091 -0.6706900002332384
Ni 6.412044101144296 5.950262113521291 9.463698563296264 -0.5334655965297199 -1.1145181988097839 -0.1637558743351438
Ni 8.747932397601314 2.3600163168046024 10.204199126975823 0.5996627611820834 0.8993677720527479 0.08531434509778854
Ni 2.755033221787848 5.206686997361773 6.838932142109621 -0.6286833167841495 -0.9610441660166223 1.884327311234387
Ni 0.9884500134117474 8.629180417846952 8.315748537572489 0.3911622356413973 0.06985892977466679 1.2369983543245922
Ni 1.618792275614996 0.9717927834125688 11.759454282342181 -1.200241863530849 1.0369567581845367 -0.8636332947656159
Ni 4.006876251905953 6.74255622336233 1.7555131854965373 0.0759241621321402 0.29022123974994535 -1.2462928922526408
Ni 5.6209209900334445 7.892313581234787 8.027989669768697 1.240357243494496 0.5612859611760979 0.07777098553289188
Ni 5.158503576742897 2.7895368355354653 4.639273662268228 0.4603688765440459 0.14585174036121332 0.8980441681453178
Ni 0.4690285634858628 6.9824112578409645 6.686875687617391 1.0766039402625136 0.18904370236765505 0.15382370282309638
Ni 5.308654661983447 4.417043520305345 7.717578784667928 0.12227729547538295 0.159689417575254 -0.542745222059433
Ni 8.086027634740221 7.672111354902322 9.014464417105337 0.5238332156462785 -0.8037690143098157 -0.3130708906546092
Ni 4.668517766990491 0.5727799587314277 10.183951741955022 0.3022097795703892 -1.1287937348921915 1.4224983052050468
Ni 8.039768646143047 7.21730997211276 4.707510209203828 0.3174358524915243 0.29319754876944987 -0.4786589331024853
Ni 7.219552116968236 6.176882139095946 7.187208042739313 -0.6073215632789218 -0.2922477832616709 -0.6552703232440585
Ni 1.8795528145558156 5.3221075311163 2.43463253744234 2.2851468674598907 0.873398601682496 1.60447584475454
Ni 2.291644514976911 5.155135820704915 11.731633531115216 -0.5131927052132969 0.6759653896995649 -1.3327439220580337
Ni 1.0283184352953398 3.222661125552254 3.936744320979166 -1.5157373044665507 0.3870538698999786 -0.6707046555212578
Ni 3.609045318966443 2.3944926980236105 2.52708878757184 1.364373890258489 0.1769057814535405 -0.023662890834578603
Ni 1.1590981151853486 3.524551860202217 8.235209241962293 -0.10978764764880447 0.7319794431713393 0.5429390832377939
Ni 3.5476722769912676 2.7992679257584183 7.178997435363696 0.9042397554330684 0.9235451406298997 -0.6103829758130649
Ni 4.312198285160651 6.780091725295084 6.244961645116568 0.050842022352531796 0.6561642958132377 -0.7672300388435174
Ni 0.9704674670202637 7.439391242919247 11.634221868529828 -0.49051943198549713 0.5573480595742724 -0.7250590619024223
P -0.03616479799276703 5.572937274624366 8.31428705853714 0.3208137678248216 0.5993843107097162 -0.4372469458146018
P 8.820706791554128 1.5187944305627064 8.122611813673567 -0.635432462582525 -0.07097658831887776 -0.0649352672208043
P 1.7539836251396645 3.3924559414294397 10.476864819673548 0.0739608677581823 -0.8326802980275273 0.22333244834719598
P 3.9621059748727383 6.026349798454869 3.813916539442989 -0.4290037319692031 0.10177788997045052 0.6198130108777131
P 7.0437752223066035 3.9672801553084502 10.382123760393752 -0.297184815551972 -0.3604923173613663 -0.8320303231483542
P 6.40861280253956 8.071467309443936 10.261979290676516 0.5136878996821604 0.4662142795812293 0.44042534354258345
P 2.296618990202824 8.528084194140765 6.07337492885691 0.12840834807378532 -0.3527561250593731 0.21989848296498257
P 6.782488187812677 3.855654020540113 1.744644683328681 0.8344772420269498 0.7549594490062805 -1.10630918063643
Ni 5.339091551458786 2.8671767745997565 0.2564968327116022 -0.19813100938090392 0.0047367433540370036 0.3618904832604735
Ni 1.650917581864093 1.399116544835638 7.161685716926948 -0.169376820066347 -0.029663845613019883 -1.8842864306941227
Ni 6.852784421662071 0.9581038990317725 9.0045000348873 0.14972305039116152 0.002903289689724032 0.009420007762319261
Ni 2.8909598495849598 1.721386288394678 9.198035261454867 -1.3265910150827604 0.39889894216402266 1.2234908067564605
Ni 6.310185366637057 1.987756728228954 2.5739614158136708 -0.24188424320745433 -0.3894969321238324 0.10061986510660736
Ni 4.422090615607549 7.21255335711572 10.44731661838182 -1.2280095205624206 -0.6211160459598528 0.29243753067497374
Ni 8.120485860940157 7.443321804548481 0.3581268139785251 -0.35368866417597156 -1.3351764427589263 -0.35331405444537217
Ni 7.7376963613023575 3.6378301017061676 7.98054606617703 0.03678194471503988 0.398841606563526 0.9060307858952202
Ni 3.1701114228463982 8.4793288904211 12.64896851931739 0.5145245366508429 -1.2814565846379673 -0.4352954785151858
Ni 9.15412371682379 5.088688450898927 10.54832932900027 -0.1037039033485698 -1.0152615325992902 -0.7286943446621643
Ni 8.534583690968782 2.2276753052743437 5.866793505583718 2.344867680359291 0.9882909175477174 -0.382625916035612
Ni 3.7235944118054807 2.9488834379363267 11.599147279432374 -1.0860720276539488 -1.0752862498923546 -0.33280873540316874
Ni 1.0220095661675856 3.203407727825683 12.727488069055752 -0.3638198390727025 0.881378791674495 0.05186532141072358
Ni 3.411791036741837 8.595775182753231 8.142460696025722 -1.0703391902997244 -0.5298310851009262 -0.008704726862849526
Ni 5.487236507091808 7.7669531745379725 3.512566824361391 1.313117406076358 0.4452641596921235 0.2473954028336707
Ni 3.2633102132559713 8.211324498870283 3.8684814492659108 -1.905561795133131 0.46964207431585575 -0.09001843544167723
Ni 3.4550272146634113 4.512711393308802 9.61157028589224 0.116736825273128 0.06163782741645514 -0.7205033242109398
Ni 7.3128235274541 6.210241986641986 11.700943379123814 -0.35825520050073145 0.5039503606794224 -0.5482759220696751
Ni 0.4997641030249466 -0.08137533423849398 0.6378629788541039 0.915661881227081 2.11240447335542 -0.5322358378876769
Ni 4.5804659244880215 0.23796146598935541 1.3118027038584725 -0.783262923936664 -0.9657256306526915 1.3461411693005463
Ni 5.931163033456838 5.407427043248332 0.4197649192321613 -0.022284779540129362 1.250680736907691 0.4983738950329094
Ni 8.225385561142069 9.147497134862265 10.99189093948194 0.6077902753852242 -0.6289856785159167 0.6853180345590584
Ni -0.3957276739799407 4.965824359324604 5.753053218844367 1.3125743890886943 -0.9505319536313888 -0.6077560797131791
Ni 7.859144361389013 8.860193958037195 2.690571103317457 -0.511313485912713 0.12227318171032492 -0.7823566100723107
P 8.551476936215906 1.5983134141010196 3.7612778771436766 0.30014364106997987 0.14063060117159007 -0.607545763474586
P 1.892052545187352 3.3026975271341383 1.7468241933683555 -1.1405043384609002 -0.3269502197398627 -1.3310264251462949
P 4.826366580317858 1.2236392079887055 8.00428829236932 0.35381182001739714 0.009194007794442231 -0.051911858377942856
P 8.631831050631563 1.5769721891810908 12.705473292928229 -0.743547864735229 -0.2913137014831757 -0.39540686985036416
P 6.356099409871851 7.6471300486583225 1.4659215685173574 -1.71260744485716 1.5010367650315826 -0.5875688061320268
P 1.7596116810521933 3.4843838805039256 5.952354479469416 -0.14852980141400873 -0.6097705390400466 0.602781252206407
P 6.800007781217808 3.8383976749115356 5.94390422584204 -0.9886454726736584 0.7711414580827816 -0.01023273347160173
P 2.2446865581454394 8.661115096395786 10.265433283055092 0.6131893349136085 -0.7397500882556938 -1.1395252623770826
