# total energy = -340855.6737191467 ev
CRYSTAL
PRIMVEC
9.44478784755532 0.00000000000000 0.00000000000000
0.00000000000000 9.44478784755532 0.00000000000000
0.00000000000000 0.00000000000000 13.82340170868250
PRIMCOORD
 96 1
Ni 6.840094648034573 6.005147087738309 11.381290209314715 1.8595364774429521 0.5808481995787416 1.2959990012285165
Ni 5.919973992947954 3.260529583447128 5.417363008202438 1.6898680942781152 -0.2905130599587513 -0.0505435172755065
Ni 2.3261189646858798 2.387746203930398 10.640618630120509 0.8772629697339085 -0.43453751730323875 0.20777161779446152
Ni 6.5300222703491295 8.432589734051037 6.520830603033763 0.5287951876372441 -1.8491435642444023 1.7072929746227823
Ni 2.4874642716612207 4.773764011725661 10.892453502839574 1.8002810342157447 -0.9679264949587525 -0.5927210397569276
Ni 6.461434222625958 5.566965610725257 4.74047302430971 0.005506274530209872 -0.5952800587333554 1.3015980925828488
Ni 0.05789182573935221 4.261412617503843 0.6042217879161257 2.7292686860174546 0.9729002940242599 2.716828917592205
Ni 6.868249559940766 0.8397256783550847 2.621386637771204 0.46570648670687537 -0.3529821250272501 -0.42388569401634735
Ni 1.3547036680150495 3.3506423021646676 12.64893749188725 -0.9037471320673662 0.19205806371394665 -0.04236021013376576
Ni 5.4330101878585895 6.505116365385483 7.976558552907989 -0.5691759054471359 0.31184730266015326 0.49128716338945716
Ni 8.776021101623323 0.3080587489640759 5.290851966940756 0.41188481290072937 1.7362981036058807 -0.8630141731243781
Ni 3.2055609194773047 7.586742888837045 3.0730250481904777 -0.6801287770486351 -0.671992778205062 0.17804915102936433
Ni 8.227156158448354 0.21646980994095488 0.533409492707578 -0.8612851062484134 -0.005948504273951046 0.7351035906226179
Ni 2.750813284972316 1.143962121767857 12.990513903170244 0.040353721226698246 -1.3073385946110516 -0.5595970035094492
Ni 4.612409259962696 8.418082540261064 10.701994638014238 0.27578012462395085 0.4147474791605051 -0.09590214791596385
Ni 8.986488749029428 1.9957025144590261 2.544666627904044 1.4414221386927433 0.3149681076773221 -1.3787481567022901
Ni 4.256718558054873 2.0677379096648405 1.497668473795945 -0.7772593980550614 -0.5934039247565652 -0.37206279580778506
Ni 5.679963049854974 7.753707844448476 12.680261130041186 -1.819750455794266 -0.17217495163677446 0.42467887934160414
Ni 6.333381792024092 1.0783869612966404 5.8934690854396194 0.012696364520745877 1.6277576981006159 -2.0335047735347236
Ni 1.987183316022466 5.78715194459613 1.1081748769829676 2.0123304534499535 -0.4612060277333605 -1.5075511691113326
Ni 0.46684168505711243 2.6912638990050075 4.811787782219838 -1.3728927263627775 -0.47090834262278897 1.7717764990181486
Ni 1.4430879905974554 6.113101010276981 12.74708394695749 0.20739855072575897 0.3392989711132028 -0.6117484887020238
Ni 1.775572849313895 4.755988921417894 6.521895030598952 0.049288304712166726 -0.5566266080272155 0.400383240019033
Ni 7.971825769829764 8.693379209916115 10.223538697616286 0.510849658902417 -0.6690766329995317 -0.6640879215356885
P 4.902128120319109 5.415036757010725 11.455190005597444 -2.4173164823483204 -0.6366107991613422 2.113654543712437
P 9.132958515497473 2.2996830041271967 13.565594743352266 0.2894275402040564 -2.6309970094280497 0.9207174413731176
P 5.7035372397636825 9.213617001803707 0.5147258138304124 0.28242154119986845 0.6037862964321536 0.15151022419857132
P 6.686380729459167 5.1928575729512545 6.908839479232297 0.9035918374364246 -1.6480408738296841 -0.1746046441241896
P 1.1247041998031715 6.376242238260356 2.786631697556363 -0.03338757432151024 2.047215438252597 2.7933338919284796
P 3.2939263524844637 3.697010998687918 8.3463068767149 -0.7914878829496176 3.0566246258361676 1.3942501089926311
P 2.4472200315967165 3.5762593889191576 4.897465228669297 1.8686536092528723 2.2355893682467367 -0.11784908450070028
P 4.056970744601645 1.2389672404744632 11.171423250401476 0.8721475028842142 -0.9630992487734382 -0.1598007463421377
Ni 5.895937008445686 6.2466880864263254 2.7235140708248284 -1.245932166479112 0.00802184186321199 0.40055396126894244
Ni 4.17511559298627 1.5779217787131241 4.446061993461854 -0.43826304578394204 2.3539223343623914 0.006419273262782493
Ni 7.679292362761495 5.671500520144156 8.891930368777423 -1.4890240568414226 -0.7167304874320688 0.5052335982672203
Ni 5.505432819356975 3.2084982484282696 3.1886991401327474 1.2567174300200745 0.3777585606409816 -0.8058099559992444
Ni 6.326062081615739 3.151829522686184 8.241414954323824 0.7144805150556276 1.7644681382821934 -3.1543152331111224
Ni 0.9988807390804944 0.40372689176186466 10.696768837022054 -1.1768792775455086 -0.3809755249163826 -1.0002635165285612
Ni 7.250281774531036 3.919539639889464 10.801039292387493 0.10531495658943153 -1.8795725701582209 -1.0575232694819787
Ni 3.6000885880937044 4.450752274995774 2.484881122246144 0.13197909614417916 -0.31395663569367216 -0.8948799114847233
Ni 5.9101986377574445 1.8855479564040356 9.844487258000049 -0.5098129901077865 -1.9222971056099412 1.2439714432083155
Ni 0.5064465129994936 0.04404671156179835 12.87000124652836 0.48652882276886533 0.6005276802855399 -0.012866828660339131
Ni 0.9346287933553554 4.23561890250357 2.788497987590803 0.08935200550227193 0.4882553185416688 0.6369509561095804
Ni 5.031993950144722 9.313967870305317 3.3647953164187534 -0.27116550867007494 -2.5014602041767757 -0.029191019741659406
Ni 4.713610159350438 6.714828429781694 0.7063256090006906 -2.7784297211231372 0.15526094949025518 0.29836546612363457
Ni 0.40698062109822275 8.466099840539858 8.487554620105811 0.4975346869610657 0.4202766365088504 -0.5333766363603395
Ni 2.1007852215601 2.363643105914764 3.328550943912878 1.1760850637789875 -2.3996103233178094 -2.896719235595366
Ni 0.6306416923358482 8.932757352238308 3.0300484310664424 0.6423194195103454 -0.051180893749189264 0.3865859291246245
Ni 2.4738543326954963 1.8353772445470424 6.125204505616729 -0.6570376995571264 0.4147261390042664 -0.4823860042450853
Ni 7.604933549800254 0.9229361462772384 7.750505116965286 0.8039744454524025 -0.9657883655698272 1.9540543434168798
Ni 6.185268632509528 0.7610940434728916 11.926167563154968 0.08095683946004122 -0.7385761225522507 1.2213012553043094
Ni 8.299012102689318 2.9818233454599277 6.930666383430625 1.1392182726596252 0.9253621392339805 -0.42982854186334357
Ni 7.96909622620652 4.003824924643193 13.106740515188498 -3.8528500234707708 0.90054379463872 -3.284237960946905
Ni 0.44693585066144254 7.838512592521507 0.7944350882632476 -0.19647856137914546 -0.9465871100510279 0.22608764249482996
Ni 0.04739205533810613 2.948983818892389 10.47139259235197 -0.8000411718362673 -0.79116495239256 0.19158112407752811
Ni 0.290562279891207 5.377399278330357 10.602272792368366 -1.0848708082569962 0.6094686915289117 -0.34022842490600763
P 8.123754623544295 8.26856210739057 2.2972556937079105 -0.407223402869318 0.16328973333200264 -0.7768156256494234
P 5.410106577871164 0.31734769759196607 7.973545665656036 0.40337626120908593 0.6435355513056337 0.3879187890034351
P 0.4982512707784257 7.578610926693056 10.553890923287298 0.005240165353016781 0.6586096720299367 -0.43780101854585896
P 8.764149003580355 6.081659312277748 12.812924505960934 -0.3695551988945829 -0.2660672682115612 0.5564839118017642
P 7.0718791811073265 4.330066778740379 1.9047954891023349 -0.8729018645517354 0.09628241407351805 -0.4543645793314948
P 3.315337686027348 7.664029585961626 12.873084025208732 -0.10250628349604282 -0.365970309756802 -0.0173091807024089
P 6.332956776581026 7.273827630076872 9.824001513644285 -0.4176109167512292 0.9275144096902929 -1.0139137603221442
P 2.831386768189938 3.6429490343299684 0.5117006483545473 0.39414008732279865 0.15393220337650262 1.1863388802965118
Ni 1.565076867544918 7.018941146476595 5.427910947020565 -2.8040574489935706 -1.0806994504881258 -0.7484522440153819
Ni 4.503728088777001 4.606232368856809 6.393585701773722 -1.3294901910074266 0.7176128900370222 1.5746711026882816
Ni 0.21801875511123855 6.033830907751428 7.888172341368059 1.1078734397997565 1.7533599441841738 -0.8675118038844156
Ni 7.459512154758439 8.11655769537505 4.386966901779245 -1.3135724913359053 -1.1352551742468193 -1.760980179733593
Ni 2.5817421417208037 7.040843608975911 10.82568641017025 0.15231369393647318 1.2697356966566133 -0.22607555830997195
Ni 8.752088009784915 5.438176486688744 5.637791128636477 0.20437776162156412 1.0787269001427873 1.7649167957838376
Ni 3.312891486032815 8.89476097162824 0.9345721246296133 0.5049803446058335 -0.2203006034994077 -0.8510657425132505
Ni 8.487360057480764 6.001491954927944 2.01416612978456 2.608366673623043 -0.68350155017561 2.285513763881006
Ni 2.945517581834498 0.06891294841742547 9.377035439662446 0.21197434302189946 0.765473975384359 -0.23769411638550678
Ni 3.5376490971135497 7.030274891625012 6.4045473222897655 2.875628476363338 -0.4635634722219436 -1.4495018303770841
Ni 2.231501082271844 9.135008034411811 5.127473197190036 -0.9575184122515509 0.9552620121172064 -0.876782173442748
Ni 7.812813325397471 7.976897620783681 12.441199388104387 2.245115562569617 0.7614573980257983 0.7200196997063019
Ni 5.072927659705755 4.1224797915594955 0.1437798909528194 0.7782582716332209 0.7845263640301199 0.6959654869705756
Ni 2.682404688213995 6.247547562100079 8.251657826501708 -0.35450061855430565 -0.6533746488832426 1.8915436264771681
Ni 7.1538127137427585 2.3692249754003596 0.7696510210599465 -1.0191683238528642 0.5639352258734868 0.3459175048709849
Ni 3.591692171896252 3.130200959027955 12.411742039984889 2.7467951249369924 1.347132586679538 -0.8592701327009136
Ni 5.013784399606265 4.363756336194049 9.699410597706498 -1.1272281901772843 -0.3070663363317422 -0.9090310061741248
Ni 4.305963680724745 9.392992408352654 5.99826372651817 0.3853057768606203 -1.2106445469214118 1.3557221281207616
Ni 1.5585505192969547 2.2856197153555358 8.572913777212351 -0.5036953072458229 -0.14509583603179527 -2.039914790826126
Ni 6.914037890340372 6.636191128026926 0.8086967175750057 0.0990661474662423 1.3628888210725303 -3.5125850888998733
Ni 4.105507508199741 2.1001713103645607 7.508927283605538 2.762854749503016 -1.7376947268430911 -0.12614474885058918
Ni 1.4264746091674008 1.124156402120998 1.05658650250366 -0.4573372888065736 0.15006989220761896 0.7640344147243551
Ni 8.30784297911746 4.207331763570645 3.88589636189515 -1.366830836439414 -1.1879375922421993 -1.644171363571949
Ni 3.394966690482602 5.60928770406697 4.505005024063722 0.059081636653504695 -0.41944745573933573 0.09894787672082314
P 0.26831319368610185 4.10021842713048 8.578042296892011 -0.895256835208168 -0.770736252224563 0.3198112947022363
P 2.725784597769562 8.578445589323541 7.477105905143832 -1.3652040994692682 0.1571944190675422 0.12827156538560489
P 5.329325309325821 7.390470757229331 5.042085705720624 -1.291531452375466 0.6103456948172262 -1.2447026649473854
P 8.771119256846632 7.864750212540093 6.090010393494606 1.0724752628061207 -2.7688186803959347 1.661687775189158
P 0.5613830646913961 1.2168286582845553 6.676343753651481 -0.5134896676284253 0.8144470628489522 1.7783402682785954
P 2.905792805089296 0.33512467685725833 2.8456720094707553 -0.6437157856372397 0.5875976024874332 0.6167153457889959
P 7.812426089104901 2.0557902533208843 4.242000745500891 -2.033354106889472 0.4663353785401259 1.2263015367323784
P 7.99039422229792 1.256619548543123 10.73923449113565 -0.0031915103541041807 2.0600830382438846 -0.41076586880493776
