# total energy = -381166.3376532683 ev
CRYSTAL
PRIMVEC
9.25487994326544 0.00000000000000 0.00000000000000

0.00000000000000 9.25487994326544 0.00000000000000

0.00000000000000 0.00000000000000 13.54545229456774

PRIMCOORD
 96 1
Ni 6.464107733558481 0.8030061140427502 9.984203997151056 -0.3643705693698499 -0.5227780349088867 1.0428124456343655
Ni 8.947256736453268 8.479080137969298 3.5120102752142275 -2.6257247052855166 -2.229085505689948 -0.699491497845963
Ni 4.151294791214774 8.734366739123384 7.772109133924938 0.23110977829976972 1.2459961869478282 0.9521558623880569
Ni 2.067688199080686 7.972245907052734 11.751343680503837 0.3561522952251157 0.12204589619086723 -0.02413160294088102
Ni 5.704300621408383 4.539833150033325 4.334517346235363 -0.23942626858526506 0.2626428159110445 0.4225782880588336
Ni 8.3731580400064 3.605007008212949 6.80419216980082 0.9367852934692577 -1.5957726605535871 0.7887779402176223
Ni 9.190780385531266 7.719689495404899 7.4051087311028265 -0.9101977727887163 -1.1747429479287963 -0.6096664093620145
Ni 3.8074112268628872 5.838727748792487 13.50591246078427 0.054850886401608755 -0.1076870563660339 0.5563579277468611
Ni 2.9450878124729467 5.506301725487177 8.152140407339601 1.1168674157682508 1.0560348578619103 2.174512041319442
Ni 6.722966718269901 9.261173000394157 2.9000406111077566 -0.6619603336697245 0.26457551415738306 0.07376777791076972
Ni 1.5319417240368989 6.7544610738284625 4.476501082879992 0.6262255992722764 -0.05204735551454262 -1.5144880054404821
Ni 2.3663339115459285 4.501036694405499 3.395181301545846 -1.3881805057597834 0.8982871373940594 0.015464157073870138
Ni 1.843905208364842 5.202103085212608 10.65214347162366 -0.22785553302853018 0.5984628273367112 -0.3457658097844691
Ni 2.2702867702039504 7.598478336206991 7.076699325579596 -1.0004964584749738 -0.06724874584532933 -0.6536168468010356
Ni 0.8411417712612658 8.82445373795002 5.205476488856774 3.129359077386417 0.45310319612056804 2.480324707749741
Ni 3.0786820006856517 3.1978293217144262 5.088105179239015 1.6618803508159379 -1.2918770086403428 -0.05004420904158478
Ni 6.773054127110023 4.032008646990766 2.2263307191532933 0.3092602586592674 0.2034789039563786 -0.38930075695262634
Ni 2.8703454041594165 8.567926982918515 0.44142629425050955 0.3364771853936915 -2.47547200764313 1.3653804771461326
Ni 8.41623950492709 5.170914140683559 8.439819087381425 1.058541683444164 1.4676337640911046 -0.05033448658849397
Ni 0.003761183102850247 5.708650414859021 5.7748459417860305 1.2310017704215253 -0.19792172158357527 1.0013305243404949
Ni 6.577822440213797 2.221874494586309 0.37555839006425096 -1.0102851624306213 -0.39351325237207707 1.9946147813377455
Ni 0.6856820043113707 2.1316579274441234 9.256229969155887 0.6938391846561922 -0.4835376013510253 -0.19355110331970538
Ni 1.4734601393250122 3.6708739869112392 7.786901208121014 -0.46241855998422293 0.473303582327843 -0.7711625411287041
Ni 8.320136834307018 5.48160970649504 3.500456483418956 1.7965534488525121 0.10537023530739918 -1.0771978650927707
P 2.4072127151022515 2.4778089373181515 0.4916608556775786 -0.8707146270924294 -0.9164563521039184 0.04688432325636442
Ni 4.927760686792849 5.3254243569780595 2.062742391378513 -0.28216263111152695 2.8484046076503784 -0.03260338785731804
P 4.392365897176987 4.523877737461194 11.165326550002218 -0.5135536880971413 0.7613362990669017 0.753860816625463
Ni 8.611008447839204 5.1855461054611345 0.9417626741421921 0.4560375961585436 0.9980343700877264 1.1513873039219913
P 3.254478440249236 8.197102463811715 5.00085850298685 0.21326143726443914 0.298288333028796 0.08340607233148217
P 0.3821867348926499 3.0102514203153894 11.419438706924634 -2.004918734366915 -0.323647637729191 -1.033862178419613
P 5.462924104416658 1.181126254803037 8.065585070599697 -0.1497168797435744 0.1590183596501584 -0.7306362988798837
Ni 4.406414804534581 1.0169724538796736 0.9225560223377012 0.4185421703162469 0.6661892841494075 0.9545937824055883
Ni 8.870672607082977 0.4697989788922616 1.659386044700775 0.21188126908746094 0.5065340622461987 0.31910886931857296
Ni 6.714017249617204 6.857356826135276 12.527416243695418 -1.590673391653809 0.08401362400849402 -0.2598138311026816
Ni 1.8243959219947428 1.5535796327339062 6.029067306288696 -1.176836340122715 -0.26195530292571656 0.5948190599365369
Ni 8.809895812209902 7.234502428065026 12.885788322189804 2.038338447477941 0.768748789480889 1.9721338266264101
Ni -0.125784920736856 1.7069052244290839 4.3497832702711685 1.0062665281895313 -0.027568396536571872 -1.141803259777982
Ni 2.3834554389580176 3.2487126502072186 11.967148964933616 0.7857376107294016 0.5085048128193242 0.31082657470512276
Ni 2.4372818191897525 6.46590318021683 2.068688651574333 -0.4215467614705256 1.4686971723586124 -0.12691505135771047
Ni 1.7131522682145754 4.622534754873556 0.997017082308892 0.6479825313333938 -1.9852037724364908 0.05015733758068136
Ni 8.774792053575279 -0.20986642813770437 9.252532644722844 -2.420029253293793 0.4570105015947742 1.2918204443707946
Ni 2.4599932939298967 5.137541044549509 6.1401804662653445 -0.7556495330947696 1.464931277558277 -2.521329432296877
Ni 4.699859274618421 2.4090266715199644 12.239412717376748 2.0096418508741967 1.2499651988979052 -0.43044972038711027
Ni 6.592204523239952 6.757144988936304 3.8592616902824703 -1.395747262363448 0.6203323737162929 0.8988057289016907
Ni 3.798776424119385 6.111737444538007 4.223038618511268 0.7542601089464107 -0.620146482957732 1.4190648540434656
Ni 5.351412059125706 3.099995988593782 9.914579537301789 0.5442835130808303 -0.8678337060002087 1.2224153143040948
Ni 4.18552859115927 0.7253530460691651 3.534346927327242 0.5462437221309947 -0.1213637825221781 -1.0759431667500632
Ni 4.615029047451283 4.380186475515197 6.555930947813498 0.16615959868062996 -0.23767483311179713 -0.5817249457567402
Ni 4.970453446766885 6.736747234116713 9.125069814299604 -0.4610656455007543 0.5139483524323987 0.3707512760852131
Ni 7.2651175700537785 7.3007673665896515 9.585344596510904 -0.7631988061969373 1.5354406964327492 -0.10672263557023556
Ni 3.167936060340888 1.563325021039274 10.176833211880643 0.08624791265565146 -0.8559050728834227 0.9142961112278061
Ni 3.232618414439855 1.8537709101060782 7.949162386149366 0.708005191743929 0.29745735248706834 -0.9712167356742499
Ni 6.170709537873051 2.210093032750855 3.764796207878182 -0.3117341741210567 -1.1659844850098757 -0.7332025169451631
Ni 8.97005150511055 2.8601650365089855 0.2252211990184594 0.5650163747528076 -0.41032003951677076 -0.05163186524367882
Ni 6.3946868810622215 2.264539489921298 6.059517711419105 -0.0737873182947955 -1.838555504315911 -1.5529067144279964
Ni 0.956417776118972 0.6066777239041831 -0.17621938756506078 0.71301395781243 0.0922576091848411 0.8648782229163106
P 1.1628201027916252 6.333197460453616 8.820513935669302 -0.41942585847278085 0.35048249853384805 -0.6096293854764919
Ni 4.346378400036084 6.675933419724909 6.733701453213296 1.8779754008744303 0.37515506157986356 -1.324580669520951
P 8.005989198374074 2.332053837203022 2.265950859072835 -0.5746911788384103 -1.2564420648715007 0.6169184629387375
Ni 5.388764753523106 -0.27579356355392914 12.604936966889547 -0.2617745543734782 0.44573698556348396 -0.6570371853364942
P 8.36667036934917 8.613988519096875 11.300360797493475 -1.4199395433389352 0.8731103810181157 0.5188925838115515
P 7.88413019759841 7.524957572011513 5.498870982590331 -0.31671954315079 -0.05662854712732183 -0.328744335525808
P 0.20321031867025877 7.412251647241557 1.6060844161470216 0.4133554839089849 -0.5007933031076794 -0.033161574353633205
Ni 7.835394001191892 3.549727611871107 4.631379643385843 0.5836437600460077 0.16266366971222954 -0.9849466836658327
Ni 8.123248523947677 0.37692163384144056 5.908201354102935 -1.6011614356693264 0.4491447256934523 1.1786173432825378
Ni 7.826722178929661 0.3172230324513433 -0.3383232326388144 -0.8931822120673263 -0.15030437681592823 -1.5525390466759326
Ni 3.133794809193214 0.9036297933875811 12.454609956211407 -0.863421692975442 -0.5533805902860921 -0.7288979760325383
Ni 0.529209753524242 3.4616396670558296 2.6357962119092577 -0.99382290310954 -0.2688330038821564 0.006763029755446417
Ni 1.6855912365209533 8.709415583500146 9.363253397800968 2.694051000465741 -0.6446989754861155 -0.7057927574736426
Ni 4.371477633734238 7.753395767207509 2.8709580771943792 0.9824483427240112 1.214166444031741 -1.488612680335617
Ni 7.097650522204183 5.407950119104329 5.968721788808812 -2.054786051511003 0.9601710193830497 0.0744087539288783
Ni 1.4943206381287142 5.864956077811871 12.771302684056959 0.7153199802377874 1.343809435843576 0.1731846238482114
Ni 9.317905412846105 6.834016019576742 10.575909176705359 0.40952633997088184 -0.7328788150571571 0.07694514719748684
Ni 7.301951991188975 2.7532156469013636 11.93213405314394 0.19707402887129932 0.12633963847021468 -1.219426663989416
Ni 4.207296068171828 1.0441540355063252 5.681097712557114 -0.1369870908817318 0.15872551100008792 1.9965305103032194
Ni 7.1896810457640825 7.097141503821662 1.7163979545191268 -0.08770752792031347 0.13444324141395556 -1.4103819815574872
Ni 5.691695475281213 8.53972736452682 5.079815583507659 -0.08810836290315793 0.12364100859212901 0.14634462083723185
Ni 0.8331353748481857 0.7663632689169751 11.146565983398412 -0.007554672418806345 0.6195229904411201 0.06556467327468707
Ni 8.829201491226993 4.851583772128577 12.245346020741014 -1.2486277110334045 -0.5430360138269744 -1.6178144708449749
Ni 7.000455775781612 5.2386135855589275 10.21381293462685 -1.9465688336731122 -1.3084840210694046 1.6519787754315096
Ni 4.29632801071469 6.810369801988695 11.529509767449065 0.4634734836112986 0.03983821504286042 -0.9051234435896024
Ni 6.085509115518623 3.3268053249657084 7.845146793401005 1.229152118807296 1.7073017163735307 1.9883243203433434
Ni 7.717958832904325 1.547980430526169 8.148009029049462 0.31484340917399967 -0.32503423366407247 -1.4629710685081128
Ni 4.25713359526053 3.433449303543817 3.057777078459475 0.4491192717721556 -2.0469416157659195 -0.18504589406217165
Ni 2.5077762377291477 1.8444049718676814 2.542237707713826 -0.8744861783197199 1.64232171195772 -0.38876828148792403
Ni 3.1278254117981885 3.7816734064666604 9.46874514385864 0.6210509970498723 -1.4211124806011137 0.36829458701460444
Ni 6.563588435262559 8.206810832598354 7.435897864829603 0.3158759642035721 -0.10110117561840008 -0.1256207580263191
Ni 4.21919784344315 3.560518801580564 0.7569519817681355 0.7633340462232209 -0.28613704237824267 -0.8662643046305596
P 6.2508290312819454 5.602154514355829 7.870923484291897 -0.5210538531289284 0.10579523865995974 1.1343545168094205
Ni 7.902880583834569 3.161263292090014 9.753822277221795 0.34048887765624586 0.06623136032440852 0.26539569606583324
P 1.0388880089671477 3.6788794578363513 5.594000965355802 -1.7329284158026994 -1.114786879090138 -0.7939808245748003
Ni 1.8591942695998536 8.981314693683801 2.775233005665342 0.38253129943927666 -1.3791605616493603 0.11438683698371269
P 0.616354626099902 0.5409218037620791 7.622811265867458 0.80583283881738 1.0415011830221095 -1.6211211666207046
P 5.0988926669965995 7.553175700162572 0.7020862785480885 -0.04901551066675429 -0.3437117554689177 -0.026442253351928655
P 4.022309533083809 8.810738006260983 10.516662213443752 -0.1573355726310968 -0.6413413718677923 0.28911746516280534
Ni 6.534046859316944 4.678693364785207 13.378626398562961 -0.6373713314764508 -0.4910434228097672 0.013107226805919362
