# total energy = -340892.27188049274 ev
CRYSTAL
PRIMVEC
9.08463996505084 0.00000000000000 0.00000000000000
0.00000000000000 9.08463996505084 0.00000000000000
0.00000000000000 0.00000000000000 13.29628887833556
PRIMCOORD
 96 1
Ni 6.400837249439178 1.9002522490621219 11.210686095783654 0.46086124279943214 0.7952602055078561 1.3567937639183858
Ni 4.483905601942858 0.4186765207615109 6.106785632599243 -0.06289715374485297 -0.6936440379262505 0.4073753550661501
Ni 2.7223576313629443 1.7228564902252028 4.8352086179834 -0.2712580683838812 0.0945723733609468 0.7270539808452641
Ni 3.1602009249003107 4.523414699867873 4.884324722359485 0.6448825522518313 -0.7060334127295389 -0.781231495328932
Ni 5.378024922908107 4.562678512521797 2.7959704666092984 -0.6990029882453187 0.48743307975068956 -0.0005011080061346209
Ni 7.2880976674535445 6.105459275207417 2.6549895774257775 1.2147624257445273 -0.07700376834956416 -1.20853341411568
Ni 4.973667611194517 4.9060688074097305 11.530993229733978 -0.016100247995972275 -0.4021241339695397 -0.09799451166861833
Ni 5.5712642933295795 7.9201069646587285 12.531472786564184 0.24464817910583675 0.32696513213819817 0.23974302849473547
Ni 1.9295774659170188 6.631468996742545 0.271083830826133 -0.530728400104215 -0.3003524146466763 0.764646080166425
Ni 2.7048787846377826 1.4698311061351799 0.3067655700581588 0.46564966532701096 1.0753770098339481 0.09270343847300809
Ni 0.3290011341145547 0.1073822578278359 5.211519830107635 0.5640324135729835 -0.08810424913809987 -0.6034939620027154
Ni 8.665220025755941 2.0778297006924418 1.5619811486282555 0.8793509626111887 0.3103534917234461 0.08815412853942883
Ni 6.733616685192503 0.7382196365155845 5.129096711309273 0.6666325423344132 0.7032306531734211 -1.9553226686063425
Ni 0.933019748032371 7.818177307560853 2.6693360403927087 -0.30523802487375173 -0.29255245898628324 -0.30132814829638427
Ni 7.491584511422825 3.975665435602332 3.8507380131797433 0.7828394632460002 -0.5793723863641634 0.29134558316237563
Ni 7.477421558177229 4.197548674903449 12.728749370855022 1.9879422544135765 -0.9911921503549124 -1.1363640910402817
Ni 7.866425828848448 8.766223049607474 7.2159619946175395 -0.2969968679108821 0.3456318553097661 -0.5995869136388254
Ni 6.87854394184869 1.1064909425318317 0.2844873081953137 -0.250077320541208 -0.5491542109095704 -0.44186721819543257
Ni 1.9127345439687602 6.419751469232206 9.272845241622765 0.580647139311529 0.43059704459825204 -0.1993466269555599
Ni 0.13544289284066308 4.498322925099215 1.4145392637114005 -0.11698802205198561 0.42921944752443497 0.1096801755366627
Ni 6.55523978527122 2.135853294265003 6.99811596918579 -1.8836004603706915 -1.1628454251602618 1.6819892057506711
Ni 3.4166603027856093 4.205597665651107 0.40596529293518746 -1.7761712856517344 1.3673381150931354 0.14709049786432085
Ni 6.050806082952441 5.8355001227724355 4.757771149435958 -0.4969901273115054 0.0654397176610486 1.1155535820528335
Ni 5.297089868087698 3.0897677135384716 9.380770760902868 0.015995346986991805 -0.7067096128609571 -0.7985854132263472
P 0.266793155509972 5.458442153267323 12.593420036010237 0.6675550541486825 -0.09670664609513023 -0.7617672159567332
P 3.869865722005018 6.264385961595139 12.825786041026616 0.5928447098189855 -0.22946015851148868 -0.8324049328789535
P 2.501364686749491 8.637339266608581 1.2714325688450896 0.5121475517782341 -1.500501718463719 1.0341624832688512
P 6.376853800710265 7.8957782996223544 5.8046014463266875 -0.487663964814573 -1.6398894483671436 0.6868457840574945
P 4.759642585207986 1.1818026053964839 12.737551478231328 0.6921916217504401 -0.15919448021670649 -0.5618230646264905
P 4.031772170204515 6.118177770745476 8.263350996847976 -0.5300809963282033 0.2414461272287713 0.3511813243730855
P 4.669831837429947 1.1935399598501786 3.935608533905214 0.9958003385508851 -0.21412455659568283 -0.7771185016018229
P 0.3954371040215753 5.824525878051024 3.3323821005666256 -1.0556394221957046 -1.1878684295671607 0.22296606614671274
Ni 1.8213248996087927 1.0000916427162945 2.6896393015912863 -0.7379654855514451 1.0457856693300762 0.49519832551840526
Ni 1.8647313079522558 6.668189110288857 4.74016693468335 -0.21380908223779305 -0.7147317118344851 -0.340103212182053
Ni 6.025187399082922 5.522143646633661 9.14497439594708 -0.723457007522625 0.9375800214564112 0.267578562649765
Ni 8.81046524480058 2.3328264515908637 10.369004223457857 -0.6678651291899337 -0.3118406177919339 -0.0062606361977311535
Ni 2.305945002807208 5.319519843433034 6.9377903279208395 -0.7808753975410939 0.18942216875299633 1.1494106398115946
Ni 0.42626582874186436 8.859031728476626 8.93034614988646 0.7030293357958924 0.5896089764905071 1.0358972065717706
Ni 1.601640143107826 1.1399405857969283 11.378538440647192 0.032738627883601684 -0.1412713200793825 -0.0021856947974091393
Ni 4.209149759762094 6.8936789515389805 1.6545236475550773 -0.1205816529405149 0.3630893886645811 0.1603720454645754
Ni 5.529102480620913 7.836210317305886 7.961790925320751 0.32246647293689623 0.10930685135764401 0.5875104420902656
Ni 5.106993782992061 2.9876836175662045 5.04402723697503 0.0199828708798301 0.07421437852988508 -0.4923755113576295
Ni 0.4779156391219238 7.1862406874730285 6.807660132359217 0.7882758037702231 0.1145632146605769 0.29759413517524874
Ni 4.909103077059525 4.552667239605409 6.913112812721136 -0.013857474708382587 0.11350237749623032 0.6726921182649318
Ni 8.284055799119969 6.904516926665341 9.39531708594254 -0.5740679434321145 0.43424158332937474 0.05333213576423718
Ni 4.591622174510551 0.3893040637803296 10.566786822178319 -0.21595723892904742 -0.13897326807382515 -0.1561191837254924
Ni 8.182534950807245 7.175157427075576 4.629448797168674 0.10237052924912693 0.15043755995968283 0.14954564427303277
Ni 7.422023425469311 5.879778656524222 7.168095936660053 -0.6628486498119488 0.550975066168393 -0.7877754670950369
Ni 2.3197082319073226 5.143568542303651 2.422530909084764 0.41994213598756713 0.10602946615795288 0.8248091228095665
Ni 2.418394672642994 4.997542044247388 11.373618199801898 0.5825137602066226 1.6928595728062716 0.513898987251702
Ni 1.0077499939581402 3.2904655731290497 3.903696920136256 -0.2558908418991916 -0.022026126562104002 -0.886025289307571
Ni 4.065857738246514 2.76208476064004 2.4229560702213218 -1.5084986206262665 -0.7730785272044943 0.23771519943142927
Ni 1.0189150161126224 3.3837103147023653 8.367659921075436 0.06885491399018465 -0.36176501342620276 -0.5621166846075094
Ni 3.5955459425284158 2.4459574694019026 7.144800195154163 0.21405976479601846 0.6688022962922224 -0.18010783333060593
Ni 4.04787015169983 6.8700498037572 6.0931841100852555 0.5023861015160961 0.7003852133048262 -0.16183268917050195
Ni 0.8830260674641603 7.329196577320817 11.33492671944719 -0.4454248536397038 -0.6062854087049235 0.30808989250025004
P 0.292698005529098 5.451065425855248 8.190234182927606 -0.5828510889413834 0.26432200338568024 -0.6613509822204997
P 8.506938348784791 1.8924394589458853 8.000403369310334 0.7632574273490145 -2.6270683637976044 0.48054046639591436
P 1.869746029050119 3.1453112004811112 10.478392369724837 -0.030543934225128043 -0.4211801221597263 -0.585643821195172
P 3.9164517542329955 6.344339875331183 3.8713873991497496 0.8547588750941215 -0.748390280429195 -0.9901284849770884
P 6.807747344900049 4.084744704120532 10.640221598487141 0.6613766932521126 -0.5505647181038518 -0.6744006163156063
P 6.271971635719625 7.964340075212165 10.20491473634565 0.18507700441042318 -1.064600488043734 0.18336799213911648
P 2.341075304411262 8.394615863904386 5.848917227101121 -0.19998246076734588 1.703184094660731 1.2723181126718088
P 7.026932446219163 3.805564642420457 1.478161720712609 -0.24514980133260358 -0.6128337513464026 1.73327371495726
Ni 5.2845348960636995 3.1836483798886905 0.18505138468686394 1.8346160600521888 -1.8033401327570429 0.02778102676801022
Ni 1.5081864548220993 1.0301436307447949 7.185167791527996 -0.7509390149929777 1.1716699654304275 -1.1030865599340745
Ni 7.0306753177632215 0.7544856838447955 9.239683581435207 -0.6956428135238342 0.037401066356277525 -0.6637439079327085
Ni 2.7891751561361064 1.5293809191723082 9.193678966146113 0.06512887128884913 0.2996042236267421 0.9360265609263623
Ni 6.394241801038727 1.9759091282342354 2.7136927020456576 0.6016173138052929 -0.09137932034494585 0.25608573151881703
Ni 4.166679069304645 6.995036276337645 10.542427269367067 -0.1047894231032647 0.08194337174302661 -0.6890584754380972
Ni 8.283401705063726 7.01753892880034 0.33866991611538094 1.2345210964286932 -0.19357398613784083 -0.39635020760024
Ni 7.645669084866416 3.789484830204482 8.465215324172188 -0.1386948176014579 0.7101672323922544 0.5371327609686619
Ni 3.2540361680521794 8.571348444045393 12.403349387905674 -0.48805194428161114 -0.9245920938371753 -0.042720421686661916
Ni 0.1246903133272008 4.728109800913269 10.390902747382494 -0.6993338892221762 0.6990179006436542 0.6630209137237548
Ni 8.580533014751806 2.5069517401465675 5.863529870010384 1.093930347356103 -0.18421157108633435 -0.7131186017110945
Ni 3.859173101113378 2.8516138845883083 11.449101562356313 -0.4867131708655295 -1.1149663420907958 -0.037857437167405764
Ni 1.256096788618091 3.3457819440799383 12.62285790239704 -1.3097713724222604 -0.3822348512447804 0.9076647219542174
Ni 2.9895459686985633 8.478530680536569 8.051767013540786 0.7448491000451559 -1.119388896638524 -0.09174698809700974
Ni 5.941490613802821 7.928519340993188 3.38968891606922 -1.5630160349478566 0.1305009689367559 0.9188006839663789
Ni 3.400998383994456 8.544258048549326 3.8596200653851436 -0.1980353643433041 -0.8072536304243065 -0.43719166709663415
Ni 3.177270962840321 4.155504962510493 9.008434987098244 0.9589124643856002 0.3115130592491861 0.15194345508124799
Ni 7.00912655246588 6.2461712590567045 11.429223462294294 0.9309152078417258 0.20123047424183407 -0.08100389064789275
Ni 0.7721253286921169 8.849374756507373 -0.019787253665319488 -0.8440407173456691 0.4454960731972714 0.4449525419889756
Ni 4.76683761982666 0.323485849370872 1.5745597407153966 -0.3396643248724215 -0.212481364565305 -0.04866635485745167
Ni 5.9544634792516415 5.500585796696649 0.5440827036947111 -0.7960379642141452 1.692058417061215 -0.2030852680623857
Ni 8.004366997598373 8.810556091197281 11.216323114698916 0.5536279304102077 0.2931055032762759 1.0104448279369371
Ni 0.044781822789507306 4.908276374849551 5.625872062386205 0.15329122735839404 0.4921173726002363 -0.20958038886842617
Ni 7.735034685300624 8.891145929710227 2.345132504487903 1.5578311483128076 0.9344044519419069 0.0491882887991927
P 8.61143895890929 1.4667332440076957 3.7357382849885767 -0.48278349679382015 0.49479286254987037 -0.13849761398898727
P 1.9579578802462314 2.923627823252735 1.743462269924793 -0.6330423650837935 2.0461990811729405 -0.18584679269691218
P 4.924192663551466 0.9909070720098816 8.478883164555766 -0.515212563856803 0.9440244915301742 -1.7021348274606107
P 8.81896846753174 1.5883129767118738 12.54244248896576 -0.8772647695061213 -0.4926534476093645 -0.18280337788489806
P 6.529039684462817 7.6315424701795 1.160228403108067 -2.3359251264540224 0.45535316849700935 1.0618203541954359
P 1.6738721131243337 3.3683118504616436 6.172695601869369 0.5198539192835563 -1.0847463668639898 -1.0753518130229673
P 6.818612573945421 3.982424407516844 6.044732092869051 1.0495927017809923 1.5684233220063568 -0.8168721273506769
P 2.3291290032451566 8.54306796075255 10.221149895899982 0.5294572467012754 -0.4079299420180394 -0.3428787180446611
