# total energy = -381164.7580705309 ev
CRYSTAL
PRIMVEC
9.28731411784473 0.00000000000000 0.00000000000000
0.00000000000000 9.28731411784473 0.00000000000000
0.00000000000000 0.00000000000000 13.59292298757206
PRIMCOORD
 96 1
Ni 6.928717032576315 6.860167367856218 3.071076059687403 0.9089240482826152 0.8819176948971005 -2.137670189900744
Ni 2.7938376629309984 1.9353740795767869 9.132432262086333 -0.3570331551681722 0.38465631620207946 0.7984319183676185
Ni 6.326267547267652 1.0370400571704994 6.549600516037553 2.6267523752190827 1.3447219203555163 -0.363568899404161
Ni 2.4962256854272042 3.967484821899073 11.8918502105587 1.165531456632857 0.06055847830934732 -0.2261112966439138
Ni 6.884574429078873 3.095879689218356 9.104594467067768 0.3173417501158212 -0.9842859101533822 -0.7005873020133031
Ni 5.646807654174266 3.3956277489448334 11.269212890782882 1.7216710977213252 -0.2855006943458244 1.2525008208355655
Ni 3.4695733431057074 8.794491980949687 9.359692835951765 -1.1252481836327783 0.005979871732518734 -0.9770809077645108
Ni 7.051476749182498 5.505436160288705 8.9303328793413 -0.9610737337029772 -0.13849992798183244 1.5780803854801466
Ni 4.973189481594216 2.9367972875125523 13.57597272671512 -0.16643856337362947 -0.1929353241125774 -0.7033517521323177
Ni 7.874434931070116 4.12022398813491 11.11827732092811 -0.6427688483429382 0.7230098926828774 -0.6179975549355292
Ni 9.28133298144115 4.406598315684589 7.946367964284661 0.3566438901495535 0.9198034141992804 0.00120301916916567
Ni 4.56655372490749 8.694161127681674 11.282248564729654 0.7441073367831249 -0.053321080020643646 1.6088166382217388
Ni 7.787264201756631 5.148543257448456 4.335123147050819 -1.2712572755074623 -0.9733882894042719 0.4228528818764588
Ni 6.245347180284017 4.8871239426481194 2.144881952708924 0.7105076464508085 -0.7374222114534655 0.16770997388688536
Ni 6.830234354796623 4.71501143938395 13.521111634116817 0.8647753787898589 -1.612075768588985 -0.9594968761341606
Ni 7.181749902824119 6.9065482140304715 0.5589114859533805 -1.1960365672002498 0.5012938968931818 1.5835198113281632
Ni 5.835302979355012 6.893165194539663 4.932002101415286 1.2165169465417887 -1.5882706957495871 1.2342241340135647
Ni 6.56766341305884 7.853454888717765 12.376288582915345 -0.6069747214624642 0.038333348362559784 -3.2793240685850553
Ni 4.696390374790562 2.8373208671336125 5.70244888114955 0.01681141513038395 0.15936263036345458 -1.6826024138546376
Ni 0.7571668494289848 1.3036324058753332 12.302070870453928 -1.5304625264918674 -1.2084691365366476 -0.24735400807277402
Ni 0.057554413661687065 1.5716178516819173 1.0319125311046593 2.252146244164153 0.13649009664065526 -0.6904530417927787
Ni 4.24619711538913 5.171612945453431 5.585725918650948 0.4218383245690154 -0.15649970699336274 1.0747805139005298
Ni 3.773844324755865 6.334263924631696 8.127711128945025 -0.31351260617771814 0.7744224428268985 -1.2324341319926775
Ni 1.1803804616265317 0.1873279098094797 2.5948616038880887 -0.2686892792154405 0.5750827578498741 0.5281945779387677
P 6.331171249065811 1.078424328406477 12.008490515962597 -1.3851718008404468 0.15236228778622146 -1.0038712884844774
Ni 0.8399391068265449 0.21218540576170017 9.656887813056438 0.5386700235487949 -0.0659092010982994 0.08840506820797032
P 4.585471983549251 5.227810482538014 0.7302169216299363 0.2365846853714119 -0.8327281205463273 -0.6431794535177955
Ni 1.7089586512864143 6.352940713109153 1.9249342098962747 1.2415366085145778 0.3375889304006315 -2.4477853403611394
P 1.3558363979349006 5.354452296401074 13.218043359631169 0.3333489241773549 1.6418576278371078 0.28524512669159263
P 4.067889973679179 3.8910780895251076 10.154865231779285 -1.1444800352791968 0.02497903854284085 -0.3342590946964501
P 7.993823352690065 2.7460544323409835 6.881145552745767 0.7085723771013087 -1.5095717990857873 -0.3752535348309408
Ni 2.295294646784839 5.958136994473287 4.614539418942959 -1.3466661885660807 -0.2624314712311867 -0.07400251962939514
Ni 2.9089074835355238 7.871593012982546 3.150771429952899 -0.3575404338218939 0.8462906897221103 0.5987651890684785
Ni 3.9663796315316846 1.7288892271554464 11.423220704112712 -0.38972344631234174 0.19620036801709434 -0.061029504408494896
Ni 6.583563294646809 2.097363410568242 4.260497721504291 0.8553350593125655 1.4962858806101584 1.5276631093698594
Ni 1.0491414273276984 3.9731222215041533 1.370166723454899 1.5621189770548838 -2.050667144246623 -1.0538458206303916
Ni 2.1922426105114083 1.0377273184073625 4.4744096389407595 1.2697305544502906 0.5134855538633673 1.3057074867655318
Ni 8.409309919629907 8.35415256171463 10.99556032596638 1.1031161276204293 0.5558056547878168 -0.5971546500482489
Ni 8.544096707881197 6.071943740372227 6.308312383088901 -1.7795330030351157 -0.6381141231797463 0.9090163508861056
Ni 9.497485927748631 3.7018119172813937 12.61825561851825 -0.6042935750858754 -0.7708498949842918 1.3454122615543216
Ni 6.500859763372937 9.024678058728796 4.575622787039881 -1.1499390015112392 0.8714165382554605 -1.2603066900332294
Ni 0.5069749685373494 4.109552864335508 5.338049971125073 -0.0676161564870771 0.10287317991715832 1.9022139617068208
Ni 0.01042779617229708 7.178647939944223 13.178134842591644 0.8021317358167088 -1.1251893053703848 -0.022419248235464616
Ni 1.4130555395607665 7.615783235845255 11.29667083465837 -0.2797059420409183 0.54580637748326 -0.8570504993417757
Ni 4.236343275222754 3.527656204934658 2.0509816356625876 -1.4722707486424838 0.09766849578776728 1.293360792274721
Ni 4.481528365130701 1.672598816930747 7.536487220082261 -1.921624762133265 -1.483188166885936 1.2111014319531723
Ni 8.093819862653659 1.3529294686492495 10.803940748352112 -0.5824921629400678 1.2902245606385843 -0.2481474505083468
Ni 6.8163962569192424 4.396224385933561 6.982004854181044 -1.2955966235837753 0.4254666653502221 -1.5410241040577977
Ni 4.741628881341381 7.356676462233822 0.9025727525212114 -0.5541550065582715 0.1142899063945322 0.546928149792529
Ni 3.7205072803868746 0.6202551237318267 2.438080598594375 0.05283642707474126 -0.35729232236682984 0.28148514542852815
Ni 0.8313381253203423 2.7041222095783177 10.593304466567556 0.510501788644695 0.6993714273283311 -1.4035042806010474
Ni 5.537003740614354 0.7466489663107745 9.482640156300986 0.6779659650693614 2.01087160951624 1.1491584145914724
Ni 5.62719284698163 1.661741946851111 2.3550148620740465 0.7497025714827154 0.3617079349360222 -1.8977849794011894
Ni 6.29746758651748 7.910274675841129 9.659484546054099 0.29465793536506024 -1.419463375033465 -0.33902823395031934
Ni 5.335264705652974 6.012607091151701 12.370062367601925 -1.2669213671362696 -0.7932012660962985 -0.47868284436188535
Ni 2.055208292269296 2.319395226645109 6.908739091405823 -0.12797408874984412 0.5858932182018167 -0.6488335664797793
P 1.864966952054357 7.336077199755951 9.18055169344357 -0.24198168801726708 -0.5466049621251554 -0.7800421030065211
Ni 4.663986936203864 3.7496508717554784 8.068187804712865 -0.28160701571837304 2.1861560533162736 0.2418359064680222
P 4.448967042205804 0.5495972387310819 5.296536606224333 -0.6401008145924718 0.28765476457434974 0.46018864221243966
Ni 8.671026428478617 8.475899961093543 1.5841055741020016 1.017612292219654 -2.811149579953662 0.4704038921825447
P 5.660376419945307 4.257964142241909 4.096403885157793 -0.6880462321234989 -0.3914013482353969 0.8722341490607494
P 2.109000415024858 4.6026535144708305 6.783344563814531 0.708638968673186 -0.08983074491090336 0.10124670005732886
P 2.5478445767040365 0.267752334224891 12.313244437941362 1.2747120668252823 -2.262955676074832 -0.530534538925854
Ni 8.340630232513647 7.680200045830161 4.786734579301832 1.1129084311205026 -0.31451482218998733 -1.3422382347017143
Ni 0.6532622377292829 5.137091999272074 10.615733329905726 -0.7659439730422422 1.3751285576718317 0.5759114243987566
Ni 8.754770138921797 0.8346471953026984 4.739688761444344 0.18925350438561597 -0.5865951293648477 1.4072344370674408
Ni 3.804464599052323 6.336325708342285 10.452617447724656 -0.09635697606519535 -0.20152975064980774 0.06343477141587785
Ni 7.795817817961374 0.8471785680986376 2.5596970468457227 -0.8310718158898267 1.1468755320945667 1.2556838465492375
Ni 7.566579046211455 8.299088076939471 6.724608803810559 -0.5837697441009108 -0.05937345686231065 1.2984189235239187
Ni 2.770220023399335 3.766860264619093 4.056780488658426 -0.5086495659273046 -1.0952786338538816 -0.1476607685454941
Ni 0.4494298421896739 2.623313290362823 3.681806114168867 -0.046678120782829284 -0.27330518072089705 -2.417797021529165
Ni 7.287876040035411 2.2040096373641873 13.755902362182908 -1.0084995312851084 0.23399481315704862 -1.5167467195676716
Ni 2.8310147809196917 9.104855440591496 6.880275331422873 0.21513500013806822 1.179747343121923 0.9911731241915188
Ni 1.5564330932728456 8.036507847887675 5.310211247375108 -1.28962780759485 1.9339310903044438 -2.136880347009597
Ni 2.493708823330043 1.9554718270980291 13.625817741015727 0.9659570299372073 1.2763444602223826 0.5667220445900046
Ni 1.228117255646488 6.691853376022819 6.933981082158127 1.8810416985045797 -0.9857835777448314 2.6221066489169553
Ni 0.006774166840108203 2.206182868842917 8.495970775404151 0.580337064270278 -1.2030284251370509 -0.3005547604654695
Ni 8.638873747370234 5.505092529670274 1.4957655719544485 -1.8262612603295902 0.3839932286967839 -2.4181837154446226
Ni 0.5029099111944437 -0.23657203489352924 7.265403526321386 -0.3464168131049066 0.34780469459136876 -0.06997540074787305
Ni 7.837954361632296 0.422968427107639 8.583237164051956 -0.7227836356046843 -0.5671511617076233 0.4085688611536189
Ni 5.074124010272987 8.75099020211905 7.609209674987799 0.166759437048158 -1.4350301191234704 -0.2995054932653487
Ni 0.4386537717419394 5.047088639185032 3.171418986463632 1.3810397809499442 -0.33482782271572653 4.776338599831123
Ni 5.899877673678116 6.68448853601157 7.208544732479172 0.35480143762417604 -0.982864090105191 0.20083709545815734
Ni 3.2103736963541585 7.278152222265198 12.548782794785394 0.024496185369151362 -0.49650907391002874 1.5707224024531787
Ni 2.3879077421091592 4.76287825580007 9.211638190903413 -0.6673141417824701 -0.8844317195682058 -1.3556555365488847
Ni 4.258270623604294 6.107068361964343 3.1727916514745558 0.9780021340271995 -1.425885476509725 -0.469220927618037
Ni 5.88232465019607 0.12037380563658683 0.2880757634766168 -1.0012662467614628 0.7437124153375514 1.7522741673191629
Ni 2.5489590543854357 8.740523399227904 0.8291899695894442 -0.3373372194011416 -0.4724916279495089 -1.1260261994493834
P 8.146646104752007 3.154733398110275 1.7817739793320686 0.20245251957439325 1.6269573136865079 1.4822851954556922
Ni 8.870369336424988 6.767526410589864 8.78756643089119 1.388901443086208 1.5167981416308975 0.3125461284993908
P 0.607073638955071 7.467223360914667 3.3871660771488057 0.35109904907192435 -0.2526018867352746 -0.5786949006811646
Ni 8.13165637993718 -0.048433342570831206 13.191605162834165 0.8281214750122512 1.7679015894437746 -0.7334812245278465
P 2.2837598027823516 2.1805220202286875 2.1512706960175483 -0.47476062648934364 0.7414056215812458 1.5705079724495274
P 7.8391245631977675 6.39934013391143 10.889019045818767 -0.8834683272136721 -1.7363955484156934 -0.5971993872432554
P 5.77046824023958 8.50791333249175 2.476318327843201 -0.3457159303831401 1.6886694459843241 -0.48904001922649326
Ni 3.8315464067103373 7.633642740689686 5.375511280922523 -0.12878938556228786 0.8356614921430382 0.7191810058550905
