# total energy = -340861.8213314524 ev
CRYSTAL
PRIMVEC
9.38921730275691 0.00000000000000 0.00000000000000
0.00000000000000 9.38921730275691 0.00000000000000
0.00000000000000 0.00000000000000 13.74206859921637
PRIMCOORD
 96 1
Ni 0.7430917508348834 3.724110917766624 5.53994983313402 -1.1553599154164942 2.0712642516716846 -1.3063186379869696
Ni 4.915743410772448 6.484991438614251 4.952091887076852 0.680360433443467 -0.3629099256639234 -0.23657697206192807
Ni 6.851734260005005 2.4062497895642485 4.374773337256529 1.3499217193889008 -1.323880558130133 -0.41252758869105083
Ni 0.028330084868979026 5.492307067534917 3.555210168523562 1.6479249170771102 -0.2914610256943174 -0.6993578004815763
Ni 2.5759129432388748 6.784770363380353 4.681523755747226 -0.1753194108030271 -1.2536048525330215 1.7778185914471702
Ni 1.173943207918774 1.9557175944384442 0.7549193476629923 -0.7707056560969437 -0.5713016935408871 0.6896076630733478
Ni 6.830101503720204 8.053713670296354 5.803261977459786 0.17223717233327757 0.06852838388870133 -0.2655077961636653
Ni 0.4660910668443558 7.670492772829287 5.411379527183375 -1.2002817156298489 -0.7008814362149542 0.11479769926888617
Ni 1.2101198615495619 0.23717256381496607 10.274641908765767 0.6379140913537982 -0.9906969558860486 -0.1819798535423382
Ni 7.266202472105671 6.830495850839979 12.926738020936604 -2.2079176133630813 0.5286679180307605 -0.7873082976506312
Ni 2.088546849282658 9.305944170707603 5.086255349676304 0.6583808438485822 0.23942421170273606 -0.8664869621643271
Ni 0.5239361557850664 0.29408154780706786 6.871569920129687 -0.5710911201919778 -0.06872173084643003 0.6890713309539035
Ni 4.756455342034759 0.47206354786551963 12.754384856552084 -2.6020322467645833 0.8708274985212099 -0.13440313220463948
Ni 1.6855147036554665 5.61863898411998 0.9552814856903893 -0.07063771692222028 1.8725933106269104 -0.22004092208011783
Ni 4.818968749736234 3.7719395898650494 0.8030522303966728 0.8077539670994928 1.875375758468054 -0.6831135707085719
Ni 0.061879635544694354 6.809764459400379 12.796779049771324 1.5642434795970543 0.035580725318087106 0.8780229878283846
Ni 0.8629667027944885 8.918864304997024 0.978264411399562 -1.195239010999619 0.07696160225771907 0.13159754443504432
Ni 5.975898696201859 3.8464430278511124 5.929935661548654 -0.07601800739752715 1.6640534472078565 1.425807829194254
Ni 6.21919209066876 3.850114211751875 10.707833158760321 -0.31763537009684006 -0.3555064341110007 1.0893447848679498
Ni 9.296179384884605 1.851084158658143 9.00226402622087 0.6290700106996069 1.9478921804702258 -0.2876776473924852
Ni 5.788367862314569 7.7613334486346 2.7114753991918152 -1.9886297673989042 0.9891712632701417 -0.8648586825322847
Ni 4.998753479485086 6.880108474194529 7.309392870938171 1.7112028512001496 0.9562302895677467 0.7318470313585332
Ni 1.420025199875514 5.6485530299200555 9.314470518790166 1.9099007888281174 -1.0547328512210352 -1.7598818044630917
Ni 8.180684053646766 8.96541604356475 11.73091699816574 -0.8975962819746219 -1.3179405384966143 -0.9121201866224098
P 7.700012471509588 2.0833264445542077 10.617658178450057 -0.27683787646450386 0.49786121706254904 -0.41247205286276706
P 3.883192423727288 6.646373302773602 0.9710215692996945 -0.12271515434374997 0.4572264742603222 0.13028756737436917
P 5.386584482566665 5.028761417456536 3.5043647409588576 2.157390551147807 -1.6830405298333206 -0.3317556115483061
P 6.291113493942011 4.8023967814885475 12.95240814059053 0.7924890705206223 -0.24184953331477702 -0.5125676700347881
P 8.525240154941608 2.936825060787241 0.7563446308244649 0.21355248614229674 0.10324393299301574 -0.7208154561347199
P 2.163594861862696 2.0316106365608575 8.872882491909545 1.1395769415506245 -0.9194925678270809 -0.34660167542220305
P 7.553493738078899 0.16454509141297535 4.12756745600843 -0.5835861673351949 -0.12372225545202563 0.6331120419794645
P 1.882547425285906 5.509733454542116 6.566111457917111 0.6432686707974922 -0.055755143383433015 -0.48266368338650417
Ni 8.537690256865934 9.231431343504402 9.01435733789397 -1.518443133433488 -1.8809787064771282 0.1793655558479427
Ni 8.385547382369882 5.3247846553676395 0.7370723237280322 0.8084324812237561 -1.196594753696565 -1.4811657371392684
Ni 8.975011823479274 2.9080471102608034 2.9373395898863763 0.7463850770737082 -0.10912353170224433 0.35577717127388403
Ni 3.9998910035292767 0.7391971035662485 10.319097974068402 -0.8144653176813973 -0.2792313163973449 -0.2654761715947815
Ni 5.869237189519858 8.763369479982885 11.055012607323379 0.957400655726764 -1.6084006337302428 -0.6868792083985912
Ni 2.721248635310239 7.590299469257899 6.817632623361604 -0.26204143488161963 -0.7927580079112928 0.25088927491954216
Ni 2.023366903914132 7.549071416807137 2.7757192396117323 -1.6421949565718688 0.6675781940771341 -2.506912999761231
Ni 3.5251534066229966 7.6436771686845875 9.273367342927333 -0.5683238418594858 -0.32300100528412756 0.8998989619658694
Ni 4.687698104936846 2.8443224935485905 9.263872027636179 -1.6736300351526983 -0.9869431452705713 -1.291905547885433
Ni 1.5618117678689027 2.6806872172762386 10.77275114497071 0.43713047484139556 1.760230446051762 0.1980577329408073
Ni 8.761651253246724 7.035997646328443 8.156219509473297 0.1565814680738916 -1.795403137298153 -1.428962315662836
Ni 6.11414552933441 5.928051245669158 1.1622010529666162 -1.742296487281161 0.7878970802745656 -0.15741527682909665
Ni 3.8104447693459376 5.187195067434714 8.206364501439543 -3.0202921099537208 -0.5486798423763132 -0.16159871878282492
Ni 2.1212213249211582 2.0976825575574454 6.040298397626258 1.8917721975482062 -1.0246789692584484 0.972966371375505
Ni 3.3642597817547952 4.205937373611716 4.889538105741686 -0.013033179034874326 -0.1069424648905255 0.6811500192242979
Ni 2.5230328723204747 8.09155221536048 13.551081525868382 0.8134589879040701 -1.8102517722752116 -2.6282343590812474
Ni 1.4747643357871394 3.8077500640274744 7.868516056867733 -0.3087612075356618 -0.5720491132298728 -0.20644801388703155
Ni 6.61599918533379 2.0625293285946453 12.66900494943394 0.2586501498118836 -0.1412453519374535 0.4639889897951364
Ni 7.594862628786725 4.652385259282708 4.6670953457720294 0.8228987931607312 0.6215616181377037 -1.2750432249124557
Ni 5.065510813332711 6.223116783432236 10.672378535927407 0.4214459742266032 0.9332736807715734 -0.3758443743374043
Ni 4.01208759659089 9.01183633309255 1.138574026961811 1.3776569805206402 0.9137808621542844 0.814304880844133
Ni 7.510472345154873 6.946255508928218 3.620554425191994 1.9831088375806751 -0.3047960522403267 0.9474008642015747
Ni 2.1616231262638212 6.229463894217186 11.682847023186882 1.6391816236668415 -0.35806750996995756 0.32158792698668487
Ni 8.65683942234081 4.196895557508304 9.112378886966042 -0.1488812712161565 0.4360665523532554 -0.02778796874654569
P 7.732508552022475 5.583589036545692 6.5180414829382505 -0.6139814917976006 0.9976885567125333 0.9992682424948274
P 1.2743796636386124 8.066323388912016 8.446837375078342 -0.8370424316509648 -0.3058376061309636 1.324898714982002
P 5.982396034461008 0.2339680240059373 9.049990355852495 -0.34014255006042066 0.8350400565089555 -0.6059149127393824
P 4.469323692752869 2.721905880509864 6.575469690638057 -2.2947463382228674 0.3340354087214183 1.1995710627160696
P 1.6550654724785538 3.8322089746706625 3.2970104529291646 -2.7696458042829204 3.2186768872166436 0.9403066763589547
P 3.849841924454888 8.06135649304628 11.57495834582501 -0.5534582376015629 -0.2901793307684164 -0.5135261772933156
P 8.901991881800937 2.505859994175987 6.9016510939948095 0.39467230567718486 -0.31613256029906844 0.5431586554477678
P 5.038582538582362 1.78630794962653 0.8361773884577732 0.3149470246313995 -2.272458730469261 0.0027096856216792045
Ni 7.704716469295475 8.059544374138742 1.3397126532464791 -0.6160892821692229 0.721629467395583 -0.8023569644536376
Ni 3.4910517699795967 5.583833156191267 2.861126375459574 -0.7485149789325173 -0.24362025206195465 -1.1303497665254016
Ni 4.018725773107102 2.9206098827907785 12.248195260078607 -0.17826332392269942 0.1971226227210476 -0.5999985472549473
Ni 3.8704700345059755 8.850285463024724 3.44425685068801 0.6131667092057892 0.15722630074674213 1.7723747947237798
Ni 2.7243564661827517 0.1388167586127976 8.036045041487005 0.6763171166120288 2.1645292190751175 0.1330695009948805
Ni 9.433534242389092 9.214925099776677 3.133590189729262 0.33701865971945827 -0.3922259010192213 0.30251779772911125
Ni 2.2337041462284093 1.220617006309287 12.423860001347522 0.9655988752668402 -0.8060513825860893 0.5870203898277245
Ni 5.907507638572308 4.771478089454759 8.53173561535733 2.6455335124813275 0.8350932783443942 -0.6046033930168103
Ni 7.563249134684762 5.8330323682376575 10.540784902058489 0.4679860267696715 0.33287069898935573 0.42269064526698175
Ni 2.6329993834348757 3.6274677057703357 1.3931842448445424 0.026728674244095904 0.2885795903814643 -1.2568493276122483
Ni 5.276664917537952 2.638877033362951 2.8860265793082243 -0.6774471164514139 0.6969494481503997 -0.8079658259999827
Ni 4.372304912071081 1.5204522663782147 4.847817119391204 -0.01750047077760857 -0.6999260142802204 -0.29470138700848597
Ni 8.177801563985556 3.797224751616337 12.048234980544695 0.6375019435170439 0.8158280023568788 1.141021387306635
Ni 2.977583652381129 2.419422861208161 3.2185025138339576 1.4883892514709012 -3.177605828207947 1.3755635883267214
Ni 1.242925786227987 3.8485086556213624 13.104299384067296 -0.4186090189984403 0.238694275515247 -0.9358879784659689
Ni 4.246639629902779 5.388039811222978 12.84700666684838 -0.8973826233019189 0.5500954917769172 0.21491877036220405
Ni 9.24695171943269 1.4665018247061392 4.885003113864273 -0.007374438087200203 0.08830556651562856 0.30891547372533895
Ni 4.980435116849823 0.7147945282258857 6.986852605987341 0.3295053820615486 -1.1791125377514016 2.413106815142347
Ni 7.0462318930083185 1.0537706177759103 2.089811576831079 -0.03897226749813933 -0.05707309086390816 -0.23219478383383235
Ni 0.3725012282611824 7.055545996408719 10.491794783800156 -2.0477237453475827 2.9792400771084178 0.3515263664173301
Ni -0.11944962042327617 1.5098424510128399 12.01176350549579 0.03628135092953752 1.7841188226335853 1.0241549784341781
Ni 7.1172800990877825 4.1883889267817285 2.2346665409850033 -0.7006857752643804 -1.2001071377251977 1.4735259612058236
Ni 6.872343591621817 2.2985554689971224 8.505144413502217 0.3657432813476605 0.06865282528170757 1.0187669746493875
Ni 7.1389879691096825 1.3119365321886127 6.450828772059457 0.9488913327041723 -0.8780129605260557 -1.0853711449321823
P 3.8740661046696374 4.5022422880369435 10.335258694605468 -0.48237751960465314 -0.0140644485128661 0.8814520681145916
P 4.479003975621631 8.492415451828908 5.648553968841768 -0.31523036019977324 0.5185704245854423 -0.7487309515980654
P 9.330215297008042 6.834974507414567 1.7823053263608137 1.8139343633331213 1.0679439505946704 1.2097089224810198
P 2.380974017030098 0.6003531162237521 2.363402097157267 -1.4674391315817954 -1.4505246152146436 -0.6755933510721268
P 6.922838801387293 7.3160686043229335 9.141595313932802 -1.5748963313252102 0.39198601709427333 0.30571676428238315
P 0.5559430580850905 4.730785222380834 11.102299521592972 -0.3629793454492781 0.5512144358727087 -0.09000943658061274
P 0.7654362097787062 8.9043110184339 12.459314624180438 0.6594349961447095 -0.2494288883239317 -0.15356222163159358
P 6.642983795386965 9.27140124085874 13.248920556714495 2.1335258287150674 -1.522377692601204 1.1336585191836606
