# total energy = -340854.8874889317 ev
CRYSTAL
PRIMVEC
9.37154555272799 0.00000000000000 0.00000000000000

0.00000000000000 9.37154555272799 0.00000000000000

0.00000000000000 0.00000000000000 13.71620420675576

PRIMCOORD
 96 1
Ni 0.5270032250291476 7.492822213882063 6.634404599269168 0.20795288056733216 0.4591193204076609 1.7308522499999608
Ni 5.995989632670553 0.046472555812759456 9.044738863849997 -1.8093359453291615 -0.644036145091136 -1.5248603498137416
Ni 3.4631233509092496 2.3097579036463247 10.650563453643645 -1.3016875669728614 -2.1977905522314085 0.6541668057672346
Ni 5.930145155641282 6.832203245087967 3.0538988953023565 0.1331900857331448 -0.4018693376462562 0.15097183519659807
Ni 5.164293105070689 0.661533631611923 11.101388198680219 -1.708193889170497 -2.732060646940295 1.9101938945885035
Ni 2.604671061578876 6.452693148051626 5.690441645171703 -1.983140976370191 0.5432964665772128 -0.2788903881181584
Ni 6.7390594567028375 2.179334108198509 4.4578482170870934 -0.37436701846092946 -2.5088513544345243 -0.9396988675716267
Ni 4.7142433868275 8.36625023254531 1.6645298236403265 0.9448387599013534 -1.807063604355217 -0.8665455833164043
Ni 5.470986295400876 4.520186799032866 0.34162375099503206 -0.7147543375423046 -0.9059153433632786 0.29840660377421513
Ni 8.57259291618187 1.5351247151627758 5.718477559985361 0.6841628379086927 -0.3015906579291516 -1.0380044827227606
Ni 4.793639118309422 2.3899502164757394 1.455192931291718 0.9671777897181859 -0.16486479112860636 0.309663407634957
Ni 4.1354098935578065 9.448860513060302 3.5158607847314123 0.43487818847210913 1.0815826244240276 1.1755196781938206
Ni 9.11811993758108 -0.1722208873280527 0.4633048318654771 -0.8991340587753871 -0.19487959232314178 0.17152883341234332
Ni 0.06786310787927088 0.4985024815703637 11.573375767233372 0.3306109564209016 1.2238679875902212 -0.5864426629473836
Ni 5.1221961237419835 0.7135953770205061 5.868409164056025 1.778237424152144 -1.4333717575844411 0.9915934995583889
Ni 7.998604511813988 -0.02263134465954805 9.767116315937985 1.8389866783160587 -0.3249079924988533 -0.12988338995741502
Ni 3.434671339485842 6.910718051315013 10.163789460971962 0.6028319029386844 0.2280547935235298 1.5530481251018673
Ni 3.9023208197360004 4.846419661239802 2.8590054285155913 0.6253997609368713 -0.5761744482521561 0.06635708726899539
Ni 7.104877726107557 8.194797811928957 1.3293508843237785 -0.086410920596077 0.21649125705564648 -0.5310230485264983
Ni 8.223081135537601 4.564860955309344 10.401203502933395 0.8782451311415198 0.5518782947089528 -3.5305360169513387
Ni 9.035172390443865 2.902948604261428 3.8507829437077095 -0.7987594769103662 0.4629338090577446 -0.4460925691306898
Ni 7.007591714715463 6.210419959870486 9.343807364952884 0.5604033014608285 1.557220511312002 -1.3305428006416569
Ni 1.5546550154942587 1.1715931028026247 13.23990829009675 -0.2627253483225217 0.9587366009293683 -0.33657411598287196
Ni 8.75481324230728 3.4220572395596536 7.047893107971466 -5.14203225888777 -2.7073148074541824 -0.3747668250025094
P 2.57201122633165 8.39265924710103 2.1156282177986268 -0.7480460097158989 -0.2916536013210977 -0.5366833321360692
P 3.52682174407292 2.327929329914437 13.069484865150454 -0.5786103113871583 0.3477928675168268 0.495471890894766
P 5.771419293494293 7.3856679653263155 10.775668897153787 -0.11110945178402154 0.9087566694668155 -0.983627193523461
P 7.321988315253174 -0.11168632784572025 6.074769653628588 -0.22455577923133585 0.1382245628332587 1.1934392387867188
P 4.640095720693771 2.6209119495224744 3.869670356034039 -0.7411240857850849 0.07670140661779694 -0.5882642895371546
P 6.655230984310748 1.312859776121614 0.024193581255161387 -1.3175962677833177 -0.4495705003769612 1.9563673078207726
P 0.46595229340273425 3.2162018762768545 0.25516562300168805 0.5185683677029134 -0.5236506673218272 -2.305732404920726
P 8.21483417570473 2.6108469099082647 8.915299080654966 -0.9103890628639161 -0.5307039746241827 0.5219658234202366
Ni 9.159626511558114 1.7669954881001801 1.559710964164525 1.200693606356287 -0.8454586807391181 1.1939588587356145
Ni 9.128644182913256 5.487077238620241 7.542649782899558 -0.7104796214263506 2.150826524777044 3.046471596562566
Ni 0.3552443548826411 4.789300092851899 5.585375376900915 0.9807886956334011 1.0598902270522585 -3.1716601521474734
Ni 5.389603796322855 3.0749258314126005 5.963531285646517 -2.3256579402000592 0.9745434860546377 1.4241206712998185
Ni 3.212537602078385 7.989382911273595 12.528339041162457 0.26063735544524147 -0.11199262571992324 0.010659536596375191
Ni 3.5251910951968757 5.057513718325527 12.271050763158332 0.17485841200620852 1.0504763899375262 0.22989416072511373
Ni 1.0530805413861501 3.885302093535437 2.0545772861722136 -0.5849269976338055 0.6596622816641672 2.328292549609429
Ni 5.110809696245462 7.522539383916194 7.887996848828226 4.80517840688095 0.4660073057767458 1.1638746377557245
Ni 3.2073551375470464 7.158407992659107 7.935249117207003 -4.34942748872489 1.404325490950762 -0.7080404158572386
Ni 5.296909842110428 3.030813967852001 12.124205208943309 0.8964932787184303 -0.09326496740343293 0.5472922180001673
Ni 7.51388007609168 8.22965996031337 11.912495441333697 -0.683435729934681 0.056596922558438005 0.7744658944703243
Ni 5.618588133318753 5.0672976115817985 10.70441328988872 -0.8066350230037012 -0.5683927474242081 0.6915095080817509
Ni 0.1775720396741548 5.255450125859717 13.116654663930902 -0.11128582946088576 1.4482180785686543 -0.09232651474956356
Ni 7.335455225798444 5.707814615783269 0.8876484014477933 0.35066864640272505 2.235432016733266 -0.6843124761126795
Ni 1.8389033549156641 3.5420223904921455 12.119583162818795 -0.3157795478350239 -0.6482517258343803 0.6789938921132435
Ni 6.584466446017548 -0.3978305308741597 4.093519086224923 -2.4591843262267004 0.7267130525660774 0.513648818914109
Ni 0.6790368667026672 2.280246907608014 9.948115529715414 0.34251285006481014 -0.36159840594135145 0.031223476790655905
Ni 6.232480577423419 2.1561207905780275 10.074771026812323 2.039065812562269 1.5334293224296753 -0.734451815971232
Ni 1.214870898834673 8.928805351690347 9.377453086761946 0.17590227988969062 0.0832885729170114 0.12962807941349935
Ni 9.217945637739888 0.7696091030671824 7.814354308984259 -1.0983942966647275 -0.4014425345214828 -0.055828934044161914
Ni 4.32140695242486 2.1364967747938985 8.019836684765528 -0.13433859751529123 1.0680285398886766 0.07280387133560365
Ni 3.1357190455442367 1.5085563843375578 5.263620239021419 2.3828277045428314 -1.5113337760822165 -0.2928764179846053
Ni 1.3416304200840194 3.604839858400941 7.4634255506959795 4.202824729130265 -0.9632861679732636 1.1974735567570924
Ni 3.636140819584796 7.0924229424508685 3.51852136643204 -0.9735037319362136 -0.07301264491230006 0.6934542905129476
P 9.0135709786089 7.065001801006569 0.7454277048208651 0.864427508532137 -0.14580648894557469 -0.715787149682193
P 1.9975636162458015 5.6246140369239095 7.778761180069206 -2.378503623246181 -1.7804172054122822 -0.33969312122782785
P 8.210429549430355 8.84441458658238 3.032721077313352 3.770828747301958 0.02753317242326226 -1.2829892192324097
P 1.8059155155841766 1.4073530670248495 8.083178022054616 1.604393826563695 0.47546202343174243 -0.23031839274672591
P 2.8026074691130654 9.245151233643101 10.763982580208797 1.1878316627919543 -0.05635960973665133 1.1322914636328048
P 4.144153545289703 6.201170244694299 0.8970771131385348 1.547001404687155 -0.1651560971167801 -0.014435201588723526
P 1.2227242537664305 1.8335522025695619 4.657556783830824 -1.799761414266849 0.6884136427652465 0.4595222122730344
P 9.147434131168835 7.469402722265759 8.744766008629073 -0.5169783975079741 0.2400803572294962 -1.612082196346888
Ni 7.523335965263688 7.612271929824999 7.469200296888042 0.45895502691565476 0.8223069252130032 0.18816104265238562
Ni 2.6309957322272135 1.7911647033376534 2.757313853694596 0.1962988412681716 2.456010556484409 0.1542206811511989
Ni 1.4569660276557854 9.451859407544982 3.6500463184484495 -1.2234882356532994 -2.5307733513185964 0.056998271761914736
Ni 2.025172188595393 4.247868436733332 9.818086276323239 0.15937522876894486 1.5403820995984245 -0.4609759140004255
Ni 6.314612800122611 3.734410843229676 8.455751301286078 -0.04724376347831218 0.6924639015752203 -0.39883877835004855
Ni 5.3677493527657445 8.732424620670086 13.22242004947843 0.7146262966048724 1.5677103550997322 0.16284647514699696
Ni 7.195369367182797 4.127490937809196 5.154412684898192 1.4123756149487483 3.358769870717209 0.2727120272215884
Ni 2.1135739750766205 6.193972897931066 1.1363214178901477 -1.9367662457603936 0.5609725437007371 0.4171103229657268
Ni 3.3148655048228486 0.629150256950004 0.8952159242489798 0.2911031281342664 -0.4435659460540941 -1.27066900710416
Ni 9.174733442524692 7.036156184682047 10.673140443340658 0.2801602559695175 -0.8610375090139817 2.1376791887618087
Ni 3.541103979056212 9.455889172008769 8.626531782106957 -0.2856469901157016 -0.7159313885695412 0.7386092897830312
Ni 3.958924953134348 4.744944569114419 7.385503963284184 -0.1909100661524325 -0.9265818705736946 1.1166570995296576
Ni 8.825643381417331 5.182979966328356 3.301627259982036 -0.7543688666101331 1.179413356821272 0.008534005612940142
Ni 8.865706737423613 3.2960193272956837 12.018260826881225 0.3098783518592405 -3.7545868315217987 0.9600985142739014
Ni 0.9199577409021219 8.185229464213773 12.58310822599799 0.6693054611808861 -3.0763341884499535 0.27548419065008684
Ni 5.367158945414072 6.495343050550945 12.706855732599287 0.8696003109823283 0.02176953046660767 0.4294243644463895
Ni 7.878957993420494 3.6832609491753407 1.5742499794880673 -0.36944772678244114 -1.1360439886967015 0.20186579383298783
Ni 4.368386508836436 5.338004068095818 5.12858470614888 2.7194918091363487 -0.9254037911051933 -0.19066144047673617
Ni 6.011799429531979 7.402714806162672 5.850153393880531 -0.6366010289693296 -1.2328658202134575 -2.121179648444889
Ni 2.988267152350593 3.7970783664142376 1.0718236319154044 0.6939901084117596 -0.18232772380006018 -2.773171558047992
Ni 2.2393869702542397 9.127079134854062 6.477929782294741 -0.19035007988390443 -0.3251123952001756 0.47807580690550566
Ni 9.69242697448796 7.477565338191249 4.470206473827558 -0.16665299337728073 -0.5913830376717945 -2.036649232700976
Ni 6.968896604317818 1.5710645912526209 2.2826919437675555 -0.025754226145968548 -1.4988428427040574 -0.829992466782719
Ni 2.397597397411675 3.4635825566272165 5.344532286527157 0.061342407663223394 3.916953024598267 -0.3442264903218072
P 7.475484855142502 1.1104062837698743 11.79914472704898 -0.7425587613490825 0.6520402463425351 -1.351265635011305
P 6.069678093086316 5.227063715253162 6.998075847653761 0.42559007830196377 1.4281873851700242 -1.8324247088278247
P 7.236463593168187 4.614502030576074 12.169290776056904 -2.232608174131226 0.7127995278087789 2.9119846463948686
P 6.760726469354656 4.905938345215448 2.9779659497957156 -1.1121597258799363 -0.4405754959672025 0.1985236168336323
P 1.6519972561579406 5.976065727437955 11.248000401418151 0.23104704338263432 -0.3200992582563003 0.7992981230226557
P 4.194169482367019 3.8682271380632867 9.619571644446221 1.1395265479286634 0.824042162736555 -1.6020638928789377
P 1.50523885731388 5.454464261099338 3.623628869501992 2.2030098916488186 0.8711008067872547 1.0811961876188863
P 4.0490323608537375 8.225789512119078 5.51861811136287 -1.2532734373355319 -0.3249984953301306 -0.6135166363460401
