# total energy = -340876.887562849 ev
CRYSTAL
PRIMVEC
9.17787413897338 0.00000000000000 0.00000000000000

0.00000000000000 9.17787413897338 0.00000000000000

0.00000000000000 0.00000000000000 13.43274651612446

PRIMCOORD
 96 1
Ni 2.4035109110883583 2.9085326247428354 4.461996156386809 1.5448344789428232 0.1256374701968675 -1.7314466890508502
Ni 8.896012645048414 8.016295033424656 13.446985539838272 -0.7011627149007988 0.04830665752518777 0.7061054036180548
Ni 3.5851714107562884 8.49822521522956 6.991154002819777 -0.7040912014015035 0.6737814946743687 -0.5027781947481921
Ni 5.430529893612593 8.815027081836714 8.470273998914823 1.2036064091277079 -0.5389590155441234 0.5440582844439017
Ni 4.394926086255522 0.5756445389443366 4.809474150201441 -0.8286614066761213 0.33886754000273894 0.014713652061090791
Ni 7.864392035156652 0.46197564740611724 9.272100826555686 0.4097898780449136 -0.8856087705954425 -0.03126641421344938
Ni 4.619352647590036 6.504065855633531 6.4640530768558735 -0.1594528760844157 -1.5798235934234985 0.03901571914156506
Ni 6.54840416658953 5.653478817177718 11.641704998667468 -0.8659107779458829 -0.324563464675241 0.9914744574820215
Ni 4.8046447527216145 8.851298041244311 10.926679753210117 -0.024676162590441374 1.4264909713042078 0.19035882163465281
Ni 4.1201405283953285 4.369228038092245 12.322261819238385 1.8745668894135137 -0.6638971456811211 1.0184867244048073
Ni 8.526997851298086 8.375241699019586 7.093940688748284 -0.4259256072645116 1.0842781689783199 -0.49530605474086314
Ni 1.9369261351866705 5.19174913680402 4.974965909223214 1.4217596272668094 -0.5936417517989842 -0.5824803358655258
Ni 6.47815671636034 7.403965612939806 4.726244596712625 0.25310299474140924 0.16641233812138434 1.1927406700577974
Ni 8.479034279976197 8.573951856442132 3.858167283119397 0.5498450663290079 -0.8449118070967127 1.5243816104051102
Ni 9.135022848715588 6.387745476197322 5.558148236366301 -1.2426311271303372 0.11423359923530005 -0.5428802049754006
Ni 7.862152633816709 5.018746205419095 9.498805336302386 -0.40530021770467617 0.7085775193076312 -0.03828346896123084
Ni 3.621552504656015 4.706120271638475 10.040830403737115 0.6711931651219022 0.28462394816782594 -2.2701699344350836
Ni 1.4962596764325171 6.255134369800463 10.234221982977296 0.2361267718983869 0.00922486103237766 -1.5833840570812474
Ni 0.07294115634916137 6.375291100712476 8.046833492516976 -0.526293504261313 -0.9624204775388585 0.36943975636264115
Ni 0.515545064377339 2.8544657669821674 12.517546793955741 -0.30411111035816013 0.8069078170491135 -0.6004582605001852
Ni 0.9267175061395244 6.541988832423055 3.2706190411508564 -0.847123984256683 0.085775086784291 -0.2297190685998302
Ni 1.4973243098564244 0.762385830434837 7.2594186809585395 -0.16018769736791122 0.7008330994755221 -0.4925783713970549
Ni -0.1139378032564994 0.15343386770858888 11.413361320562924 1.4734382865880238 0.6391482208712154 -0.43502422713167016
Ni 3.7986212343753447 0.6015839652028626 2.3688378196040554 -0.3827781253427601 0.686192980964844 -0.4098703535738619
P 7.769171588837363 5.14025208385968 6.288486765166661 -1.5200235905467308 -2.992611356209001 0.7131260579102622
P 1.4616315565325 7.498782232787959 12.306787005306921 -1.2400214574216322 1.1906994712580525 0.44543822337614253
P 3.5225140626096105 7.7021363946285835 9.319881758178129 -1.1887125227350108 -0.6080383868402882 -0.36748288974658644
P 5.98889341295456 1.4492138925450302 9.666379555012819 -0.4543944041281658 0.9125480181884477 0.646975430225118
P 8.005896501792874 1.3395566498825855 12.94120206261324 -0.3664426214075302 0.16859546181563223 -0.7782027358049372
P 4.258552051377612 4.778331786977286 4.515095666191617 -0.662229271060395 0.39642168426812374 -0.3183473085622001
P 8.3098309885697 4.413428680933082 11.50581922670466 1.0834893545284374 1.1397790302591015 0.4589419142895322
P 3.726281228795717 1.2542207742318146 12.90279816520809 -1.1416783041643435 -0.5850334413046827 -0.31796344286022016
Ni 5.917526262055399 3.6858343365615864 10.261530748087951 -0.5618857995436258 0.16610817661740424 0.361619488987274
Ni 0.9082433628724308 9.153176684168075 2.3293858089488175 1.0601110848138129 -0.02089329850924144 0.08618466351788383
Ni 7.162495738948434 3.350584942522937 2.8848169974378672 -1.0268988597279023 -1.6705786499208841 -0.8413670271682476
Ni 6.157628632769512 8.557578528612387 2.651920175871251 -1.3897298525247743 0.24066991118437908 0.9754994222100039
Ni 2.116353578612415 6.560509782849302 6.769714839584246 0.46837991977398047 0.8255809679785846 0.8236696098884847
Ni 1.1725468704443107 8.27328469293178 9.053268179633857 -0.10509949814451577 -0.7688297792304695 -0.5283966666472448
Ni -0.176808078087959 4.229999684293341 3.9717269579529226 2.1269759434116917 0.8922632997974828 0.08806516837004832
Ni 9.17437757390278 2.5149211277505126 1.5049511234363115 0.6453746613969015 1.5398560518916253 -1.803828128137055
Ni 4.100619189665581 7.491109529836351 4.529200223483519 -1.535986284523574 -0.6046291040484232 -1.3928131194357882
Ni 3.624700515556017 2.373141324883971 11.033309215126467 0.15125671342686853 -0.36670641659187814 -1.10489661655962
Ni 8.330765719948428 5.674211635320877 13.525298506040992 0.22633601106021017 -1.144252492649423 -0.2438076854824124
Ni 4.508603237880651 3.3541734913914514 2.5983360743010784 0.0786022231849356 -0.27349209992072254 0.2549475041493158
Ni 6.974982588225601 3.521036424840222 12.949879742805518 0.013561283624202449 -0.29803713624993833 0.6321692184502209
Ni 6.498430640786298 7.227649468916687 0.7190552500818127 -0.4155758885990714 -0.8191660655911762 -0.3857217813521163
Ni 6.818600787277711 3.6556024184723586 7.859083552636066 0.6352797390547447 3.6977011740783476 -0.2709991582955397
Ni 4.649722233794424 2.8480412549413474 8.40196858689683 0.3926074527283561 -1.1404727138920165 0.35347809082706216
Ni 1.7387758280991092 7.193783112587225 1.167653227844075 0.19408563566693673 -0.2094297222231748 -0.043698983549847324
Ni 6.712403603242964 1.619830576600508 7.402222734601875 -0.4660764684517844 -3.23804500733061 -1.0591901156614403
Ni 3.105462274542641 6.4482827353705305 11.717465598015114 3.035104492376205 0.13294068872650008 0.3607825949082754
Ni 2.6598214078940243 3.000081921324513 0.4161624520430334 0.19001943601736307 -0.845220596586383 0.6373340504806121
Ni 3.3705009298494772 4.150124643877267 6.834809831156698 0.060756967473398586 0.5256198752330561 -1.241303152347533
Ni 5.310042759224196 6.774877393902762 10.033401832243058 0.44953681892554836 -1.7703248541732868 -1.1548258972898948
Ni 7.592029436123282 3.026752824168258 5.351256921753487 -0.8137497796716114 0.3524941296472381 1.2983142796252545
Ni 8.89805013315279 2.3493981639559705 8.204318473961019 1.0310167385510178 0.6490132865907533 0.1568185237853622
P 3.526800129928272 7.6747129060886286 2.3498038260019762 0.6323947041974657 -1.277047142716362 -0.5106789376525077
P 5.737217742692628 8.879676028716045 6.3300203177231245 -0.06661831135018205 -1.508207571748409 -0.032091481217906025
P 8.71881542508827 1.3356835869094057 6.165294911209078 0.3490419094325795 -0.9734836773315557 0.04517068299936736
P 0.9345462329549803 1.0609989856669961 9.74106542527478 0.5280827349512518 2.0363090757527385 -0.58418420593051
P 8.099345618363765 7.6490056800510065 2.029728211616308 1.3151778881498124 0.6162288930708807 -0.0796499477231596
P 5.921169878169978 4.322898128403592 1.2682959623258157 -0.29420079322298365 1.105978793880205 -0.7370260044563114
P 5.344377187145204 7.299319489669202 12.357402064526799 -2.2026954457321937 -0.748816055112704 0.13109617931859358
P 1.3334992528155272 7.745024601438225 5.023444359295803 2.172576514859626 2.373916775206447 -0.470024654466255
Ni 1.6420410325130554 0.76523188926892 4.76236503898098 -0.08864572346386669 -1.3807389618800736 0.2715324050911904
Ni 6.6104007077834375 5.025198251082947 4.445944054159105 -1.439787688413114 -0.18234880684598273 1.741059015329634
Ni 7.732735427691572 5.6278266583861605 2.597544023745189 0.44319879252266253 0.8962474812562112 -1.6128843805332094
Ni 4.232312508628037 5.928585600639953 0.6193385631213845 -0.15188534814980295 0.36132689744751967 0.05867745923655055
Ni 3.1169254395983317 0.5455998494917271 9.052005304124119 0.7200945188082953 1.7280268647360242 0.1144562567690674
Ni 0.78846017144622 3.15267326016832 6.067343129485007 0.39800188427105004 0.6311266361183195 0.767831162762626
Ni 3.4755049902194997 8.254653608013404 -0.029672067754242054 0.7583013688953198 0.6530491472230238 0.1883574749339079
Ni 6.646745090185789 6.418849292349233 7.484673086558884 0.8666204024183978 0.896958648390623 1.4420312330316518
Ni 5.015176012299269 2.7534816155748283 5.055696327528152 0.5546106060384512 0.9642210210827071 0.5913640115084009
Ni 6.869767436745666 0.7861840586089012 4.867100187632723 0.17549784536242033 0.2056219184413104 -0.18498521602756526
Ni 5.785328160004022 1.6368279998856476 12.063103428023767 1.3923711468023634 -0.013252494134532016 -3.5654665102799368
Ni 2.378510381375227 2.8127064387168406 8.640547430469834 -1.2222070549480306 -0.7024264121045709 -0.19317160849309958
Ni 5.366872157162416 6.064665943538854 2.677442008847123 -1.1775012274002237 0.2396635814070518 0.7913266747814048
Ni 1.6928313891329057 5.216162282559135 13.342626684034633 -0.045273784236134935 -0.5851108315098374 -0.23654843281683774
Ni 2.541417650981721 0.14136496294619222 11.32874866141046 -1.756699035859736 -0.21567981689794466 0.5595316974891525
Ni 8.014542059424947 2.563756597135085 10.555385175472733 -0.032420582422550616 -1.5856417427671725 0.09802099403117957
Ni 2.5252370585132 4.6136807212454265 2.441227385705141 -0.6570251011516363 0.7748543881579946 0.19679146463387398
Ni 0.8707765264378059 3.9949359665941007 9.933959563725516 -1.5513571105526893 -0.13060509861478797 -0.5936209258633777
Ni 7.7149945965845665 0.760323562069734 1.4921360574897453 -0.5262027443197196 -0.7412295010146976 0.6928943042444196
Ni 7.024717489295887 8.477850334185817 12.026781072519844 -0.264795343477673 0.708139146218632 -0.36526608460092574
Ni 1.2591309370058694 0.6787203279146791 0.12216760318078916 0.8968714879934554 0.4968019225600992 -0.5150310439736163
Ni 8.668263693201364 6.725427006937139 11.217485290737812 -0.20458010744035732 0.44541636899927156 0.2184226697504045
Ni 5.334777130581351 1.815576280609934 0.6771169532667773 0.365540421308235 0.7682417679374833 3.8604851714185253
Ni 8.961772114723376 1.8182653977927343 3.6348209575951764 0.11944779644638784 -0.011777709361218426 1.550600177782007
P 7.680045251082508 7.5177987884287845 9.357036546885055 -0.025693805221678332 -1.148647793503641 -0.43146222081202473
P 5.01144061744125 5.026464797742423 8.133715839994716 0.003097922199033374 0.08951707032522647 0.8433308357628378
P 2.2159794046168373 4.051646052165848 11.482929608090654 -0.06563486439099019 -0.20041312054686128 1.835350110004736
P 5.858503352148957 1.5592933174273003 2.9706521494529534 -0.42053246127339833 -0.5451281204693128 0.14089593901783476
P 1.8607497781312394 1.9653867235275009 2.3954077658300164 0.8525130164827383 0.025823903041639396 0.9124207485819642
P 1.4104465513158566 4.644031951701126 7.738645978769126 -0.34281366913468053 -0.7119934869677157 0.15744510162576755
P 0.41991253150000324 4.722622089709037 1.730809433168493 0.07394621247016296 0.08085553799548655 0.20903634343949806
P 3.660035331780524 1.7947149722259588 6.748007331185751 -1.0947628705597274 -0.4157738635424904 -0.39168545513471903
