# total energy = -340863.79261076794 ev
CRYSTAL
PRIMVEC
9.30134187499343 0.00000000000000 0.00000000000000

0.00000000000000 9.30134187499343 0.00000000000000

0.00000000000000 0.00000000000000 13.61345402810108

PRIMCOORD
 96 1
Ni 4.14164574447486 9.112375906812678 3.308028782669783 -0.20232113620285158 1.922894372874308 2.1946211533644915
Ni 1.1581658967714972 3.4585272861515195 12.106294650609286 0.6366946171244002 0.06885568532113302 -0.6709190855249091
Ni 3.727968560346617 2.5720535883319275 3.5910388545311265 0.7722184931970443 -0.5492652825661379 0.6197021963314617
Ni 4.9156476151898145 8.346689435819155 12.2908528081178 2.045902118757812 -1.9381479565992685 -1.7923985461438743
Ni 6.979280550084218 6.530183855733146 12.109562212043448 -1.0857678661499688 0.07891435510871571 1.1454889361596854
Ni 9.320874788418495 8.878093705265243 3.470368824613884 -1.984964145621859 -0.8058734622473284 0.5089897228755428
Ni 2.727841764992162 5.515174913226241 11.087736316006525 0.2369880914574177 -0.11195251651060721 -0.3510250013008793
Ni 0.5414729721289178 8.786735924433144 6.330760293487731 1.9998238363425105 1.037125165441601 -1.0857452404421495
Ni 0.5895181239422068 8.971339658517309 8.552189564773752 1.7910232630629024 2.497660113704395 1.7222056300685566
Ni 4.6390164036516905 5.829718394635231 6.95633879011452 0.23834820502973794 0.8582198370595285 -0.5072652839852683
Ni 2.9185192753829208 7.534421844238463 2.420254757242746 -0.5716102259202415 1.2358773533462717 -0.14235632561344516
Ni 2.9469162724181888 4.419755869386258 13.305082298167592 1.837883932170183 -1.6000538044274442 -1.1154237413431884
Ni 2.267667172354485 1.2364924975032328 13.334582434360536 0.014286077605368945 0.8705032824125718 0.4568055846728198
Ni -0.07645796112990606 0.7852155685943258 0.9824626168186938 0.24641401275700792 0.11097755419184759 -0.823458522318943
Ni 6.404764560605877 3.868679261673026 12.19063084838802 0.6182163558145547 0.7795178550719349 -0.1281314402633148
Ni 5.4942747978190205 4.693987334696051 2.116429212186111 -0.27254644817800155 -0.04017065868161469 1.8362934477546116
Ni 1.026840249493101 6.374228254917445 6.618194083590139 0.7205897132771589 -0.5357767611613999 -0.6833488266478296
Ni 5.689156514780345 2.2280713595869988 10.685731385916787 1.412897034669857 -2.4266493297134724 -0.8020679724583091
Ni 9.216188184542982 2.096159727764475 3.108209913390633 -2.671957253890495 1.023657212862153 0.18307462926841375
Ni 5.194687874298242 1.1038646623489974 13.11137627083131 -0.4315496383195083 -1.2601732497791587 -1.2938066215628878
Ni 8.005711540530626 6.098043507793894 3.2798624589153786 0.4119619459955679 0.7441883265327054 0.9954473260868405
Ni 3.717411537210348 3.7324332044923514 7.419972551830945 0.7861538723312138 -2.3112214530597552 -1.103233369924584
Ni 4.64429956589081 4.035582541987747 9.891576297554824 -1.438552273344116 0.5258828990864556 -0.752673224075265
Ni 8.905272226502404 1.7666224830993928 7.891365493018978 1.7374872388179754 -0.866070957672831 -0.8674958630448156
P 7.096886717956449 0.524791015305219 8.29179198537636 -0.5747125189946489 -0.23653763418356036 -2.766941775088196
P 8.88328385408466 2.2310012823076373 12.801275110347326 -0.7901578512842843 -0.5164847457010073 0.45166055013677053
P 8.394098375841676 2.9506554118902413 6.124448157379128 0.06241507190211186 0.79901093079954 -0.005239651132384525
P 4.962656597507614 5.649458387251186 11.365219530469128 0.2566943116370934 0.28741848019382754 -0.043863277041853485
P 9.168481601577414 6.880118943339053 11.901684660081244 0.38760074354238405 0.5535292000488145 -1.139423703802212
P 4.1749073433605846 1.3097312641772245 1.6293532783019873 -1.2172299134484135 2.986918676699598 0.8050334828445362
P 8.861788452791341 7.265268911644445 5.261355242870231 -1.3744011925875042 -2.28173192824107 -1.2925526945511288
P 1.5016737570759413 4.001967492107151 9.896804581876319 -0.11454675960034465 1.3206533094420867 -0.29225472524020635
Ni 4.93236212671041 6.385203838442377 9.171629175700156 1.3673021196488775 -0.5660005930429478 0.9799006366014928
Ni 0.37961380956468055 3.501164637743287 0.9155617845632514 2.4796245963589234 0.25775643435302065 -0.24706758718060676
Ni 0.9024720060084751 1.9839297355510659 10.117559841796375 0.8413102057883834 -1.3207564106788543 -0.7723568185471216
Ni 8.324989405002489 3.1255950516672844 10.54721394102697 -0.7508153449309198 0.21795421475441817 1.3888505352436145
Ni 6.612658854983626 6.317964437339215 5.325024788925197 0.23615428270221264 0.024347575606429035 0.250719067890265
Ni 6.118069297055908 1.6498534360044865 2.770692117315049 -1.579770628698376 1.0319227953050552 -1.607709006979857
Ni 8.835168012072396 4.270720466996448 8.418886452192474 0.8632638272413391 1.5393459450244262 0.07969262803563695
Ni 6.752485928822859 3.696539325829037 4.069347343474063 1.152966218373337 -0.4633636975063116 -0.20898157894216263
Ni 1.0078190051638767 8.607182819038842 10.793059570911858 1.0898986004888906 -0.38215874659120636 0.6225427511040504
Ni 6.1322631449025575 4.07409939908668 6.52818220694114 1.3744459297825102 0.8557994005434938 0.21683347088641367
Ni 0.7214223146911543 6.174612154893246 9.722702062876602 -0.5523251524383842 0.4614932199564762 0.5637197674285711
Ni 1.103557718063978 8.233715336248123 13.371012070321338 0.8130506967220578 -0.2115161724385583 0.5966867092728949
Ni 8.50117542460355 9.07832369385948 12.267192054413798 0.35877379200836274 0.15063887733721154 1.6000702594876768
Ni 7.58501184321482 8.928209335801116 5.895823962152214 -0.9620098723640014 -0.43353375862907273 0.3087529800055457
Ni 7.079446701762174 2.9266486482649463 8.381354607208195 -2.9727603829213445 -0.4559054414560535 1.6810021592470532
Ni 4.987286551044919 5.440866492225667 0.037397905659908436 1.0520169949517688 1.237851703463823 -0.8866472391622859
Ni 3.322430050442369 0.891174596051372 5.568978525853331 0.9705238233722835 -0.8996109984118055 0.8872067112101817
Ni 1.0685753709137515 1.454209009001598 5.09189502364788 -0.39125788067899714 1.6801215564143128 0.7113028886585943
Ni 7.457109089781488 5.621907812335214 0.9028868458603497 -0.7192956770560839 -1.4896238952089507 0.12348597107150347
Ni 8.615116863739491 4.900225990203089 12.685220406315738 -1.1403513578228037 -1.404801402145916 -1.242006606172461
Ni 3.442640594066279 6.753890431460371 5.144864305900236 0.8380443905529179 2.575172703369578 -0.7170611312986103
Ni 6.95154394832884 5.115068387032637 10.087229095765485 0.11994736179062568 -0.7711036628663107 0.06479308521598519
Ni 5.423333462611687 9.032402968552203 9.36225831911267 1.1345105827713107 0.5168148753469165 1.1364669351667331
Ni 6.562989688862325 1.7852158656979844 6.283262990716492 0.946889471782795 -1.1161500779862519 -0.2889313172939282
P 6.727335100135219 0.2833598023194256 11.395127995574564 -4.470893601152888 -0.3670686850273033 1.5319964466378906
P 4.613753958860408 2.111376723227855 8.604302193430645 0.7791830974403355 0.0026636628750921864 1.001827004360939
P 4.881539594184795 8.320301528649466 6.204032299545245 -3.1542782092256 1.1800921280558516 -2.6921306435145764
P 7.20152681512211 0.7131208669826786 4.129505632935249 1.9181020936919868 0.6899789303698376 1.0884700955724802
P 6.194572834761469 7.448793690060057 0.34908029427883935 0.9743282847200382 -0.22446759039290373 0.329625966799813
P 6.845127294846857 5.639626868788599 8.0079103777724 0.3525447803795154 -0.3616881374416804 -0.09290655562274967
P 3.004510181898168 9.08923416799062 11.98053399623171 -1.8392491879488257 -2.4458346443926717 0.9042780648701716
P 4.71316670183877 2.627638407946326 5.648004587501231 -1.015371318704277 0.07639724511381682 -1.1974007945376282
Ni 1.5904178608143915 3.742441448452374 3.781463368420293 0.4922004192323458 -0.34003559216891116 -0.07438818510358801
Ni 5.237129897708634 3.0734052218720382 0.3570236403214593 -0.7070528551329888 1.304710155849269 2.737113378872854
Ni 9.012572507471564 4.6785564083673545 5.082977827100971 -0.49061250591993577 0.7157822645861867 -0.4293176636651961
Ni 3.491398228674492 7.831441597375443 9.925310404612638 -2.2729238430311374 0.6343981077807397 1.4267902477121814
Ni 8.155212010018952 0.5400545174784499 10.056326317203425 1.997974698948914 1.1268929183250527 -1.3799411485691266
Ni 7.336517191136797 7.469721709493189 10.069695136017309 0.5834313869248855 1.0161297941368563 -0.9495634190705324
Ni 1.6647541858408765 0.9040299807884972 2.526221225773368 3.2849640404796525 -0.1306773466136201 -0.32381578787593907
Ni 1.6757390707077782 6.14493157266608 3.8083498275195873 -2.3010167446126113 0.30220643713627954 0.7755552708797611
Ni 4.700581986152979 4.715306010491934 4.766288526099438 -0.9949696151194736 0.1597899477088603 -1.162255356984747
Ni 1.281073829566789 5.772282607968745 13.149602926060771 -0.8069862356955328 1.0073787874171038 1.1030001708678552
Ni 8.756757699262929 7.3344801972453055 7.873504126033448 -3.5462017485130537 -2.0380114031558256 0.1981667477148458
Ni 1.2973139726468994 3.8652284638020515 6.79052748734711 -1.8825761328712354 -3.1807284329973284 1.3836620490641396
Ni 6.3000035459946035 8.134218881192027 3.7244228887875455 0.38455707162005387 -0.4476509147567451 -0.189073527164326
Ni 3.4763951640764286 0.2855884038555049 8.23390694389271 -1.0407247098674013 -0.12520063976976503 -1.1675199478177958
Ni 7.561479448030011 2.7045046979887273 1.1302637311290487 -1.0465323176881136 0.5842327997802583 -0.7743123996115955
Ni 2.6265966576456545 5.5272201510777546 1.7690817579163352 0.2018555094203427 -1.956636245211443 -1.4177610476303777
Ni 6.199790887606797 7.64094081248212 7.413709958282355 2.8475774837633927 -0.10694734998653195 2.978511683582825
Ni 3.236792594921993 6.981075709084482 13.186372991137686 -0.07450774140058782 0.3252018695901883 0.3179580435435815
Ni 6.970965150362786 0.41917055669589115 0.6217361122588658 0.4128772587209857 -1.1705463933489453 0.6440654556671745
Ni 2.6486129340893094 5.437824953401385 8.274189195697602 -0.9398968425150458 0.38369858027450043 1.6132044828767895
Ni 4.6520754877779655 8.735206489917788 1.141244895459162 0.19805001963132343 -2.6954561083433837 -1.132987718368881
Ni 2.898028419022392 3.204693663782553 1.5503951164504697 -0.33897809743867424 -1.4923862884454362 0.403642370386279
Ni 8.095143943574877 7.716876968327493 1.5536217519799602 0.6449548002506634 1.9738726636943875 -0.31799815275289744
Ni 3.1244137812370587 1.2221963348949108 10.545403899879553 0.7930981648595309 1.1564521200394084 -0.7720930233627735
P 2.4374352659960516 5.0134512260073185 5.718236230316231 2.1738556386823658 0.010279527549137135 -2.2019174299155884
P 4.208661913370734 2.6365956002637065 12.11994902062166 -2.0342570783197162 2.071586925118426 -0.6611262678042034
P 2.055494260670407 7.471358745679958 8.261365435523176 0.2665380372003926 0.6723612172880743 0.7187657726945428
P 0.6643753241190274 6.5618921305098326 1.7294124645472841 0.3670859114184839 0.54297919244711 -0.4508313693672558
P 1.8209516215478037 1.5720663131070272 7.429637576272264 -0.04735457802456361 0.11204764732757477 -0.7186349035436334
P 1.914141766748048 8.860439758205649 4.405844782335507 1.7991968000126304 -0.5953384227751166 -0.6216071266636585
P 4.921256324397894 6.592065683861423 3.099851727496138 -0.9535121193056353 -0.8158372583282595 0.33987001312532433
P 8.486004935850021 4.181892651180265 2.568164697254153 -0.5678985813966091 -0.8110107834738937 0.7301151362690909
