# total energy = -340862.29057993024 ev
CRYSTAL
PRIMVEC
9.34445797885107 0.00000000000000 0.00000000000000
0.00000000000000 9.34445797885107 0.00000000000000
0.00000000000000 0.00000000000000 13.67655880433781
PRIMCOORD
 96 1
Ni 7.265100971632748 3.2584311034413656 4.030400118626394 0.07597327020252077 0.5293405186177529 -0.3298136573305869
Ni 4.8302529957126135 6.574769811507959 9.508395039414516 0.7294515345431631 1.2638733243385654 0.9663632642366905
Ni 5.9699217508041125 7.444523904730859 13.531040192561084 -0.4563067906595303 -0.05088778798880268 0.6679227219007464
Ni 8.296607628364232 2.127891883563494 12.098885237925945 3.101245606979653 -0.7880893987910299 -2.9148488553165413
Ni 4.989211566356433 9.30967766997137 9.349924249464813 0.3284388884702472 -2.176277874970613 -0.5898971971548873
Ni 5.0865154048206085 7.808658734008877 4.394770428239502 0.5039681012912353 1.5083456399881698 0.1052049133741285
Ni 8.297971919194518 0.43016743990964074 7.22408160548407 0.2532138092876607 0.7522502776052334 1.1811056569220304
Ni 8.800264556183363 5.079693950669178 9.447999005692676 -0.23847727440843444 0.3719026160808369 -0.8897032523797903
Ni 6.101127281955124 5.708108733797556 11.758147996387335 -1.0584056720869321 2.2807171138233104 0.6922137332376272
Ni 2.7534192292496913 8.053315326601698 10.155924845299285 0.1741624143804484 -0.13259050447593293 -0.7013421779014567
Ni 2.9005383719347946 6.666709931228406 8.17755643339783 -0.2129544475469816 0.5535240578424919 0.7402247138992671
Ni 3.4777642155542177 5.499960937601502 1.115265703699086 0.41006472897285506 -1.097273295686407 -0.25465285572703245
Ni 2.4982781550706985 6.64118087267812 4.909610803083881 -0.8333564981589455 -0.8048056831044461 1.589646493051191
Ni 0.35025924397738767 4.837261339018879 5.318375696981964 0.4246575391853655 -0.09221441465173151 -0.4202866638111794
Ni 3.6601773751296687 6.743194317844106 3.005163593039581 -0.9263401868765337 -0.14328603651656613 0.2240004209484981
Ni 8.718752851302636 4.383597260117767 11.548882603045374 0.34642966862071306 0.3009705078466494 1.115636114464311
Ni 2.1626158885315987 3.008962115111576 5.660180075594675 0.8355774170696643 1.566468255162515 -0.13566425830525022
Ni 6.9976812799811805 2.9154147486595585 7.39354708441264 -0.6071557271250189 -0.25095072428509685 -0.6965262445700521
Ni 2.9648002078243687 2.9609689801502777 0.7439337730684223 -1.1532590670234073 0.0869397965163535 -0.17622186801263845
Ni 0.050614255357841816 7.255195846426561 10.397330501043776 -0.4360192440550878 0.007836208214967149 0.7828384348047357
Ni 2.450462564806492 0.40241066263373687 1.814933845999368 -0.43841936885614813 -0.6753706935383594 -0.0031233761203301046
Ni 5.587088661584981 2.235820370479966 9.154938121997922 0.4413265152006141 0.04942765850350842 -1.1805461848741348
Ni 0.2048118247822721 3.341634155173337 7.923308689378945 0.5268439774481443 -1.3388775457595974 -0.1276035927843028
Ni 4.217985435561868 4.345527939278139 9.132548801248843 -2.3695433287290997 0.4183765912726601 1.8211522212377989
P 0.5969276983219937 7.6623525591473 6.088216044693437 2.0593237914803564 1.112411436879426 0.0560778168301744
P 6.900162518988947 1.0755938083567584 5.711617577679559 -1.4185730020087117 1.2027188643164317 -0.21257598116164034
P 3.11107834931272 4.502486795965238 3.1804422591292547 -1.4282727457949789 0.4850766637033711 -0.1126757678298769
P 6.277055387857845 9.713937600792185 13.306812453483138 -0.06681320096980752 -0.004643926529914582 0.39363306577939305
P 0.6647479037196017 3.3166003528833605 13.098587098287828 0.4110700303089179 -0.16462516431397456 -0.12614860550533114
P 4.470566128319638 0.12422709010952103 2.830746485953691 0.22740019065866643 0.471712069471007 0.8527863247487829
P 0.575784928235655 1.283012736848961 9.623318787396412 0.9463629098553636 1.2447070358227594 -0.2451390026993262
P 0.8994937644315905 8.205134731530869 2.05575080090613 -0.8228010912406024 -0.1318672531566632 -0.1910242231327936
Ni 4.207865387827622 4.609303292410449 5.157622056005967 0.7689210533926951 -0.05082068219629313 -1.0803844903508684
Ni 5.1505436292666396 1.9511414653795045 4.542477337316557 1.1712141088399313 -0.24414887087191503 0.15282997145125934
Ni 2.1749972950393324 5.2674241066996474 12.865826000400173 -0.05308453852980535 -1.5622403331240966 -0.9297217017542568
Ni 6.27625176449206 1.2447658713122405 11.228057466508524 -0.6394791218480729 -0.22270278518299708 0.5346125656499695
Ni 1.910633241069296 5.744533430074648 10.554501476921608 0.5350907908379687 2.903374536128355 0.8387167340295942
Ni 5.764100724585738 1.7912017266728082 1.9109163781388692 -0.0871053755599403 -1.6031841225263097 -0.4077430228182139
Ni 7.491685382953149 2.310211598561528 0.28053931032089485 -1.0348867630293854 0.3381116356733209 4.3901499061449165
Ni 5.718228781531802 6.479129286521804 2.0580757019922618 -0.3818149900985425 -1.5919962242302905 -1.2405014823818443
Ni 6.294548212750281 5.748878602924532 4.636667602461203 0.490503234035581 -0.2720360842004863 -0.8017599542995869
Ni 8.35451523298946 8.999628562102231 12.836913313701622 0.30068665805764344 -0.20270577323577996 1.003279934757382
Ni 8.10853172739732 6.7026580601606724 6.002655386273237 -0.834049410460912 -0.2562042593745523 -0.17497719697225994
Ni 2.779994867067046 4.879657143792907 6.859122595033236 -1.089457142076098 -0.3341084280511988 0.9758321229590742
Ni 8.07317229930278 7.699188411565026 8.470658432706648 0.12252103605507286 0.1472391076270432 -1.0079135768746514
Ni 0.5879271166252018 5.800796410137339 7.455146684291608 -0.13586737545499183 1.8153132459585188 -0.2123641222611504
Ni 0.5605272976350302 1.372981175985913 0.7255541591363004 -0.7061046322871065 0.7084764749533927 -0.21643469278609823
Ni 4.9253141643187845 1.5066442995229883 7.099268617874145 -0.39201352789809907 -0.3479813293785491 -1.727951274303082
Ni 1.08519056645747 1.1271939040063481 6.413990940496059 1.208627516491383 -2.365203306592849 2.32718671813976
Ni 2.941644641540471 8.352552896863706 6.504448094772901 -0.7785218097072527 1.3092373542956612 0.44912415686816204
Ni 1.021965965377223 5.994441607918296 2.7808405404926684 1.9625235572301558 1.755757754992389 1.2010206506784025
Ni 6.421763660445594 3.594121403353691 12.191092609137804 0.19575325317734674 -1.8525644170004936 -0.3497764736057589
Ni 6.410447522120411 4.673611850588733 9.807856876662324 -0.029109258661130514 -2.540421673041638 -1.2181920202513665
Ni 4.1960913710730985 4.015780714489527 12.653689055194192 0.15527406211637776 1.0391961890380166 0.3521642571116451
Ni 3.1312717224925035 0.8949168490297128 4.983751599697966 1.948202512621793 -1.6739246835749815 0.2903081430367968
Ni 1.3353603891178856 8.70641816708361 4.099958393163956 0.2367716045712374 -0.07759409363539539 0.31722450781166656
P 8.42400996521438 2.312024423363415 2.4283956278495005 -0.5630533374891658 -0.688130307196873 -0.861736334853219
P 8.073050821352139 4.623310634565237 6.849931386398513 0.7589091776826479 0.6669891543428835 -0.2719268123161317
P 4.503869775711007 6.892817775203981 6.2857597502442255 -0.13924631922955374 -0.6060948899606723 0.1104849308261452
P 4.668808799309506 3.8566072213176485 7.263347016914634 1.2738237506830579 -1.8687392269881429 -2.5012144067145567
P 6.06208613751036 4.406248225683615 1.0197569355670884 -1.6475181685569946 -0.7689038270015146 0.010489072456781936
P 7.156032460871789 7.354433987643265 3.1959521900889047 0.9787883773739208 0.9487936307840436 1.4699050766237847
P 1.2980292804398503 1.602107279812052 4.395399310245517 -1.826860584476486 0.06930922791878387 -2.5264605828758557
P 1.57538213067083 4.606574710749878 8.969264681116398 1.2485811740661852 -1.5817112973645147 -1.6883066633282666
Ni 7.284985977707056 9.263422604150024 2.2920132671095947 0.676505578473751 1.1112261583220733 -0.2311974529175696
Ni 3.8214346823779426 1.5760549316282315 12.541076191611813 1.421686607937029 1.941577551106108 0.9605114334416038
Ni 3.213166550140639 2.15990599578651 2.945780498536941 0.10745848529499559 1.2647050762112413 1.3079183783739217
Ni 8.817411636139356 2.5225830896568238 5.787905730682683 -1.1022265259266244 0.4094831454377722 -1.232550602965884
Ni 7.621040711471307 5.1507024850482495 13.612415468358781 0.6236753220465968 -0.11241865751374833 -0.3655681892223768
Ni 4.326044744886724 8.471227510183118 12.089052065044369 -1.0028896412974986 -0.5151086912890871 -0.37582251996053345
Ni 0.3070925214396696 4.6579131615827 1.2488559404657764 -0.5786933580192679 -1.6480812401493166 -2.69676737095564
Ni 2.279430954760415 3.5895706524334896 10.95337806563744 0.2592070507566181 -2.2584410760339297 0.40534881155442454
Ni 1.190268993762728 0.6936166714667662 11.90560821178001 0.2756366570675511 1.4077705120765691 -0.17309669212009546
Ni 1.2523722599139728 6.7847678103368665 0.42529337075157736 -1.3454950510761148 0.6847696182547561 2.1674844450486996
Ni 2.7289274055087325 2.5246575592754783 8.025513695928634 -0.47562914513722604 1.3519883721099426 0.08983100202121949
Ni 1.5642715704159655 7.801837279857446 12.165189772277852 0.4611335226242123 -0.19644693681026168 -0.052306265602884115
Ni 8.447230942702468 0.18536133599295285 10.589198382962264 -0.3193412970443532 -0.27712943956299363 -0.494433936548555
Ni 0.9278738170388648 8.79453640358771 8.451866728188119 1.0080632150786382 -0.5191481514657832 -0.46562421140571425
Ni 5.083291566899726 3.655075301202708 2.8276693560193533 0.22161315166324413 2.6981544811111533 0.13047885744956883
Ni 6.299155030416932 8.367223695518152 6.910792774115888 -0.8437298709734694 0.12653349964857566 -0.47490100872194985
Ni 8.449380167983056 9.112631089572439 4.998139261282839 -0.09333438718878764 -0.685051154050917 -1.1141435890791842
Ni 3.358024334052254 0.8977958764599261 10.533124160945954 -1.517576928778451 1.5628591976550181 -1.6207866660994217
Ni 0.8382941073439669 3.568405455648571 3.2230174774919242 0.4334121454495438 -1.5040732378650612 0.8659472876107732
Ni 4.0901719425710885 8.106195612961898 1.102478747725363 0.048449096640323014 -0.5817683974001657 -0.01269199364537169
Ni 7.90007556409579 7.291984976555579 0.9255461126154109 1.7937584026058784 0.09485828003248178 1.369266956684732
Ni 7.902813490214104 2.7544938418899854 9.649373004471784 1.013459960614177 -1.1508856816952244 0.9781898245579734
Ni 6.1638379378595785 5.727479794696071 7.180029028352439 -0.5696379326852189 -0.6214171221400395 0.7123202741795152
Ni 6.452534959788966 8.11796028525868 11.482783646763785 1.7528475233241294 -0.07318542304473848 -2.6169528726301574
P 7.032498729526702 0.35559119156479374 8.977320538135505 -0.5561563532590165 0.4923240892944037 -0.060982453220643364
P 8.514539071815832 5.627998697578082 3.696992669740363 -0.7787956321939298 -0.9642199926414425 0.5519428293983011
P 7.154303736189578 6.557286331073264 9.92953666759146 -0.08334359452466292 1.0135082973536096 0.5245392405743676
P 3.194449601284042 0.499911669156262 8.151830206789196 -0.3339161095347346 -1.6819663229325357 0.3764421558224033
P 8.70453058661979 6.721683376122745 12.545602646941886 1.1987074291641937 0.7750698466029102 -0.013676726156144186
P 3.862980141497478 6.206943921421976 11.568987203876613 -0.06879860683095247 0.5623367710381154 0.24039686002865046
P 4.69565542640137 2.9079111490929845 10.806464501022653 -1.269889191515342 0.5962141405118506 2.3402324955801244
P 2.940812984801461 9.345579076614927 13.449321975164267 -2.7029920117091124 -0.649258826942656 -0.10632488591118464
