# total energy = -340861.46244078275 ev
CRYSTAL
PRIMVEC
9.40308275429431 0.00000000000000 0.00000000000000

0.00000000000000 9.40308275429431 0.00000000000000

0.00000000000000 0.00000000000000 13.76236208907978

PRIMCOORD
 96 1
Ni 0.6313869093251592 7.750716538942827 3.67120606168578 0.4911974318891283 0.7385951487156441 -0.8892304265084299
Ni 3.977080817457015 9.343796202676286 2.938704983821744 0.06385180434863842 0.6949128773363451 0.24936383941395115
Ni 7.61118419566696 0.0322582153003701 1.2527764611888381 -1.9849011535944074 -0.36033779406137295 -0.5140614809714954
Ni 8.825582915374152 1.9620096110633778 13.431019088313606 -0.5602588054631641 -1.4817614617417385 1.2032955627555084
Ni 4.241072362538892 1.104909225462015 12.434128714972074 -1.2650825141553181 0.041406587971244815 1.0319832162293454
Ni 2.2537966684252924 4.79864695376668 8.702064962140277 0.8592824739960879 0.25680846861745454 -0.4438551951597388
Ni 2.5444459527879224 0.52201871484602 8.182109283625191 0.5917504483135422 -0.018973455778709257 -0.7693488849587331
Ni 1.4859127309000422 8.108757716577117 6.84856410380286 2.4721478283659035 1.4437273897871523 0.24941783258033823
Ni 4.470770865237383 4.230794793214779 9.632635393630963 0.030135385932799713 0.1057132204691147 -0.8308126486911691
Ni 6.315223137151566 0.7706249361144352 5.355623508938644 1.0736489713992479 -0.8340769212647376 1.4675154933456855
Ni 1.1793346245474312 6.202179277668954 1.2615297908172165 -1.657621061318952 -0.4554560126234608 0.19780293661752385
Ni 4.838722891972876 8.808854831359882 9.287199988582133 -0.7347292380023347 0.05297629508671522 -0.11220911260610353
Ni 1.9677831038035478 3.2319993553306445 6.169667179137338 0.011760225859721682 -1.0603247434865157 0.1287863002384943
Ni 4.580363793391587 6.528804756207301 5.9417618442980515 0.3787486924683929 -1.0358663533338353 0.8866626657812536
Ni 3.8557434390870573 6.538301869672401 3.8240926629251484 -0.34241334837246834 -1.4203959141500635 -2.8922786833255096
Ni 7.103709228738237 4.662471510992832 8.68940371136725 -1.2386695713794278 0.0789763186949027 -1.2213650186627094
Ni 2.4902371813757402 4.5040671808610675 11.365674300592087 1.3240451087324552 -1.2960733061098775 -1.543841776012251
Ni 7.982474316739196 5.829403469539801 3.262464402771812 0.422705300555001 0.26925286502839435 -0.42586158679579555
Ni 2.101786434487852 2.2604822601814174 12.896282704198725 0.5820375919011525 0.14594995650197443 -1.322984785788741
Ni 6.049962175913462 7.825574479829624 3.1952897207091073 0.4129983576798823 0.08383853188321046 0.32138635249884
Ni 2.7960912503651696 3.858517348465478 2.4001424853811715 -1.948820862932082 0.7009572837582121 2.444944014257602
Ni 6.913701137857756 7.081123024240047 8.224924339804046 1.2229177078618099 1.508507619487331 -0.43487407470705103
Ni 0.6944787729061344 8.647949281246218 11.258286395316661 -0.9358771798326915 0.2942002790023514 0.6730099066156666
Ni 6.273341807078737 5.208179411930564 5.104666517010551 -0.9045428884957842 -0.5355283925960196 -0.2561739203572491
P 8.438110089080691 7.264821646669952 11.108895860202367 -0.42787450346076633 -0.4075309068074078 -0.42225278639861474
P 0.2959817725270447 6.747614489210162 5.659730485173801 -0.7862569735679814 -0.007731307205986685 -1.8516532180401335
P 8.332861385105572 7.418599660143471 1.2942666230238973 0.7775357916448996 -1.597231504487301 0.27090299903730763
P 6.736264968465235 9.104722826586997 7.094098337973207 -0.0914831929126618 -3.682632195560367 0.17739814770892673
P 0.11655214961511612 3.8311731841520995 2.591328782516284 -0.16040109893029797 0.18333893867339393 0.7809666717033195
P 0.4786244287766217 0.8314102235241339 3.4379889254638827 0.7442945130932667 -1.9243791849499505 -0.668765529517016
P 2.16962027264353 9.367491970925842 12.67192891367208 -0.019731416990656343 0.332431297459092 -1.0290249049319697
P 8.318314816263483 1.0659898664203802 11.411062040180893 -1.5532144754764023 -0.6632841946874706 0.2519452269878822
Ni 2.3190916742685177 1.9534998212753418 3.650632116872275 0.30999970792845316 -0.4840165978699729 0.7738460014981383
Ni 0.6330155232381843 1.8725110705081038 10.673812405584307 0.8224095122291384 0.7978876158283742 0.08145203392890488
Ni 6.999203368291577 8.980075563128214 10.20748908951565 2.3269545475242954 -0.16364454556826008 -0.1562924760785631
Ni 7.079185989216473 3.108170160061428 4.338158250475344 -0.23407400313441623 0.2720869920430798 -0.03149035729879738
Ni 2.628631751652324 2.459507907312425 9.633515522165947 0.4205964817421144 1.778489649372266 -0.018168443378910645
Ni 3.5673132822271634 5.43812239477766 1.1970472113139756 0.11341161755463694 -0.8041497946880021 -1.685718590886116
Ni 3.207241038742912 0.7205873721607857 5.726174547715477 -0.37112408604359953 0.43613751480050694 -0.06698880731572333
Ni 5.52713197503572 3.5596309637113346 13.471163669023065 -0.9463156015571961 0.718946007026149 0.46026474686601376
Ni 0.6681971569309304 6.23479857134265 7.670768709423694 -2.166446490702488 -0.871715300442802 2.4658671375635146
Ni 4.8239130368169025 6.44849302739005 8.266541443254727 -1.3226896231458252 -1.659243684524039 1.5649099095364596
Ni 0.23566946017407325 4.491137942232836 5.063062577875563 -0.5584307511154898 0.2539676567345497 -0.7547951555142742
Ni 7.258606209045763 3.6597831968962704 1.6883799062768183 0.2646996984400732 0.807724399413138 -0.6184325855904188
Ni 8.413803120459617 5.086259042437006 10.523500368371417 -1.325556403170659 2.4645314494712265 1.4072876589028793
Ni 1.7512771260471722 5.782284622437208 3.535688834696643 -0.6570862934068749 -1.4307823995907103 0.678109175515445
Ni 9.037189887075758 1.9883006301212203 4.947555110741608 0.5990557237257038 -0.010821516095536202 1.7979829822101874
Ni 6.559552836435894 1.4678306029857962 12.68236069355147 0.6461202813136743 -0.6475436440237623 0.15808916296766967
Ni 2.328353710667651 5.753511189562745 6.288683876712061 0.3061425389658921 -0.4414640692197429 -1.4979889793441943
Ni 7.883422244222989 5.5384438834500935 6.531754503231066 1.1442298669416036 1.8161126019313625 0.5714999255946221
Ni 5.412630637744108 1.6437340699082073 1.2124052661877862 0.8380521038624018 -1.6945547011205075 -1.9215730829597228
Ni 6.332675258529018 6.094344725968189 1.288173425474011 1.1707600520216481 -0.39618154323285965 -1.328305683781022
Ni 4.386274764645905 7.414546931526185 1.421197895255625 2.374596574882291 2.4461035817833423 -0.47573636013905163
Ni 6.556938779462332 1.3235779122252944 8.218621453511316 0.33267966602447224 2.0184903024037624 0.8253626813201914
Ni 4.852827515930946 6.625035903931894 12.980659385640694 0.5848706904745734 -0.3816872062714265 -0.4838780154095796
Ni 3.321018338671344 7.049857774466326 10.752794538516444 1.117760102785849 0.012636457817087915 0.4780367261374541
P 2.01877602095329 7.889148721549965 9.38769261335859 -1.5957472066322906 -0.022534947877722478 -2.0438956298507445
P 5.323404786585357 6.352572181392535 10.769034602541765 0.569708123801522 -0.4369065317560476 -0.7428251276365917
P 4.446463896616309 1.7941645859623438 8.686610055515288 -0.8459122233367689 -0.279291480211319 -1.1431039808672765
P 1.728117333508021 4.792422113059851 13.228891364220086 -0.2031294910367598 1.0667563580444726 2.504245480231397
P 5.5151994631671934 8.823608268020024 0.23389133724709257 0.7340090720068584 0.6067698045405099 -1.0851798548569827
P 3.9202109736580764 4.5103766493116435 7.072807878262633 0.5179780424170821 0.11213840726916816 0.23726602770915267
P 0.5574880828675107 4.094544125779822 9.713020466492797 1.2565302537099328 -1.8571769760718404 0.7072927390579367
P 1.0784771601645917 1.133974153898278 6.732409704583363 0.474027604978061 1.2287062895191292 -0.8174226005375083
Ni 8.14322941753064 1.7248262545844717 2.598085837700463 2.598366110766906 1.2438719415159738 -0.33760924211560567
Ni 5.265002240316307 8.59377812216459 11.66306465489841 0.1496394895384197 -1.0030613909886725 0.8328936995899139
Ni 2.5172334316314866 9.433830718941968 0.9566752695122819 0.3456328837510305 1.0308416464257344 0.1806235966247599
Ni 9.115414131547215 1.3138457216942259 8.479486473615822 0.2734494196082452 0.3419312665297273 0.5841952616741036
Ni 0.12236889653542422 3.7428218196787486 12.354802429215361 0.7477860711862928 0.6613527819927126 -1.7684512912996575
Ni -0.08884596662014718 3.8667638519396297 7.675750462605685 0.7626303352879769 -0.6655274821956925 0.024068868023745645
Ni 1.3553321222962293 2.2887009111801966 1.2489870188854368 -1.255335204960567 -0.3188077931383864 1.9117010752616497
Ni 4.299456102642664 8.375034210740202 7.108246216111417 0.15721370234125184 1.5790234661197065 -1.0549537089825896
Ni 1.132008909626787 6.255062214429078 10.884679354682245 -1.0383559525249084 0.19823385350735537 -1.2441712179239475
Ni 5.111600350148338 3.324469269999752 2.941952808565156 -0.3143227607838393 0.2891190078247021 -0.7894582541140984
Ni 5.561913977716322 1.4255449403595022 10.410827930653035 0.20443586855300921 1.340358244070182 1.1992651014398765
Ni 7.817732308908937 2.941970674422169 10.072342343982477 1.726161786502827 -3.026554803033981 -0.6413398292058955
Ni 8.898579045898485 9.157483523272818 6.739703675786212 -1.956199414784341 -0.6175802648924525 -0.4698158808895586
Ni 2.422685435699223 6.834893902262699 13.06348173752248 0.09438648260238583 1.106184482133108 -0.2681930563053123
Ni 9.180436447993918 6.1214162008850455 12.958268765261389 0.5922721251449671 -0.923801736725396 0.4139812904184419
Ni 5.34297260155652 2.794934671200608 6.381262867139777 -0.031822800937551646 1.0920860950585127 1.577988597097289
Ni 8.183389983480584 8.704997783615292 4.492681928402113 -0.7630887629816342 0.7106061197018858 -0.2589586821912379
Ni 2.487717155228565 0.3097601095175514 10.393073970322881 2.1883813431023666 -0.016507253626403828 2.196192354506353
Ni 3.7459436431148014 4.30554930019255 4.769484233270974 0.39406603955175357 -0.5834270160495113 0.2733841135879485
Ni 7.421035058546898 7.496908532358676 13.019606953930243 -2.3930365267550333 1.8560860570005067 0.5071660394032427
Ni 6.183457740135276 1.0910490816525513 3.1758441458122486 -0.604098942576566 -1.5977326124934355 0.2504647857876138
Ni 0.11575382789908938 8.958213395993205 13.773509447879992 1.0095025186283257 -0.3768468474599897 -0.3976195612309668
Ni 9.116062944249286 8.014585843950401 9.122601847916247 0.23430745930146102 0.13671609660853226 -0.3687460727297262
Ni 6.254845943528387 4.043306728481473 11.056998366502778 -0.8080720125605438 1.3188813051433286 1.9488368037716823
P 2.520910036943223 7.633855027908897 2.047743157330111 -2.606908343909962 -0.39406835354459874 1.916286637749803
P 7.577859670795359 4.09419621172219 13.053779636855856 -0.41703576097404954 0.13217681397728204 0.6960449340582593
P 3.8497066600330037 8.269174306393566 4.775127023162466 0.6249701295986205 2.059564960956885 2.274135089730419
P 4.7400281365969406 1.926832678911951 4.559801132277249 -2.318235422483743 0.5244955318206257 -1.0488146859643872
P 5.603917547863454 5.453966589023891 3.128005962887794 0.6537986237945386 -0.24225885293805371 -0.15559956377659653
P 3.6307464777079237 2.5949405065578137 1.1203387437638797 -0.7539271510870241 -0.5631739222274301 -1.7253290061888868
P 7.651871334244672 3.4285425886450316 6.445395651968859 -1.1789428449427566 -0.4900154957658851 -0.509981911585483
P 4.240047426531273 3.160009354648655 11.670276819282305 0.1371220737976993 -0.20794465303721607 -0.294689302823628
