# total energy = -340852.73565909103 ev
CRYSTAL
PRIMVEC
9.46464881651707 0.00000000000000 0.00000000000000

0.00000000000000 9.46464881651707 0.00000000000000

0.00000000000000 0.00000000000000 13.85247024433478

PRIMCOORD
 96 1
Ni 6.134843319336816 6.196363535904137 11.694629726937638 1.8838218323528781 0.6801560307421447 -0.4987387345714959
Ni 0.038447295959965155 4.018121960229335 7.578492811208377 -0.7045807394434124 -1.1027646578182815 -0.00017612056654808377
Ni 1.7234368115656478 1.0051267629256018 0.5111714794578746 0.6073714426802507 -2.091110082753018 0.6374350948348505
Ni 8.480495601264353 2.3743112381992066 9.434903204722115 0.6813413092994975 0.787213938164612 0.31234635378375886
Ni 3.441923611859802 2.056942637901449 9.758995491458244 -0.9089217342897702 1.452964077894072 -1.0088168054152111
Ni 7.973635269290543 8.18594626898872 6.42009363426208 -1.1436765655412948 -6.09502270136198 2.235737463788827
Ni 8.031738747676203 8.77182695298108 4.332096537502317 0.11608453640110976 1.24093677014705 -3.4106925277284295
Ni 1.4365254507930654 8.626516201449066 3.3795175041739105 3.775933415518375 -1.5122796849352538 -0.7858995902285627
Ni 3.352795015026807 3.1366413679553466 4.188764844014031 0.7699068143447321 -0.8517995353554815 0.18299518218073
Ni 7.70942013610695 4.813360673524641 2.8691514663206332 -0.42298760768211024 0.3349170399954232 -0.08253755368359977
Ni 6.848288538543692 6.868372523090747 0.23434659480772219 2.2553948330084386 3.0905248781280386 0.3134529565843763
Ni 7.269143607756387 5.49246814723825 7.741758001329345 -0.003403369254594139 -0.1437182389579783 0.5802547889691168
Ni 1.4583036074578972 3.5421353123236172 5.721486144826372 0.15632692886092434 -0.7374075561654461 -0.6300871391102115
Ni 4.2454060341751285 6.075036204184677 7.456188727742801 0.5772733377432897 -0.25029046499327867 0.20383680151642958
Ni 2.26557188925429 5.275339641350415 4.087227146266972 0.22912488665925704 1.0499588268711597 0.265065309309608
Ni 6.183851270319214 2.3303290156779233 12.493805734093252 -3.3702153935499894 -1.2675111782014687 0.9915981275440794
Ni 4.124220672186208 1.1661488313040387 1.9957252900926128 0.7838331946178372 0.5475395581242828 0.15353162550397428
Ni 9.192748274734694 9.248220580781013 2.2036371210737924 -1.8267520839230798 -0.2548053221444967 -1.97186154680163
Ni 1.1594383953738494 1.2173052575419423 6.521604830992771 -0.6544007761549118 -0.12782959275217987 0.022439302840122646
Ni 5.249671514068788 2.7420885574873575 5.644106016427995 -1.4346151430732388 -0.3325544533005176 1.700836420364161
Ni 0.09349747867414497 0.2045613453404359 9.9745954565806 0.5739010788369471 0.026811720876205435 -0.40687990348697023
Ni 5.333092927734076 8.311400187542544 7.703150752806305 -1.5527833014762549 -0.7005081120359355 -0.14455076216160267
Ni -0.12374554946299157 5.963107268626962 8.924453877960254 3.734069685405053 0.9253662529990385 -0.33991346476875006
Ni 5.001394849300484 1.6984406743419098 7.930538937887828 0.467067371610144 -0.24138930584890686 -0.2804147951824848
P 3.978086496217063 1.9553490987270445 12.981703642391276 1.789610698986092 0.5619423638131742 1.2212752871623807
P 7.784853386267189 5.3738382403990475 9.927594011123166 -2.8402493255330956 -0.12845334237910783 1.8497030362922984
P 8.888346243159587 3.0991897530389023 4.845815900390949 0.5398532452236185 -0.16079293505207792 -0.117374715967443
P 2.7174047536708077 1.135530692750918 3.6320617790422465 0.25523289660021853 -0.4874058260571799 0.5817830526881852
P 6.535188494810836 1.2822232829935205 3.1053909908688886 -0.5606210738985894 -1.446681844429786 -1.691818790246583
P 2.9865131102336773 8.917544684407307 1.3832546220349866 0.37131794722196054 -1.467692385243182 -0.03682333947593658
P 1.5950867105088096 5.252955747168612 1.2538548914370231 -0.6613581813093513 -0.963060939336335 2.520233371019221
P 1.021917049724129 2.113086934005657 8.588794844044596 -0.34137205159214756 0.3744228113995293 0.2812411477385221
Ni 6.401566584426614 1.4623923356974486 10.144731981659703 -1.432715612057681 0.02476923652487992 -1.360704926047334
Ni 7.488685599063401 7.518130121177391 8.632028412853497 -0.04038843111937561 1.3944416561781467 1.8259645550247776
Ni 1.1011266947167313 7.471166534314768 1.045745249297958 0.7681371240388191 1.6829032329245082 0.08005206825758471
Ni 2.326864954252748 1.508011942444293 11.873367724757724 -1.2519320928162891 -0.7908993574359993 -0.44204025343818715
Ni 0.30821249914279975 6.422625427790043 3.0176357145626502 0.15904278513019063 0.20093531159891845 -0.9989779649479184
Ni 8.106802876537037 3.233672946455067 12.694584059347234 1.9551558040111745 2.9053038919405836 1.9581169435220278
Ni 8.169316881218139 7.597112614601129 11.69087510079729 1.3164076467918555 -0.11225205002889699 -1.5464079940775304
Ni 4.047282542882245 8.244854242514107 4.48461272609167 1.1494715749565172 0.7708599222866208 1.0053967239900683
Ni 0.38216263885133106 9.291530813244407 12.655089973240754 -0.04856351073100024 0.49730483033844686 -0.9263826100786949
Ni 6.531582463655121 0.9458950984145845 5.123184055876635 -0.06746548984182574 -0.5627288642702115 1.439201991112973
Ni 5.632166362089582 4.185456949292449 0.9776035644982524 -0.8027583136571143 2.241122125139508 0.1801613122763607
Ni 1.2354584537536535 3.0296435143717213 0.08214747194990929 0.1552123556405069 1.6492793742224756 -1.0472833369215253
Ni 8.120195354451308 1.3648591308164872 11.64775226837821 0.5625722840876892 -2.674274846280078 -0.6786177397207473
Ni 1.1688746501304061 3.234789775001982 3.2306035608807933 -0.36683008665393596 2.021332399838248 -0.5606917792355247
Ni 4.35600991891447 0.5631541695275206 11.218520038598786 1.1302232682498663 -0.9414955544607334 0.456084390236079
Ni 6.646748309069146 3.710501948095322 10.602985663756108 0.930429526454559 -0.26789403700765474 1.1741788478952102
Ni 7.787607599039665 0.7513104392716276 14.236737829056649 -0.5255612540809788 1.2667012807056635 -0.9277074995377056
Ni 0.7540958853848219 7.996142203905479 7.650262295855814 -0.5757856974541697 0.6363850563037814 1.5081862315921704
Ni 2.658487315496719 6.111484566338638 9.418641045321195 1.2801795176977564 2.2418500044444682 -0.32090349932515055
Ni 7.018481851515011 0.28744422049454227 7.679241157253633 -0.7069358699391503 2.759250577091526 3.253706110906635
Ni 6.422417205518584 8.833867725227048 12.39704673747617 0.8184160747990292 0.3766326745666546 -1.3814462723597434
Ni 5.7849068628531874 8.107427543351411 2.053462486573479 0.42985862377033063 2.1198565587580913 0.5946565662167436
Ni 2.4223254010678255 3.941287942061102 12.02266971864765 0.4579083308186953 -0.16633597635749417 -0.657722641439293
Ni 3.278488058062185 3.627373938539817 1.5006796790943389 -0.30254762252578216 0.48960154815691803 -0.08499141454073104
P 4.357514798058194 4.75862661007713 3.1585984064806594 0.03681922571087853 -0.053809589621287984 -0.9163589072941059
P 3.1469294410951436 6.615089059158733 5.709032560063405 -0.2000374823749974 -0.2799615096951501 -0.8824136606969125
P 4.117339872579371 7.057220658655018 12.221591079826169 -0.008315204733914712 -0.39386703616707003 1.5308463921938475
P 1.3830596502717118 8.170641932036512 10.836108479486576 0.3002215454957668 -0.6092779156743442 0.045737868356747036
P 3.767838789936066 4.26586860467029 10.186067888403722 -2.1336842086698025 -1.1568125887026206 1.2208726524073232
P 9.61286510134858 1.9241157580082506 1.9057808405414483 -1.2473699273669032 -0.004229207589999167 -1.8196221577465177
P 0.493560607616826 2.4796243843137584 11.833735454780184 -0.46896278886064396 0.8492772831542599 -0.2422118017502022
P 5.618537267957745 4.301644976766363 6.910346347157325 -1.9581989617128728 1.8370501234149779 0.4739625560680805
Ni 9.159868085141637 4.272891374007668 1.1068357708141787 -1.3761102048588107 0.023316820349069522 0.2943085224454415
Ni 4.9086223627169625 9.277788143328138 -0.03177945094893776 -1.915461827855662 0.5749308056530421 1.4647014209356581
Ni 1.869996896726413 5.402658095698663 7.064690159411161 -0.1359928452892626 1.350419742071242 0.3612577347724811
Ni 7.071190480140151 3.131804932468285 7.6672456614878755 0.8452951585780604 -2.202288182991446 0.4349936310040508
Ni 3.5471515761360295 3.6406055174261427 7.473864905659898 -0.2117079767343902 -0.13438204915871696 0.2192559642849772
Ni 2.834756932935149 9.171216198936131 9.16516828841513 -0.4109671861824664 -1.770289372949661 1.8302367000375708
Ni 4.795103366177201 4.770921188741892 12.696688997218708 -1.5401890097510123 -1.2305330583152227 0.1359285677102304
Ni 4.74669168806307 7.675972067591733 10.28061026429464 -0.13882517253173512 -0.01804477331685279 -1.0691719094645005
Ni 9.051885908092933 5.221287032609496 4.720962987029746 2.422519880926131 -0.3714295330991603 1.3723743919654623
Ni 5.8693220646322555 6.268228613503472 3.535801569411794 -0.376265521035223 0.36868642313638444 0.4708846884737052
Ni 5.3788166456166495 5.171928889625099 9.487529490903542 1.0355007424643006 2.1632732351808293 -1.7044385358931227
Ni 0.5213951929864931 7.93359980527827 5.2212037437009124 0.6557590899550191 -1.2301183393753072 0.5969281358597398
Ni 2.512627614339951 8.529882138194859 6.339998098150908 1.1231907868831172 0.687820489265938 0.22913182863779244
Ni 1.2327515642246913 5.955090711175805 11.392147126119433 0.16774905465493692 0.7407029390872663 -2.721454075069042
Ni 9.519165079192199 6.281166788280014 13.144012902993273 -3.188150693603329 -0.31648325877026784 2.1813090096366174
Ni 1.608233107556811 4.22523686778975 9.612976784203273 -1.1216681795910035 -2.7916716737347085 -0.4118429039192004
Ni 0.6095583956518161 1.1313189240782322 3.8910202463363786 -1.4650125244181738 0.8554150206208816 2.586463445792049
Ni 4.799173165119347 6.631955063146881 0.676605967061494 -3.170262757579314 -0.9504818171197436 -1.1770325152939214
Ni 2.6889918782654076 8.785881956304538 12.706053320645124 0.6434694739543886 -1.6137151039646207 0.17495020038906642
Ni 2.288154541058849 6.015427846655293 13.411615433947551 3.320013575884618 0.5208615346124643 -1.816627851004884
Ni 6.811348014657191 2.50825494663932 1.4092814595024445 1.742783454219908 -0.9635579335774115 0.3553102589397945
Ni 7.06120527575884 5.218050122753185 5.528077941517156 -1.9060783297582335 0.07568196421434709 -1.1536552740205614
Ni 6.0001140450543815 3.2025910401155158 3.681363134134428 -0.029135483913375632 1.8016899987481294 -1.2693011802223562
Ni 3.461591151863939 7.073310561449548 2.6980457612143764 -0.5913249307403493 -0.8252824629015594 -1.4348722533893676
P 7.746076720532371 7.289331703439171 2.710429307576944 -0.0635602412501486 -1.0546822004887577 -0.35284868477317943
P 6.239541263285695 7.896536240958635 5.212684613403644 -2.236075563854536 -0.7030362777744279 -0.5314745342416202
P 7.346933555443589 5.080983080241193 13.486182668751495 0.45035751505463084 -3.078288483962847 -0.753584937256257
P 6.583155334435941 8.864902308323087 10.125448706392893 0.32105699418387934 -0.6876222572122028 -0.09479580222566254
P 8.521960227230727 8.358117693538896 13.994596149577413 0.4235522219363287 -2.336270682718899 -0.0721181581224887
P 3.067984806266216 0.8737593318623541 7.5226665273005775 0.8708850912320227 1.1288266450126558 -0.9651450755588733
P 8.428932195132235 0.5554168192130922 6.2769701630452515 3.4285863772897147 5.030123194020589 -1.639350802254854
P 9.20712507611404 6.378728387107084 6.6791902854272704 -0.027460924424430124 -1.704264986429736 -0.14014106312968122
