# total energy = -340861.8166799385 ev
CRYSTAL
PRIMVEC
9.31787444095904 0.00000000000000 0.00000000000000
0.00000000000000 9.31787444095904 0.00000000000000
0.00000000000000 0.00000000000000 13.63765110952564
PRIMCOORD
 96 1
Ni 7.496845034778863 0.4085832071800601 13.778528348839876 0.8849086592046244 -0.9975288912062175 -1.4386458614991868
Ni 3.5364129183306545 4.81386556203307 4.375490314635429 0.8743743353322039 -0.8472265712728183 -0.08494822000762144
Ni 4.637990680380787 8.512539947335533 8.50810743442417 1.8119211895578342 1.3258564509095812 0.6029357755064004
Ni 1.0421483583320785 3.9338668561785037 4.167352292441634 -0.1624970622273782 -0.7895469571731628 -3.559016126668903
Ni 5.259204057062963 0.8397408289709275 6.755737634800893 -1.2233488818619576 0.5380532159004024 -1.9132833321471048
Ni 2.8653768665653123 8.667952776531742 6.490785736268107 0.4227574939491751 -1.0508265741880936 -2.568812565479505
Ni 5.406118984692715 7.442894541281288 6.726730159618286 -1.424337672406631 -2.8280489268121616 -0.18051766717451492
Ni 7.102018737546958 8.73766911372498 7.504171679517575 1.0962566814964345 -0.41569184535164533 -0.018575191899026074
Ni 0.2965087441853317 8.652857819801849 7.566919178353847 -0.08786539365441642 -0.6031422350902517 -2.330804774508321
Ni 5.507432234398954 5.8450374641751415 3.313921642219129 -0.03626875252404722 -0.7832714085770962 -1.7011570369283735
Ni 1.4556663118603796 8.71459805640201 11.644671721154147 1.6436118915240532 -0.10405974402609176 -3.115288972446596
Ni 5.6917863818686465 2.210311651735176 0.9548827362591623 -0.5130245550665486 -2.6417884436165986 0.43717418359513743
Ni 5.0408396675783935 6.641864822022912 13.289372548857935 -1.106285012266714 -3.050530340012972 -0.8802053401916841
Ni 4.510522156883927 9.134433528858006 2.082660497897633 -0.042066590152746906 -0.4082413026108711 -0.7353650718141206
Ni 1.2216106216763423 2.5544021221805013 8.20738421559135 0.033325353625007124 -0.18289413782649147 0.6939865088673338
Ni 3.7136947990361566 4.948415670168645 10.73070377193261 -2.8146604213203976 0.7524711353667879 4.410123006832734
Ni 5.224755874945427 4.8166702422649825 6.156144522378202 0.49347800039318884 1.1778041033526232 0.6212034634673366
Ni 4.101905405355579 3.0722243631374466 7.751191328527722 -3.3717932795600705 -1.5496920641454408 -1.5063034127471606
Ni 9.13597097815457 0.3458515487304796 2.1373200816465316 -0.613834167586459 -1.2254263332162767 -0.7425155668159729
Ni 2.2724991463125184 2.9425568212527753 12.790766560533124 -1.2635676201726884 1.5917722811449426 -0.3711407982141479
Ni 7.672039711590848 2.3419359472700187 10.236953328022578 -0.4106108312843122 0.6965948930244583 -1.4650482627521155
Ni 1.9803744620910224 6.174508189491332 5.209146571541777 -0.23920515371339449 1.5589025270001151 0.7249551893347063
Ni 5.108021542900935 8.806043676986674 12.638638282106847 -1.098878692500314 2.181812174525281 1.0567959043976507
Ni 6.743261932599873 7.254962329994141 12.037640965993294 2.4388219605202646 -0.46851901645500604 -0.7274381036575601
P 5.1006045147793335 3.003057780541161 5.142403568109346 0.4362154192262939 -1.5350357476848466 -1.0134504475324806
P 8.214582273661621 7.624173790157854 5.618316804816888 1.1815314316055392 2.279353400706565 1.3288805824478855
P 3.0046977264574943 4.343834699512923 2.387175159874522 -0.007282392594026167 -1.4995007880030304 -0.024526010165822273
P 2.5843218172790703 3.4820524383539966 9.681273494659537 0.7691097723647334 -0.057453871242094605 -1.0291748002462726
P 2.6003578793359483 1.4630740221074559 6.647727628673806 0.5107313881569978 0.43480542625264473 0.4034832191005954
P 3.30949472003248 5.3029421600815505 7.001965264476447 -0.7177496727252026 0.8537152643209557 -0.5100680435413861
P 5.991421272956989 5.13194984468017 1.2069918083346591 -0.3291425994054912 0.6486903560336957 0.2509977754729484
P 6.242854799129451 1.2076710813875045 8.545870916297567 0.38011549090893243 -0.1976766954523047 1.8889707235436695
Ni 7.847793460874312 4.055632840466294 1.123915502648014 0.525698036769159 0.25376865334986615 -0.36806164506819194
Ni 5.372556000655019 3.520535260140695 2.8615751737592654 -0.46373162236869164 -0.164190133659085 0.3863838404161475
Ni 4.852227251450949 7.082404611672623 10.559851224649098 -0.46176370000904343 -0.49522506499128255 0.5748660138533778
Ni 8.355915794451123 6.385995987576729 1.1280395939126127 0.6661671726622205 0.29665105453568913 -0.9538782443958025
Ni 7.890152518463253 3.962332962851231 3.3963345152396207 -0.1072751656395959 0.6853100641392583 2.2253988008669805
Ni 7.396901512627743 1.9484048345970366 2.5577546934344615 0.27604032026387293 0.3730966363889381 -0.0236088976681916
Ni 2.983462290415876 9.258249445541214 3.998436931271793 -0.11201679408963934 -1.1729084658232187 0.039121134371177785
Ni 4.4346187510063375 4.9912872108564414 8.852130816172918 2.1185854053551516 1.8301654804800032 -2.97719836408804
Ni 7.332645449905933 1.2541393216418055 4.933297418752442 1.0026592704542474 -0.023454888588830575 0.558248974121987
Ni 0.6365748246234721 2.0357785440144385 5.962599223477421 -1.2501598314072147 1.1611035027684906 -0.6341571954145272
Ni 0.3299664362409001 6.603186324871197 11.090561017861052 -2.0723641696040827 0.9780679542681283 2.8897014095166362
Ni 9.119795147979822 5.2235725048808 5.560997899678662 -1.0129115443098748 0.7039582753680651 0.5273851946635949
Ni 1.095577050856274 7.7113331884611895 3.3081119474530256 -0.08657829941187668 -0.7945456959393348 1.9324737890326267
Ni 6.019440121652535 8.381735624758857 4.943880660637511 0.4509092737930428 0.6963871478890264 -2.1476357857538884
Ni 5.973251417633971 0.040866334090097184 10.590931926913434 -1.0905143796960188 0.2181511612565727 -2.6522212089141486
Ni 3.0431432767460946 2.266451845746037 4.6354646045971615 -0.067394013173942 0.35893808550036893 0.16002340387590505
Ni 4.993113514263268 2.9573629238724033 10.616188957599883 0.002456174849976415 -0.5957454284055482 0.3078628640911085
Ni 1.8786698616547484 3.9125196056425895 6.181442551712557 1.2425771339639502 1.0928306865340212 2.2323369227477103
Ni 5.15002652125794 1.0801746042670703 3.9147829173646205 0.6000790227838956 1.36259597242246 0.23564623271754254
Ni 6.21720269056316 7.353265906228927 1.2258949803827646 1.2337824184904558 1.4260163456606345 2.3211217428926028
Ni 7.955135375397983 4.895424917747106 11.810124560150637 -0.465749681239985 -0.30446437993252085 0.4387960354692766
Ni 6.540094996464966 1.731419490542111 12.085018630801198 -0.7002219482540845 -0.5246027468224513 0.9749852015777466
Ni 2.4463520491929582 1.6048454829996144 10.725726163361555 0.15162335273766792 -0.6592758448590259 0.1209071546007337
Ni 0.7837357441406733 3.896977390935516 10.900479172921074 -0.8437584102185598 -1.2801993151920985 0.7462372386419341
P -0.003706650485895541 8.172670474049863 12.921742332001054 -2.039775179924468 -0.9338069275672239 1.7759645689575672
P 3.985823324527809 1.7944921831992926 12.611185960182398 2.3903911187123867 -0.6609439765900682 -0.026481848340612457
P 4.161036637088844 7.243119311473343 3.794553450585941 -1.8969565699626232 2.435822254461992 1.3435854927582278
P 3.5100899227985916 8.02839250491058 0.466856262669608 -0.46873241801739274 0.9740104963693031 -0.7957826536702295
P 0.18027571379026344 1.7219804836486663 11.121163713162275 1.0217162870856984 0.044928742191890365 1.4073951310150214
P 1.8602670594686153 0.7007004371019364 2.2523669466146155 1.8534905283591887 -0.050704468333403 -0.6801611729484673
P 6.0446449722416435 6.922332845214103 8.802830873850583 1.066105354724035 -0.8789663255782604 -0.45815669938407544
P 6.760993847820234 9.396237849376375 1.9984064128710755 -1.8369624487971783 -1.8241601548261874 1.9305158939753075
Ni 7.2773904539749115 3.553790754319079 5.930141339358345 0.09326291052090391 -0.38810442265168 -0.24029941521883774
Ni 3.477905984190539 6.3653289418811125 1.8170535527857654 0.112332011337213 0.6336162353093927 1.1944519963219493
Ni 6.045800388682697 3.7299917615797247 13.155696457352771 -0.3470840143752603 1.7512971481178743 -1.0255127780136533
Ni 1.31342895724199 7.74988123536956 1.1612634073176131 0.37871552523761226 0.5931087621136495 -2.6225337091520444
Ni 7.195122939797003 5.606574419340958 7.430446792703842 -0.6589212897330846 1.0516884079677564 -1.2240608203273176
Ni 7.932781794413409 7.59067603124183 9.676458948892662 -0.09455900362450811 -1.149357675086472 -1.4202840711625475
Ni 8.22954678014817 4.9735925671341805 9.366652665973241 0.3339117386593604 -0.2860871629769137 2.09745170870033
Ni 3.448172646582463 4.922157899758254 13.524008742624858 0.3417600310591856 -3.3535685290219273 1.3335947000941033
Ni 1.5865731310568263 5.653918539800573 9.776777981387125 2.333493634194394 -0.9321326251885946 -1.9135548406409364
Ni 2.9161220112264163 6.660547160444783 12.488802200813623 -2.7450123220049565 2.421114515938172 -2.397638801413735
Ni 7.915963030896463 7.821498418965822 3.1071617336675255 0.26790534986156445 0.723462921059896 0.1125577541947739
Ni 8.073472381860713 9.109424353633916 11.271054769915192 1.2380489070762937 1.189760504383551 3.1628795777413656
Ni 0.5687444252340171 2.4569371546529317 1.2323168595051357 0.5183331117636557 0.7260152551681045 0.5536646971854141
Ni 0.5336085839765639 5.956851958470633 7.728920676626417 0.15662132017289154 0.3874721883843198 -0.4886798076735971
Ni 0.5745429385506908 9.349648476753254 5.189835276589493 -0.5717446946155765 -2.6666918917264977 -1.165139106290445
Ni 7.175769714409359 6.261667587794667 4.537805825279479 0.7042439249292839 -2.69010615688538 1.7539307290859796
Ni 3.336796092389629 2.5307067672643817 1.2602257572812903 -0.3115842788067537 -0.8606891245356275 0.4995090370786171
Ni 1.169933689562776 5.042815056977614 1.5033328307785476 -0.3526352832107927 0.1234036957703423 -0.40423243856179414
Ni 1.6043795892733832 0.8393848861640869 13.308547802842162 0.020275719529900565 -0.4900890293162979 1.6678021156170113
Ni 8.183898512852034 1.5834982324637004 7.487029585754623 -0.21473467937585597 0.9988149570074928 0.10849001188330347
Ni 2.623829605263477 0.05505652520364752 8.493215607358914 -2.8202474284898718 2.8524651508729972 2.1261174520661386
Ni 6.130947126088714 3.2991052899375237 8.370080827303457 2.8470154406123354 0.6946146293696359 0.2767566296046073
Ni 2.8423617164894903 7.036243861277635 8.322718071094792 -0.06100739292130783 -0.9642040518018425 -0.6120822178923587
Ni -0.17125694303787958 0.5046057677312182 9.446705321376646 0.6553713675982972 0.5486561882272293 -0.8796499819088464
P 5.621762554816094 4.998014716263221 11.537902855913739 1.7547131157779585 0.9340732938547333 -0.12629207306173088
P 8.227366397509407 2.4522782173906195 13.467671941461527 -0.69801002820443 -0.5150935217804354 -0.8341738518539182
P 1.151857012985005 4.878401160990618 12.914896489587811 -0.1016004838523218 0.8293406921313331 -0.6395243732637115
P 9.348343974319807 1.7608639740399237 3.7220287060109802 -0.7706547482543502 1.4303810503872332 1.4676103670523368
P 9.053358702619251 5.713105678780986 3.11096622183593 0.6097977927335563 0.9103163006444516 0.4028178176024546
P 8.713414686337384 3.9853574308015776 7.5878117166129595 0.7268848022572514 -1.2143443643705023 -0.8540844747349162
P 3.656175559595651 8.914242835966611 10.391071904447317 -0.36464027809146876 0.997541489611708 1.4733102456505915
P 1.0805193656244814 7.991940979770249 9.400841811178992 -0.12040527526365072 -1.6190138904697151 0.7019638706458556
