# total energy = -340860.2830237584 ev
CRYSTAL
PRIMVEC
9.36116026186065 0.00000000000000 0.00000000000000
0.00000000000000 9.36116026186065 0.00000000000000
0.00000000000000 0.00000000000000 13.70100428381609
PRIMCOORD
 96 1
Ni 7.416416582916371 6.744079337767442 5.301247466475827 1.1273498033568132 0.33013581655669594 0.0914903920015134
Ni 3.2134335322604257 7.839775051238895 0.8912985258001433 0.2269769870783188 0.2242120227386719 -0.9653649048791633
Ni 0.893278411174388 3.1613105924788933 4.932896111380721 1.7184045111549113 -0.6060576089648337 -0.7910906475111987
Ni 7.234070544122464 8.575543517644949 12.18659139166662 1.3141144798823043 0.7352041207562242 -1.1606491888398913
Ni 8.380297800147925 5.226214023314028 8.933054649272558 -0.5694438143965418 -0.28205207367559165 -0.0358558333563447
Ni 8.286985755653975 5.35221523909338 12.214116010890695 -2.483586152109832 -0.775143123043007 -0.09126079248921057
Ni 0.7844736466124709 3.301091436016581 7.652929102755156 -1.0024312136038414 -0.5626776993173018 0.36063629913839823
Ni 0.5473386096229185 6.091728169564198 3.9231321037315667 -1.4516422737588548 -0.7185639410963819 1.1689800773030898
Ni 0.22483634476883096 8.070003424260989 5.4086358875052465 -0.1236435796952903 0.05388055206853946 0.4896881943334535
Ni 6.278033979106594 2.247998362441995 6.455076920668778 0.5723319345776142 -1.0805300147897972 -0.7688076677432824
Ni 4.847470844323182 3.744407897804304 11.138066564251048 0.4199994715880638 1.3268329558902374 0.8445335978216876
Ni 5.394171958939075 3.586007706704571 4.486338815944944 0.21250990381039528 -0.6355905854269441 0.06641545131075659
Ni 7.39321962803515 3.4394212997291724 10.660887977809637 -0.29980142723921266 0.24758695001918649 -1.1340506124157568
Ni 5.947379079867496 1.3912743455838619 11.29662870342158 1.4943338990901103 0.06252845755152457 0.802967858564759
Ni 0.009567105685475278 3.262944708356785 12.005875130856904 0.5653074236306652 -1.708540730986954 0.21138941705270692
Ni 4.531110436651327 2.940265517575637 13.17099414420512 -0.7844250625655651 -0.2870999205121442 0.7631209017711503
Ni 4.523855537525844 5.031735920950282 9.236696048632423 1.1165953930537866 0.20827503979344128 0.5034237987519912
Ni 0.753951583904553 6.48772396673345 12.644191111629391 0.8531653053547565 2.1881149768148576 0.3355608442270092
Ni 6.797494117651318 5.174390640657677 3.3279738796535474 0.9100069969341488 0.30800067522055347 -0.7733610914419197
Ni 6.267858398010595 5.066016489463208 6.5253221304077575 0.7498195566765538 -0.12119768925795903 0.11460872318653165
Ni 3.15674234631988 9.230319226330128 3.127404470372444 1.2320836906317942 -1.9555728369439356 -0.12433443511472782
Ni 8.886100006016418 8.054108174306059 0.6207169996680911 0.15317989859151038 -0.6728471557855573 -2.5787676198096876
Ni 3.2318469342989093 0.7598219674420887 13.051425917689034 -1.6085276462264104 1.1103828364851716 -2.649580685967508
Ni 0.42624357788442563 8.394152317187556 2.56781491044563 1.2671774490111338 -0.3354777975948997 4.04073724363648
P 8.682410522053349 7.0141581695988 10.841960898821522 -0.5075177663157067 -0.3618629724566478 0.052371828733496904
P 8.027634813368168 0.8478402758644775 13.57916132181689 -0.11421945816791296 0.08990582112321291 -0.7262258285170138
P 3.3212366526850183 7.773001895803969 9.496467307009498 0.07840656223436175 -2.5548548177478323 -1.5190599410818808
P 6.852097764875759 7.9956196456144255 3.512594680366799 -0.1378967471801948 -0.021098729651828182 -1.1010574453191877
P 5.149199758661968 0.5431251514340413 8.683682703719352 -0.17093053770671207 0.2520897229855465 -2.1604069693766275
P 2.888666802763172 6.334051161515482 12.605581006541579 0.8486255085028739 -0.6791784973202238 0.7830844893772707
P 0.7423006839670359 0.6363641788787291 8.33030639653526 -0.9810239515726588 0.5767130943644455 -0.4871633710290707
P 4.747531098434598 8.96405974784483 13.243596494072872 3.434309910037053 -1.9048927940905644 0.5023930434946315
Ni 3.173639240412133 4.590843999644495 5.148577241511202 -0.47964160873072875 1.5157799847790283 0.6494457461424815
Ni 4.778254426085997 2.3761620062187485 9.419152549116241 0.37908730675473423 2.2012137189803447 -1.5540840225655492
Ni 3.091036363143411 8.174127608741948 11.527490826986636 1.3970623816304457 -0.10131714828394808 2.4180780431046935
Ni 5.222385308807806 7.6774431728711585 5.914476474130404 -0.14654876642823794 -0.6440520859307359 -0.936576262782245
Ni 9.006634304261212 4.302782379142101 2.5762268489671247 -1.1375043752923117 -1.0566796905347606 -0.1808619378878111
Ni 4.755965503740481 7.630028896651069 2.783537229680822 1.4664556846226036 -0.35737871143304906 1.004187534173316
Ni 6.698556015900058 8.308085810658927 0.7146487529647605 -2.915870611712836 -1.0676361895462645 0.8350128028154458
Ni 5.217601755965068 6.09325403867059 1.1419623114556927 -1.3248138685776796 1.0027700850004988 -0.9525237872504371
Ni 7.955188794875123 2.3592276674858477 4.295032274644054 -0.46321843017769904 0.1350703334749932 0.5947180155822984
Ni 2.7770911347933285 5.24613457213858 1.0019764585104591 -0.3787116685828703 0.3250082655221435 -2.142224642040646
Ni 3.9660052811571127 4.890082845380211 2.822804488211999 0.22056105624964592 -0.4465517681552955 2.073210833875094
Ni 3.8575468795211867 0.8573708730253213 10.723145309582456 -1.0062726988371185 0.7372448053353368 1.3534785835022238
Ni 7.378054548572851 9.308175995396759 5.137698637287041 -0.4470143096140108 0.30241881025740175 -0.8187184365307965
Ni 7.645587144840168 8.618005740139386 9.696597677879007 1.134271213066995 -0.7617677301773655 0.021273307556479493
Ni 3.5754764015224185 2.290273361733195 5.189269268619022 -0.5050045129755497 -1.5156288039131445 0.042925081498300266
Ni 6.275806022988059 6.8543631656349415 8.490677111849076 -0.06919481382810665 -0.3371824389908322 -1.9653769675185504
Ni 5.361632566216264 8.550024995043573 10.10910749768989 0.2491167564001516 -2.987689750537667 2.213369637616588
Ni 1.2287084382120776 7.720214313650939 8.044297678456374 -0.25474310144799356 0.9660141084273879 -1.1014114862244966
Ni 0.669313590416631 5.50795686070713 6.785832920437624 0.02432906366366778 1.6603580006341405 -1.2424118120306795
Ni 4.7020264988875375 3.58546475941518 7.292222071048269 -1.7095756000093718 0.6866238978546756 0.1639088549732403
Ni 3.7618383780257862 6.352876454601089 7.624115451776788 -0.4085302946061996 1.6889517531114329 -0.6528941097023981
Ni 5.772746637047007 0.7846402752633529 3.350059664823549 -1.1370896563523964 0.3228063727748182 0.830746571339924
Ni 5.640323665396582 1.1523307324510277 0.9272566142140842 -0.045831713622133965 0.8391833892533677 -0.27900300243662274
Ni 5.4823447265041345 7.132998097854288 12.352921421539511 -1.7244095796984107 -0.17093747968524753 0.7938998348252199
P 0.39893613757610863 3.611629202067727 9.99229332449344 0.47966526287981265 0.6058987147894661 -1.008205139973141
P 8.400077931570047 7.105663510181501 7.525838247932959 -0.45961065822178265 0.18237528920854396 -0.33479902636032016
P 5.991020808542336 5.117072256986282 12.99178503018147 0.14359919688161074 -1.752488340212498 -0.9615578724282473
P 4.958222730198777 0.6163397211763805 5.466796775591213 0.6912292578371707 -1.150329037860806 0.6023919871877883
P 5.213632624056417 5.775152455208618 4.506000060633011 -0.8542829638989673 0.9467498608811372 1.4446074783992604
P 0.28949106965911675 0.9422194926168863 4.483187849434445 -1.5951576526774076 -0.8386892232257686 -1.1979073018604016
P 1.4298516866111062 9.182399447461295 0.9820952265585878 1.7894644032162148 0.9607942547893453 0.8706943153774552
P 8.709305135198527 4.156308306088646 5.800635405401378 -2.421960923098868 0.31852265779779987 0.23658391404046353
Ni 0.9684120187499193 0.1405082056822684 12.71694324005973 -1.7849066086422032 -0.29364132117508784 -0.4371014213756731
Ni 8.45979277224289 1.2246831393424549 6.703655039840252 1.447548306195139 0.47246591691789597 1.0295645794855237
Ni 1.9579989817860861 1.5717013465445766 3.0994136653723072 -3.147072178395464 2.5816397991511604 2.4823954742358407
Ni 2.715747452252311 1.751117342207805 1.1083838299549102 0.7876623385559403 1.1515279432649135 1.5457464492341315
Ni 1.472913023355907 5.580253100637585 9.072407687790847 0.26114386276801477 0.3310644990185524 0.8627714609859528
Ni 1.50492819110965 0.9398511190959222 10.69109925000018 -0.3103825451891687 1.9781018712843872 -0.9637808482214951
Ni 5.476849725489092 3.835417096898424 1.5344439291001624 1.3546610338460991 -2.391699553111165 -0.377673200016027
Ni 2.4374869664394416 6.6350779888421245 2.8580155560450193 0.35890671804180124 1.3033713824331876 0.45558225378867984
Ni 1.9527005651344436 4.641721905124492 11.58444599764375 0.7700127437949771 -0.7089333599851533 -0.1219880463697383
Ni 3.106135914484577 8.758282725165655 6.452817136605692 1.7103258479118353 -1.271540611075836 -0.3959007787676472
Ni 2.818551713150442 0.3101277472360544 8.795235904904809 0.13152838176000575 0.08415786289584215 -1.1324547286835465
Ni 7.330368798708066 5.413689977876664 0.9765581003228162 2.467989069002524 0.05025375394922958 -0.2272832054648279
Ni 8.497639942777507 1.2171005996113051 11.02926741638523 -0.4263097300768078 -0.5456004321200411 0.5624316447447669
Ni 1.2119987673230626 8.053209502930516 10.422710107578048 -2.110661265412068 -0.8959937133741924 -0.6238159613895191
Ni 7.285210562086996 1.482180571916201 8.921888657431428 0.05245436114497418 -0.9474427731831037 0.025207866724195296
Ni 7.834457912266928 0.3153643802306286 2.2145752761999002 0.1776071783959393 0.6082307053567525 0.6497262534973778
Ni 2.657848676650878 3.596436039124942 9.410630148904835 -0.01167846477919279 -1.253511264377951 0.3453323217914762
Ni 0.6974794491117955 4.368825364084399 0.1409285217735383 -1.0884348714591705 1.2623216635807293 1.8301634235974737
Ni 7.17484248377804 3.047254217066143 13.129219966982582 -0.3846015517047441 -0.1756333424990201 0.33708627973260014
Ni 6.510452863606575 8.957244823246958 7.385293533726058 0.8018774537140577 0.7085932030369151 -0.22892382639204445
Ni 9.331775480164943 2.120864446283052 1.2962698033326372 0.5575380640978914 -0.24492714379883626 -0.8108392908930359
Ni 1.4669125196921204 0.744552979101992 6.112908730546543 -0.5705113364291079 0.8958636155542313 0.9187518330063146
Ni 2.794970950702582 2.101243454583682 7.352821541356414 0.5395889358186384 0.5985520446164079 0.7680581911717675
Ni 6.455456047655335 6.156788232689495 10.547156434654504 1.0428116743034168 -1.1712274785763699 1.063666406265239
P 1.9986076945684657 2.8480487288206304 13.193491820422246 0.5710366128049585 0.4637406212297562 -1.3266239252032248
P 7.384635444166676 2.535236200850139 2.197805693885849 -0.9174156306933942 1.1164853498384835 -0.38136453282468513
P 2.642037677137407 4.525297156190779 7.3176647682523335 0.0568486335579279 -0.8521636035631195 0.42419859727107595
P 6.712438616420176 3.3709256908244534 8.425665726756622 -0.8908319666675948 2.6270642500325465 -0.597980488383654
P 4.054477605847354 2.3744021081083084 3.048226841606966 0.5879135910659552 -0.03908308204439076 -1.1387750144746194
P 0.154935625723809 6.210577458979847 1.5506115888158023 -0.1426643437721672 -0.1964104271453714 0.13269926213965533
P 1.7218449943815022 4.22404566102025 2.812624226535919 1.300817248552766 -0.16501082978816745 0.6617060515670733
P 2.204206855204565 7.116288426965273 5.130902435009492 0.2577350941967819 0.2593050097870631 -0.21492596945105566
