# total energy = -340866.8369442029 ev
CRYSTAL
PRIMVEC
9.29057339668261 0.00000000000000 0.00000000000000
0.00000000000000 9.29057339668261 0.00000000000000
0.00000000000000 0.00000000000000 13.59769327159626
PRIMCOORD
 96 1
Ni 1.7490154415651122 8.35295927475164 13.555105188160598 -1.2266990292811133 0.9057888450877433 0.95836456230193
Ni 4.563157939832891 2.3735649353091595 1.7342090550338156 1.1098094804802048 -1.259261793708483 -2.470915241510383
Ni 4.3961877580292485 8.837955068246828 2.1904663184058557 2.053044386229548 1.1216851488718684 -3.1906292370508083
Ni 6.126101781066191 8.906538079713247 7.694200032318668 -0.5739183052281277 -0.5293130078139271 0.838932449584826
Ni 0.3481930319750205 7.25016823423905 10.845017109890637 0.1811686704949525 -2.199278963851477 -0.6036022054458056
Ni 8.434930002219565 8.698550017169394 9.41831952484198 -2.549125371463223 0.1355786405699794 -0.6852547854212908
Ni 0.4696041008514033 6.123091635344825 0.6595442958695635 0.6045470858575782 -0.502186069690148 0.09733219549427108
Ni 3.9547368811885053 1.3714651272908858 3.5610321182096176 -1.2911344740473636 -0.3388310303378487 2.6414164049891604
Ni 2.893205276319692 1.8847785879426227 6.648523719697022 -0.981274119910252 -0.0440828492518273 1.0270454126080957
Ni 7.569503816753782 2.097058895311386 6.125570360278345 1.016608790655804 -0.14767105295813923 -0.33116965713784896
Ni 3.2600993031173564 6.585994445736905 7.454404763319053 1.344287661031575 0.34614684727297157 1.194639429742407
Ni 4.984773442861551 4.840044893332442 5.2002339134414965 0.7563614715601297 0.8410145289248354 1.1423853575336973
Ni 7.957394539015292 3.57584872437145 0.013351482765970044 1.323170676547302 -1.806255763741941 2.7662321506156813
Ni 3.6570669154090325 0.22767757435647606 13.061589939028087 0.7339113700867296 1.0420267165082764 -0.5197063379620985
Ni 3.411860816569531 4.007089261249908 11.040701666327069 -1.3199544836028492 1.0168427610434811 -1.160118256037086
Ni 2.902700242144493 6.594272346470659 1.1442074868436867 0.062405301710098976 0.18356673841348387 0.045193308707186686
Ni 2.2180128679856352 2.9223498044922955 2.5247104837572403 -1.6886784448453884 -1.2996443112905876 -1.3319494511811965
Ni 2.4558887045592193 6.599047701102702 12.289159604263391 -1.8149864587467193 -2.612917011997887 0.020176732058191055
Ni 4.608291544506945 7.383924616802316 12.82561588279143 0.6368969629431935 0.12447764556081144 -0.7248757422470227
Ni 5.3464926203789656 1.1786114085127868 5.6952300799443325 -0.30884271150587456 0.5169110346051485 -0.5529674140080735
Ni 4.393177612307883 1.5601566692690723 8.925553095910526 0.5633994079746749 0.8322262412092442 0.28565187521170804
Ni 1.3335224262845387 0.6724210303442935 2.80755641091631 1.9541798132511508 0.00954599181722227 0.5943549758159248
Ni 1.3178771009920096 5.647460739649441 3.1806230945574154 0.8406692297702749 -0.42511519554807425 -1.2119784352414869
Ni 2.3441323993669196 1.9193766825918972 10.78643818766115 0.7696892990172873 -0.12565109704362232 -0.7971111426736659
P 5.194833303232145 7.174199217067429 6.450011112774219 -0.47192418548181303 0.15280374619901427 0.2663686015020639
P 7.03376291236323 7.1681046010389835 8.805608079487328 -0.1208305357265274 0.07438792799327189 -0.2237505097212211
P 1.0800384267112821 3.6534250107091086 10.389399037955725 -0.17475736765197 0.21695662672783925 -0.21603925711989244
P 6.890585888560874 1.5695494387885183 8.189482348476497 -0.3247269868362988 1.0684807969347467 0.7057788735165716
P 9.25135770455423 0.9741073109242177 4.9636067299078865 -0.6374050129278637 0.10409753924256267 -0.18620186204348577
P 9.18417756964314 0.7573749608712622 11.697796038040078 -2.128846935182159 -1.7636790667219946 -1.0875910354016367
P 1.4162271090363758 7.5062814660318935 8.44646517792218 -1.5800380234271498 0.3326729811562529 0.3857292375512841
P 6.6453983708678015 7.988815257625347 13.321510447724066 -0.7928672797956474 -0.682068160163193 -0.6789509546904501
Ni 6.852606025261671 8.931743404843075 1.529006306339547 -1.4100130282538426 -0.5014803018723751 -1.680863319676344
Ni 5.349818645589611 3.090555632533411 7.123790424922413 0.5066682738312177 0.04226662197869495 0.25418594339294287
Ni 8.594727861501928 2.8414010400779217 11.636688221781716 0.8241061832052711 0.6932159492498964 -1.4839767242255022
Ni 5.790721378610723 4.248291123034136 1.205042160249554 -0.44707498764861714 -0.2487694003630619 -0.009744223870957412
Ni 8.683257733659 7.009588840860165 7.258094951305312 0.19768260898957568 -0.08339501658788864 0.6122573100176424
Ni 8.898018624075926 2.085324901341989 8.98191528737113 1.1901412847617374 -0.30931425182565436 1.0855493223812593
Ni 7.076406643415908 1.325885575102556 10.550803237346805 -0.7370388599721178 -0.1450410715344599 -0.2891894560513213
Ni 3.927032391864086 3.8839891661632033 3.3041988669926816 1.9281720763334793 1.8895271102677718 0.2442892531045212
Ni 2.579109577097707 6.33948766664743 9.76488391933257 0.06641622264170498 -0.6739655856607167 1.1019645305144892
Ni 7.143735427498424 6.319345703919281 5.5685540432275245 -0.4616330879684501 0.9306465275613715 -0.44558580469760034
Ni 6.728391061389275 7.558522359214726 11.21696799568873 0.1022723131083658 0.9723547059334351 -0.02500320691255694
Ni 6.356442962763146 0.8929049138610989 3.3388592084824906 -1.039630448361958 0.8453283258088409 1.4166091934141216
Ni 4.998486328925548 9.010973413212843 10.456123005722004 0.49780928077869097 0.632127309468692 2.427382865445387
Ni 9.102429815932354 0.5099734995812711 0.8259811987707165 0.03671355337094968 0.5046103628609245 -1.7254295363224927
Ni 7.280929322150905 5.653759748288594 0.15114554844808079 0.28536725409175373 2.6725138977249134 -0.9240997275817893
Ni 0.32064183710863386 5.23776504205446 9.035435492485544 0.08544829957249155 0.28533511530223765 0.33073694047580454
Ni 5.006253248132529 8.24013455363972 4.5415211238745945 1.4279816969171213 0.16978176881424956 0.07761157713689215
Ni 3.7253526285326006 9.098667133780648 6.567236778417655 1.1066951032209391 -2.176979529023328 -0.4646834447589997
Ni 1.1765396106860444 9.225074672931568 10.054813908567384 2.5258257775053337 1.0175415868827187 -0.39599128159892444
Ni 6.2132752295340055 5.581711353013319 3.2616378220416093 -0.8570528133346207 1.5979241596789513 0.2669015911873984
Ni 3.3498648215119027 2.8055858803376004 12.934274710874151 1.2486205119445528 -0.6093493923422281 2.311999983096992
Ni 6.280195228395102 4.018683896621093 12.190250303711538 -0.2231660979726608 0.34019885721965276 0.7027462573378349
Ni 3.2281211501144553 4.395137923256057 6.97278795130183 -0.4237018601403154 -0.5472024864998382 0.3478743714870396
Ni 1.3250029706472173 4.087229745794656 12.993343246312019 -0.4249563013727068 0.5051541511795365 -0.5622526959647414
P 6.956948453029126 1.8258577726188583 1.4347608735411659 0.10551473130506343 1.217805326335909 -0.26933385477797483
P 3.6738085283408246 5.999378362425991 3.022658265370192 1.1199702230632904 0.4907873409349031 0.5807533258720902
P 2.146410420224637 0.19218665562132733 5.262294013454303 -0.740442486337028 0.8637284255825836 -1.4848712110153137
P 4.983008233950873 2.4677620571268273 11.45006011611438 -0.2533140823109508 -1.8845453407824644 -0.4976408735216269
P 2.751747008561944 1.0853990874558126 1.2474183227936655 0.5148443818841069 0.12178235811683541 -0.7309445741489219
P 7.046518869386176 4.229375515970247 5.97477227926847 -0.2993111178663555 -0.46252140411067444 -0.16378595624213083
P 3.745280908076826 5.143484305077865 13.239135580321328 0.9119371240773262 -0.8276373362869811 -0.28575034846278524
P 2.9462637399453655 8.150480522123743 11.08129032258479 1.2919682828025685 1.9650828333168993 -0.6648227428191841
Ni 0.42040029605225643 0.3059432212266207 7.591442576341536 0.6469543471791955 0.11981777819129687 -0.8349734649370781
Ni 3.229208147180504 6.589784999608253 5.135209191516075 0.026144262495535617 -1.153176020391298 -0.14814439305013197
Ni 1.7946135748998704 3.7547294210355564 4.736824766809249 -0.7155644921484258 -1.3061036937626862 -0.20347093353657864
Ni 8.88424070399943 2.599623162754419 3.3451006155677168 0.6311040104105002 -1.7701088815077386 0.3399957400699112
Ni 8.87170772073362 4.552780369552751 4.645135170702065 -2.015450487136174 0.307863892532373 0.8035689824838677
Ni 8.021109290117527 6.898129834010716 2.1094376550618406 0.5740671721011661 0.14691206330492762 -0.02031505740826824
Ni 7.274045007399263 8.934075338719813 5.657347767663876 1.3498890663787526 -0.1971105385361896 -1.1587414302942174
Ni 7.8090891187987586 3.8231266210376935 8.014398709084988 -0.8771768377780054 0.9412322734970178 -0.2414049895781907
Ni 4.9043914034132365 5.747427307433059 11.026436920214154 0.22492781785877394 1.2955259182468397 0.14415789759855818
Ni 8.774742008098153 7.8903073098363405 12.822052947963824 -0.7478632042811314 0.594631369405763 0.935820358452827
Ni 8.028643944994155 4.459103519835073 2.4393171091172454 0.007161036524813473 0.6097543410901306 -1.6482730444451485
Ni 8.515070486764312 0.17851929336607822 2.8993268350104566 -0.4306808625613099 -1.2086853663125119 3.363054871245808
Ni 6.035388624203807 1.3145789475010072 12.951435328657897 0.32461231563530546 -0.2523411768747203 0.6437831485400655
Ni 5.721395121287177 5.477712676454786 7.864498097447597 0.7395253738393974 0.47758755441517753 -0.35737459766799096
Ni 3.831144385721454 8.593854547619804 8.715713422125106 -2.161912864498193 -0.9886966376265681 0.4662993830958678
Ni 5.808596441474634 3.789457583709828 9.99495660346364 -0.03988423778944744 -0.8339393672456089 -2.668062546821779
Ni 7.3456753268799035 5.627736852715926 10.213430935994236 0.996254395369168 -1.5298488041672686 0.213403105048626
Ni 0.09148427443915318 7.361348523892075 4.23632021944778 -0.6738563137763621 0.5580782528720775 0.7696695015229454
Ni 1.523765493989478 7.778969080438675 6.356146593477616 -0.7743257693480342 -0.8268230679158018 -1.0763126342743399
Ni 1.3778942039550368 1.4929765343579808 12.825915039248923 0.8447541984729259 0.6469504905244536 2.158807486099992
Ni 0.9369078557749977 3.7902937352990964 7.241233489979058 -0.41596746761053527 -0.2216967125159859 -0.2668702237288307
Ni 5.352949568762758 6.710144375596801 1.326836929799679 0.1366641603246743 -0.03957570541009313 0.3942578438475855
Ni 2.9614538271504043 8.182997528373061 3.5167030771759045 -3.9616267133565586 -0.6399668601177688 0.8698803041165922
Ni 6.254859835240276 3.310277689046661 3.7864678772495335 0.929240391242464 -0.9714849017339721 0.21975604384984734
P 8.920817690743304 5.553644531333551 12.169458929915722 -0.07598355461516591 -0.06098168188969497 -0.03902986020895214
P 3.6675652631409554 3.1128901705400858 5.263939373970517 3.0810562765159712 -0.508496585289208 -0.5661723427341218
P 1.1924915248946386 5.582389564857948 5.5056512882241995 0.20560212094696848 1.9698494014676073 1.6580167540954733
P 4.056533691895299 4.870945339842509 9.060536763195374 -0.24761266105079938 -0.17087088811337026 -0.38416472127764156
P 7.0250111923955565 7.842786027846266 3.703699089542519 0.0020746231408415882 0.06992089336085378 0.3994725552793056
P 0.6938952612713432 3.9759100975434185 1.5902776366864764 -0.9217867631778964 0.6231145644471204 -0.6601273942260437
P 2.1399256001212015 1.5803357942900778 8.638682492435112 -0.8512318357774696 -0.15873116742704274 0.4308644393270257
P 1.000195240509385 7.805307855500623 2.118888026135214 -0.43006791156765933 -0.09936825208769338 -0.19105430503978066
