# total energy = -381171.96684911894 ev
CRYSTAL
PRIMVEC
9.16491822273080 0.00000000000000 0.00000000000000

0.00000000000000 9.16491822273080 0.00000000000000

0.00000000000000 0.00000000000000 13.41378422309385

PRIMCOORD
 96 1
Ni 7.300727829721498 8.735147470926089 4.689472232805515 0.37795087915744585 0.0695802221919834 1.07665664787732
Ni 5.630971424902286 8.370282921651937 1.4222229683711014 -1.5426647249850143 0.08730129362083029 -1.8555062732376364
Ni 5.026260972372639 3.1199671996848344 0.37400288898129896 0.3183678773874904 0.5672470638555391 -1.414258433793758
Ni 6.638232569395675 3.023029862323987 9.408669044060725 -0.004889723992133514 1.1632593727692289 0.43987949834144247
Ni 7.4670894206994785 4.546844113400725 0.5853678931555268 0.8541626362710192 -0.34989577279244255 0.1535262261873356
Ni 2.4459516374716546 6.172957178850328 12.557581804167869 0.934102861541088 2.507261898460217 -0.9792591463627522
Ni 4.201720797432357 2.971220581043769 3.9649533901227354 0.166349603204249 0.933978677258398 -1.0459353075340632
Ni 2.2138592548181517 6.940986469592161 8.405949116421104 -0.12451158412254042 0.7224295946993753 0.8682458538369627
Ni 5.1873710653542355 0.24287949110332027 3.5386234019959546 -0.5345732277716019 0.9523710637226565 0.8947451856790719
Ni 2.480100121825112 1.9272814348374068 13.23546129579689 0.5719964056150665 1.1145958461252545 -0.6341679940478046
Ni 4.980912958260748 2.854496185787292 7.630538400746829 -0.2784586998973785 -1.045642715994309 1.7707359735687762
Ni 2.6571113474833714 1.1997977411915726 3.999078045689473 -1.1769774936862698 0.15887874874850055 -0.0003738383996509691
Ni 0.18983477888084577 1.1599486778612365 12.910873811522238 0.6176322011763105 -2.049952891788418 -0.20603715160185804
Ni 7.5881121624835375 1.353566734879792 11.241314452439367 0.8764052497193034 -1.7432585940841139 -0.8406841421686103
Ni 7.409414591918934 4.590414133426581 7.386085293228187 -2.250631350181524 0.23782292865388718 -1.742340967365851
Ni 8.784482224354607 2.1069046621169045 9.36083550419557 -0.18513331156965537 0.6750719313510181 -0.7596092890734659
Ni 0.8577171779889979 0.25854875135536154 7.706943572381146 -0.5006300380569378 -0.8260946743902096 1.0870176793966697
Ni 6.559652562727253 1.9211042801261264 4.287796790507836 0.05056100077700324 0.7065432624864219 0.2998381940144191
Ni 4.891967429369094 5.950038879084053 6.5400240579124915 -0.7216898883198732 -1.242370417269783 -0.9451493491632368
Ni 9.050365659560766 5.680828578655053 11.081623088759411 0.7151047789031877 1.2553076941567414 0.19133609794625758
Ni 5.39421409900243 1.0518209756599244 9.495698188605008 -0.5282647690550708 -0.789079530618441 -1.163959741270363
Ni 4.560774788713998 0.8346463299849834 12.996400826011357 0.9655420538869758 -0.9675305450719144 1.9997017089423497
Ni 8.420314208846118 1.257133468007254 5.704372336426281 0.3018372267223189 1.698568964486223 1.8608063452943115
Ni 3.8989394024819632 4.297530849882986 2.0151794136051744 -0.6041742758991918 -0.2710600934404622 0.6626205929615426
P 3.3108266163946434 1.2052142077114043 8.173581786228523 0.040190970396588845 0.03850175561962401 0.36022800795638604
Ni 6.007649553438812 3.72420107648008 2.3208532566666666 1.8142986886510752 -0.39336927059504506 1.9281011138862276
P 0.9779059122378543 5.039751731623388 7.713784267153401 1.8996297459194125 -0.23853152468513758 2.102336547596457
Ni 6.537390976979924 7.033854583374659 7.566326235978813 3.968685162865236 -0.03948391702723522 -1.2951852470779694
P 0.8331652792411512 2.7629111605204915 4.608439694088519 0.5073717276561456 -0.8649823525943425 -1.9246262679637498
P 5.7398139907052 9.202402483752795 11.381354399009636 0.13542334593903774 -0.8268312954459179 -0.7617132227903463
P 7.256342131996378 5.5026809031686055 2.8778062381503045 0.7101849730040672 -0.445739042446013 -0.09546686015075817
Ni 7.23865384031571 9.059218970319069 13.155609198514332 -1.0702255475399955 -0.43814991724484537 -0.07074544614467816
Ni 3.4412617289331306 4.247371253837234 12.108125978529259 0.22558062095142442 -2.7889535034725967 1.2118455092080485
Ni 3.711452675584842 1.2902921412200312 11.041086656581381 -1.1033866076729966 -0.8817549440669912 -6.967689567084774e-05
Ni 1.6835954309527916 2.9771319531339406 8.350040367333236 0.13010219083644045 0.09834469591918546 0.09315055331275571
Ni 1.76383428777365 3.059359597154128 2.4236827197899506 1.011683842550361 0.21683244244514915 1.1055607325061798
Ni 6.711432769216143 1.158124859185354 2.0408805930663663 0.38880093449807235 0.06608840698864102 0.8288426694489919
Ni 1.0911201439121048 5.0570001072415325 4.220325580909952 0.687102894373623 -0.6099340612011044 2.4371180904552805
Ni 4.2804291129523495 5.406046008100744 10.329150329778596 1.5008999823434022 1.5494601506402927 -1.2352775149787436
Ni 2.463410806203092 5.954896285607759 6.173734363894121 0.8430130474121031 0.8028902112492882 -1.8817616073897399
Ni 4.165116115063139 1.6322902201608824 1.8535304234469865 -0.5248508582775154 -0.028111927744867714 0.5741599889252885
Ni 6.154187426849287 0.49044133879713475 6.992565711431352 -0.3103614621432461 0.10444463816933626 -1.4841618436531148
Ni 7.1772122302498005 6.560999805668734 12.56465070539756 0.0576256209332685 -1.1314810519163676 -1.4373749652065633
Ni 1.5646989501376007 1.1546055306851588 9.935254069853224 1.1757605905600332 -0.578777433092642 0.7952110974374756
Ni 3.255479676778291 4.836070594674586 7.9182508375721685 1.0750335104516 0.10418829918415605 2.979517756249836
Ni 4.390261489895943 5.444960249798215 4.238473951472678 -0.024973125005569894 0.24140781779166812 -0.41068590749662176
Ni 2.968260312539698 6.412088218504221 1.9559575466714196 0.6301676146391598 -0.7167806239437139 -0.4571359714290449
Ni 3.723266254847216 3.149890656854464 9.916085643920521 0.5345747704334987 -0.15500383917412658 -1.6330567417160262
Ni 7.526239801273072 0.14513747394477192 8.735378426858913 1.402518262538694 0.06965195597018327 0.024805489079454054
Ni 5.032997187080044 7.899435260981281 5.311362324068536 0.30173155438239 0.1960252758918108 0.12089995551188211
Ni 0.731528171945668 8.586565820808469 5.0298737830361215 1.5873378995226728 -0.43751382632274327 -0.4380987522919358
Ni 0.44732039975177335 5.543363974034144 13.26903605628547 -1.6820452557995869 0.0596418800323489 0.38413335381907393
Ni 3.2383229503398394 3.3948139246649287 6.31093043641853 -0.46465567684485787 0.6086698497767 -2.554413616445356
Ni 0.6498989970688731 5.217248697934018 2.166071539542844 -0.7561974351784396 -0.17006561860325548 -2.5135757564933874
Ni 7.9742484863643375 3.6619162939609993 11.767268931875579 0.5939816516369061 0.16426289587854936 -0.3405824658113166
Ni 5.735763096962788 5.990511156836298 1.0038389641236682 -1.1728809550193928 -0.26426518200581584 0.9582486055493562
P 0.9099278826762699 2.8142347011483393 11.642520650937017 0.3883859584478408 -0.34058143737005214 -1.3382098302686114
Ni 5.815635357064876 2.5576903173528547 11.660146621175496 -1.6746739030361804 0.8370082359789196 -0.11353837294048834
P 3.6396455432957007 8.061104413959 0.32396152037735043 0.19271009547564877 -0.9245656114746141 0.947201089485943
Ni -0.12645020620545377 7.766993031407525 12.620144283701418 1.8108444115538878 0.5811803861071797 -1.1737996101789203
P 2.2934657322991314 4.589726764578887 0.7089054884303503 -0.3244644772035315 -0.36138654704086154 -0.5623786800196444
P 1.370439348861197 7.315006771917602 10.664078590997962 1.3692353321158484 -0.19847785119736142 -0.28960160388807543
P 8.508407400366632 8.296138735280636 6.553760436964817 -1.5828670082355125 0.11274467339459937 -0.003632968766896969
Ni 3.872672747582068 7.903541144231508 10.252209010443078 -0.750601686258217 0.467053230542757 0.28693151325508004
Ni 2.32969465303161 8.781512790932567 12.22204957485433 -0.650778348910976 0.06310978397629131 -0.8167826529606642
Ni 6.318651879807631 7.431382900291247 3.294237198378488 0.016867979399932242 -2.841061537021746 -0.412763873071573
Ni 7.35162978412276 6.297829186181475 5.416405114881397 -2.0985194878432116 0.3750007953901864 -1.3881591656035448
Ni 7.439347214006533 2.154883007685973 0.2657633747807619 -0.40754736186764 1.6555909182628004 -0.6704801982152775
Ni 8.545085402079605 8.035360159383353 10.425809970124975 -0.4149349125809628 0.711036265260769 -0.16728599897558932
Ni 5.594852483185439 3.8178390433719946 5.7252710988715805 0.19136617985324464 0.0667509802733044 -1.114024289892501
Ni 2.130650964575253 4.822579835423838 10.256112349006186 -2.761201530170309 0.4363437172740421 -0.19472249791998725
Ni 6.845167252223564 5.3044620573294825 10.327567548445307 -1.7711632909141821 0.6383825463497845 0.47699054426112686
Ni 8.61807480878678 4.655219268387208 9.156141643811166 2.46592987248065 -1.4168470204565404 0.5181523632114173
Ni 1.5837619795136584 0.8750397894426934 1.7420886869079906 -0.786612042914555 -0.7349056156791989 -0.38008618033289376
Ni 0.5264310551706161 3.261959273782557 0.33633599261944336 -0.41213241013516116 0.7158046331836898 0.5253694497851469
Ni 6.2606379490622235 7.536916930707259 9.680499594537137 -0.6879403026732539 0.5518016758347464 2.370647617536872
Ni 0.14962278479892702 3.5085322268274886 6.413506031314066 -0.11606113936234207 -0.32741147564699746 0.7357525370605265
Ni 1.970823960109354 1.5658170701298504 6.3327411082017715 -0.05172519628843349 -0.37614262230411344 -1.0389683892979267
Ni 9.342167482783987 6.130303650621399 6.248368873376778 -0.07461135685798764 0.7761851911542761 -2.2231123188256485
Ni 9.047662008759835 7.041736412828221 3.3210115897338803 -0.3794223214966498 0.7196702867866831 0.9280666826493371
Ni 4.457871089755164 1.4497067243773138 5.544185150684189 0.2960381035420385 -1.3263382756420063 1.2594816230287729
Ni 4.965451741646609 6.849483928587085 12.227026125311637 -1.198106305245085 1.114938574176654 0.09814929207892774
Ni 8.896715809806148 1.0069220425285268 3.41662459644817 0.40976853788867496 -0.5954039859057294 0.21231244308760855
Ni 8.539522296872265 3.068011279717108 2.5666875173232757 -0.9613300726881573 1.065057115965179 -0.27200265985938965
Ni 7.6417086027677605 4.028228900274294 4.64300701519317 0.6689347081050286 0.6175776937892913 -0.5278161115534264
Ni 8.039768484926567 7.040242531199231 1.2005620953502087 -0.526941422257957 -0.2202970039549819 1.0300913985232711
Ni 8.931295045304159 7.180090014492148 8.23784710752076 -0.19423141721618162 -0.5823726066430681 2.1792534126591696
Ni 3.367429149772784 8.648887262999427 2.5526963535514056 -1.1222464206919769 -1.1651915567949351 -0.37977456262974596
P 2.7302290630421155 6.877831019866002 4.012612796546474 -0.5882938572235094 0.47346324783415883 1.4094301591671792
Ni 2.9750973413447652 8.377935628156267 6.270246449061195 -0.992193080815601 0.5904751811455443 -0.1904873767927171
P 5.47234502469036 5.268059003155587 8.486364856158769 0.40335132150842146 -0.46475466431656737 0.5872307060663178
Ni 1.3776796340569113 7.652385732201947 0.8216898854518426 -0.010973982513000455 0.9684103765737063 1.4398810194578686
P 8.593760281414337 -0.06748770645022903 1.5726321031317911 0.9628894467554772 0.12537727455694536 -0.551266886377199
P 7.188329275746511 2.3741719999364217 7.433476167555426 1.033537962310975 -0.2897514992023784 -0.4704545429148221
P 5.562885249308664 4.730023328852296 12.053599299071154 0.9244977343511562 -0.15494676068394606 1.182578127702499
Ni 4.664384186356466 7.91068978024753 7.8620735563878 -3.0043196457848644 1.7814592735235513 1.0037730723437166
