# total energy = -340894.51907058735 ev
CRYSTAL
PRIMVEC
9.04601366449478 0.00000000000000 0.00000000000000
0.00000000000000 9.04601366449478 0.00000000000000
0.00000000000000 0.00000000000000 13.23975538306875
PRIMCOORD
 96 1
Ni 6.434185116138576 1.8808561600575993 11.558133886089172 0.25956212010319163 0.7083864863427478 -0.6715245803193918
Ni 4.641970841760655 0.19166783732723688 5.961371704162745 -0.3163940414905712 0.7904455577280322 -0.10042857503140769
Ni 2.5982954858311778 1.5373880758274012 4.784384040518927 1.4760047617636192 0.2994116479999617 -0.7374350669692719
Ni 3.672618133763616 4.383164397297383 5.134482852599233 -1.4517880553080995 1.0522324533966847 -0.03924223333007435
Ni 5.03653080988909 4.400930767689759 3.0382058331287043 0.8218680379033717 0.24539174214008064 -0.5743422801394238
Ni 7.0853081173976395 5.996068593305819 2.5260259798730678 0.18823766152659194 -0.19820917091700702 0.5279451809321231
Ni 5.167707050754588 4.366890619122289 11.617752542254136 -0.2295339491722176 -0.8367624385167008 -0.6650729111567771
Ni 5.60148148713707 7.836199600865213 12.551618644134958 -0.39045749626488885 0.13525442446134125 -0.5688457758012269
Ni 1.9351141486591616 6.553936242031788 0.2129522023456791 -0.5514054688375923 -0.42117189462961013 0.6677088061177274
Ni 2.8726248893541824 1.646365399715868 0.396389976646957 -1.5138496005255349 -0.8149880229540868 0.06678131929060757
Ni 0.5850699157355984 0.15574430876196094 4.777261209537788 0.1727192541760187 -0.2684725352189441 0.12611209584044086
Ni 8.679360421401132 2.373628696083194 1.4452254817176249 -0.07636793453777815 1.0281867253013905 -0.27999339137435003
Ni 6.898390341726735 0.6522347563106036 4.825202366955545 -0.6554533857891421 0.3891925135095362 -0.4148729489947758
Ni 0.7561065102146219 7.069694698203526 2.478720757200008 0.04408387769309182 1.0420673399382248 0.12080148226080485
Ni 7.606132341094699 3.7063326258473146 3.5494720390270955 0.09923892559868071 0.20969403162815498 0.4527311574931299
Ni 7.658165010390496 4.067928921007411 12.472273346465586 0.4746595821351052 -1.0439244477516214 1.0694663007764678
Ni 8.081328473010117 9.097394794401366 6.855969061708891 -0.3411064566355867 0.21069521919915973 0.4778053268529384
Ni 6.861129812375312 0.7733192645845874 0.4999225050470476 -0.19880566685042536 -0.8761743646554201 -0.6135441471498659
Ni 1.87503052740348 6.69734269306556 9.136993718226531 -0.4166686074426179 -0.9958039380953109 0.5302681726383449
Ni 0.06274134000378748 5.0229798817588565 1.3939345855237504 0.2115038311433841 -1.1889963725240167 -0.5991433983435036
Ni 6.386087462688341 2.054838136512059 6.92570297010031 0.1347754279423937 -0.5260623620871134 0.994346636823494
Ni 3.243828050785513 4.328607890252364 0.18571375128229714 0.9014722199902604 0.21880267879764254 -0.2696051061614905
Ni 5.88658469266482 5.601816189634278 5.071779505851885 0.554062189734149 0.6920088163156727 -1.524633578514916
Ni 5.203972518627823 2.6696866238844508 9.456826378545731 1.1505002733313476 -0.5823859763795066 -0.5221352591185653
P 0.15799586150669734 5.704108509592008 12.368512858526858 0.14042902668374524 0.07309620576504186 1.297955353623939
P 4.271030014719028 6.079780401661747 12.369969266690386 -2.8355321225630843 1.1637514819142991 0.25756745827066607
P 2.155601680198756 8.391498181774768 1.3648335602934691 1.8260244617284358 0.23073696834138324 0.19553830895306326
P 6.423167071771003 7.766409607190479 5.697079757150626 -0.22931771939635345 -0.8614036341041488 1.5998424597475867
P 4.848807939022197 0.8037482445875778 12.691311706652401 -0.8186757562183192 1.065289800801275 -0.5693119168043679
P 4.077924765856482 5.950693789900444 8.293501813598779 0.04750730155234399 0.7296988746672788 -1.3303057449301863
P 4.669886839230548 0.89296364751923 3.829241715031758 -0.11963548697716171 0.6733197245466017 -0.3859326118113418
P -0.018725247816811338 5.437793873975137 3.636391563748165 0.009902346715376495 0.42696896092736136 0.5714269062648417
Ni 1.404086021803956 1.0202274875727615 2.6089996335324495 0.30224500368369883 0.7597702401313625 -0.056827036291373104
Ni 1.6393547393013614 6.420326623551447 4.829769699140428 1.067634903994684 -0.054567036612602794 -0.7406476603692986
Ni 6.220210714274394 5.724154475370779 9.28412712679679 -1.119619010371459 -0.7394857788507135 -0.6865297954789725
Ni 8.686741968366599 2.2484771001674524 10.180113952007025 0.4571004902054192 1.3451104140431867 0.8592282237193848
Ni 2.247310164433941 5.450584936976572 7.07078383822147 0.8775974702551917 0.04923791109020552 -0.5051865470793686
Ni 0.5729346887084233 0.05139040234169334 9.102265168036425 -0.2638759169871972 0.11521370376038222 -0.33488747230906846
Ni 1.4598546946496767 0.9482212206056996 11.501825166241199 -0.7943862875433352 1.1949541327693485 -0.20752582033224262
Ni 4.098992931153754 7.038983482581267 1.4424709706257315 -0.19754582630139525 -0.4454865601155747 0.09223781169049922
Ni 5.669950762849845 7.904388450161408 7.878501473505674 -0.009964053191247355 -0.5516846906409079 0.3895411550982065
Ni 5.1958130145066805 2.779713285331734 4.999384260306986 0.48747010363621207 -1.5228852283652416 -1.093388101699388
Ni 0.606324428909695 7.429074720071295 6.782064941122522 0.2525653770703844 -0.4700130845020293 0.8365639493526495
Ni 5.273409717778472 4.412138778339531 7.121320296894608 -0.42506068816105497 0.2189644011864874 0.814156785302043
Ni 7.951201569703437 7.351658937068264 8.833617565553872 1.1018017796843798 0.5074529745160422 1.044143762851279
Ni 4.7596504305765475 0.3366012554293566 10.415225268870607 -0.6131163155838278 -0.28729686701429874 -0.1098591243166882
Ni 8.23173653844496 7.398553470731236 4.592897123460451 -0.5055773547598842 -1.3954970940258544 -0.30249414358002746
Ni 7.244101837289575 6.10051386446181 7.074107343558618 0.1552324102451649 -0.07704696288267376 -1.6581537938939699
Ni 2.6232715289336976 5.259198430667259 2.3900273092437327 -0.821068681930528 -0.4519703680677055 0.35098463498124716
Ni 2.231977171656407 5.334316526257018 11.383527734707485 0.5686552570569755 -0.2199704738534986 -0.42673164810557473
Ni 1.1582967906780715 3.5342412662014118 3.812175506079489 -0.0055610390275452615 -0.28151676999741193 0.03454791317819856
Ni 3.656841886327617 2.5982954858311778 2.6233782718922667 -0.5534721215586338 -0.5225929154812742 0.5292129919009532
Ni 1.2920511453734205 3.57011775549681 8.107655085918942 -0.9495384793698679 -1.0759413669778501 1.1206759908810635
Ni 3.779741024897278 2.5278360871620262 7.152975916319802 0.03313971997676228 -0.004883810454862557 0.13498831528414817
Ni 4.137827466843402 6.908141944212978 6.003289121232089 -0.8918732634479156 -0.3911910319968037 0.3066811850781815
Ni 0.8187257290369954 7.502745453510961 11.249025274700807 -0.37969562976269444 -0.14935538263909762 0.11807482735826116
P 0.21408838163350108 5.580377137786045 8.135644356097684 -0.2770096261556778 0.5811438764422894 -0.40906482695343105
P 8.661367900672804 1.8823849363286336 8.064414237083609 0.03244166546847316 -0.9141079064763998 -0.9161408777460286
P 1.9052532583000823 3.2579126937085925 10.53812983504833 -0.6434023681618791 0.0639101683903996 -0.13944403706265662
P 3.94446892960459 6.131342678258764 3.8210460268568633 0.1675791047359759 1.0534205601675148 0.10346530497520245
P 6.868954613999245 3.9079049432878983 10.441770795304633 0.7517717953069182 -0.2680166786284481 -1.2656329873421492
P 6.43899759528763 7.936854592390652 10.356930949072975 -1.0071502163460655 -0.9558153135175153 -1.7380695936840067
P 2.388156593664739 8.453906628484035 5.944253028332535 0.123800931208761 -0.44669574993232747 -1.0319510774398293
P 6.5621228841932435 3.8172457966115294 1.5199500757228277 1.5718878835161896 0.40829118201220005 0.04537817102448314
Ni 5.043297227940768 2.7041519350835093 0.5350499844297731 0.463624407366866 0.5409691039956167 -0.26571219886498754
Ni 1.5773805012371225 1.2058878673757742 6.839088296032103 -0.7185767966121883 0.2715470603792097 2.040443923856718
Ni 7.0497934686397645 0.6875241593338707 9.079823817899253 -0.836286784431863 0.08786950741947448 0.4450615567630142
Ni 2.5967033874660768 1.6041386089869427 9.29898158546345 0.5841510386997295 0.12870916714365574 -0.40958778933643647
Ni 6.3886927145585055 1.7499603456086814 2.5623032075637724 -0.4749678574041432 0.6820913000916446 0.9338791755660562
Ni 4.260002924338018 6.870610034458413 10.238130559192106 -0.2946535644896861 0.6156203129526043 0.7541636925778624
Ni 8.160101158028858 7.2468970554419405 0.4249400996588596 -0.14900622682979497 -0.60761389770836 -0.4286512337257908
Ni 7.540431145493974 3.9110710479912236 8.130533358505172 1.1082506206335172 -0.4318815677376304 0.8789334154577959
Ni 2.9582634985724208 8.3629941934314 12.243714961736545 1.868953399881478 -0.2731321454781425 0.5817642836351077
Ni -0.03187091454501918 5.071611250001937 10.344856330335837 -0.22173116529834716 -1.2493676745232225 -1.5070832283359787
Ni 8.62369125470323 2.3383311516478322 5.832191918463031 0.38916011760970404 0.40181483025923703 -0.5895040754815267
Ni 3.7361754241795184 2.4425412264544346 11.56002721670176 -0.26118165798448567 0.02680632155956674 -0.6930477991031484
Ni 1.1383412850336823 3.276366561122262 12.639861600622018 -1.0165442559664557 -0.12281439892577559 -0.40163305326573406
Ni 3.1128870062694047 8.375142989478732 8.075310160269767 1.1272641856215426 0.27621824060263395 -0.9900680640527982
Ni 5.7025887793344125 7.835729208166433 3.5861997581870164 -1.1276156554236902 0.07788411407198845 -0.058948453509750094
Ni 2.9239067395346194 8.255409955612397 3.5482408765981743 0.6418921021649396 -0.20101244469375704 0.3043602502544887
Ni 3.5716193937275302 4.215207065792679 9.48150480780614 -0.5948051759794659 0.6387540707565902 -0.37714329565448595
Ni 7.088908430745993 6.164152568998655 11.402262028537734 0.5294791010781462 0.4108980235074279 1.025906671017962
Ni 0.4431470109056693 9.242221469544916 0.4699765821616504 0.13400769653843375 -0.16021340839952408 -0.8224835600001835
Ni 4.4672923222714624 0.3751535554997366 1.591020984900393 0.17511115144696293 -0.5558308515987976 0.8372044111501258
Ni 5.885462986998499 5.59631621346393 0.373217708623989 1.0224611356715232 -0.2848646034237223 1.0878270626718425
Ni 7.8618540949755875 8.747938249275164 11.5920410582591 0.8950303210196585 -0.04229773232694651 0.37204479808565605
Ni 0.03632607616327019 4.830996338562631 5.952832267477205 0.15179381687726115 -0.3973118001825609 -0.4942958683087939
Ni 8.107806154343358 8.840216632356947 2.401002837348147 -0.5951872419092329 -0.36842468483456553 0.8389437624387358
P 8.419260397016215 1.6053688668145207 3.6038747638436677 0.8287681074573146 0.3731046068087381 -0.488227807737843
P 1.8675675663170699 3.31153746136949 1.5152769051807193 -0.9942679610667586 -0.44413673095589956 0.9961554078974585
P 4.854923044106333 0.8580514632563306 8.187212964904107 0.02574239907142663 1.1098004816191402 -0.13427534837752358
P 8.485522445450101 1.5714282243948705 12.374749180191065 0.21583074065351213 1.8525420484029904 0.5993344313083871
P 6.237171989470782 7.74161448435672 1.4131058018030587 0.8662619906377145 -0.010804289704355588 0.6349015297797195
P 2.0314994218418305 3.3226278738445676 6.0463182933529716 -1.030910551990457 -0.0645359748998566 -0.6123521837242938
P 6.9741326122437215 3.8957109171733757 5.766773863082917 0.2959146905902968 0.053302825188198524 0.7771565539286099
P 2.4538849273057783 8.590700443694576 10.11276366815654 0.13147027482856066 -0.1754147987303108 0.9176609139349808
