# total energy = -340871.3972947187 ev
CRYSTAL
PRIMVEC
9.20676498126658 0.00000000000000 0.00000000000000
0.00000000000000 9.20676498126658 0.00000000000000
0.00000000000000 0.00000000000000 13.47503118414907
PRIMCOORD
 96 1
Ni 7.088417093992257 8.502916813531957 1.6158176001112479 -0.2846272906019356 2.2788345520886173 0.3251795009926851
Ni 4.305663234371242 0.5926201142781976 12.57508728647694 -0.634858592356926 1.1861439906768863 2.6276630599588104
Ni 7.31923989363414 3.862652126989484 10.416791454398117 0.42456446525092684 -0.5211322717753476 0.029481554398884707
Ni 4.714913135327778 6.41265897313091 13.329945326891684 -0.017457533354815095 0.5808173463408062 -0.10660307927323576
Ni 3.869851817042531 6.240796295099917 7.014844916008999 -1.6191542727023212 0.3461892704751328 1.3007745682402887
Ni 0.237400112396226 -0.025694239130491965 8.103735430531959 0.12466944985664334 -0.8967380477393847 1.0954501264347394
Ni 2.5694607401082914 4.379013529323453 4.29799584066769 1.184073995521735 -0.19508502346572854 -1.5783377529065914
Ni 6.75318037505164 1.6635611201983167 13.019480329251234 -0.8296276272441325 -2.050832466179894 0.5177263314175923
Ni 0.7582719087928398 3.685495559213604 5.6285740579419965 -0.8432593590949541 0.21673911140039445 0.9156711371984616
Ni 6.842845057182879 1.9109376829033435 4.693164915579301 0.1628079085995777 1.1994008556867923 0.6355527902104732
Ni 9.210447479627405 5.094029295179935 0.6400128566273878 -1.2705540787928506 1.6901488587433278 1.0417302683137803
Ni 4.118765909464769 9.059438123808885 5.493608410418156 0.8050918468862973 -0.08235603380041301 0.7994138226649135
Ni 7.261126794382431 1.3990047344255325 10.787664797748363 0.5819267773549011 -0.5078018732150287 -0.8879448749277868
Ni 5.076591682698513 8.797652974232989 7.952531811976713 0.42658072435000727 0.4445203395475635 -0.44589819373169653
Ni 3.247014180100514 4.3928236764840305 13.173028910794347 1.2901106607685393 -2.233698064761295 0.1389573272342252
Ni 8.859375125275994 2.471417902032969 12.208553091364545 0.5022855713824897 0.0914417981517651 -0.9432091947177305
Ni 1.668523566411351 6.691338536066577 7.549292087064461 -1.112025514294917 0.31316036504462197 1.4330449703726416
Ni 4.094147020459848 5.252551371053809 2.075531620145486 1.5097661744847803 0.3952456616821516 0.26551242414935566
Ni 0.8128026558710938 4.710935812945531 11.789802729838012 0.6091807279748477 -1.1868638995620464 1.5700266619377348
Ni 7.721041521888736 6.537373808755692 2.620893410840189 0.7933426767701691 -1.118103859278513 1.1128966040459607
Ni 8.564777066046569 1.683364871226584 6.642529793295189 -0.5892258821194755 0.16951180298231452 -2.658349690409389
Ni 0.48468829015942505 5.104782796435637 9.688520709296915 0.4887965357571194 0.5258402187739782 -1.2611476978772862
Ni 5.860925180536316 2.2764002105960763 2.1347550552289034 -0.5324584954214442 0.2912913328856725 0.04404222582187899
Ni 7.245659429562586 8.162238896610072 10.274023994405027 1.7619425436468625 1.0607068094162828 -0.2962767019154059
P 5.697118421682327 2.2372162197191328 9.49780810106821 -0.37294494130242223 0.16718932549672497 0.17195640786806515
P 6.167630135443181 9.13396688465213 6.038673743287146 2.310627785339814 0.2600629709990102 -0.23725934284093333
P -0.26779440494370094 6.649042658696117 4.739101147741289 0.3732840698093959 0.2153113778149324 -0.8837164386687362
P 2.2153225330872317 4.479652675064964 1.9444742442680885 -2.3694232582114676 -1.0315183607777847 -0.39499292224139715
P 7.535626486110831 4.412829976337319 12.605001906579703 0.10963646678292086 -1.0691415704471976 0.64116088042587
P 4.486548541880479 2.2322998073299676 4.080145372591977 0.32921536162495557 0.5400489061741924 0.36954182915814415
P 8.49997985556914 0.7460600559969804 0.8873176065671796 1.5685367076557697 -0.5671213369109522 -2.2744937586214187
P 4.29042603867074 5.882174393634057 4.984090396340491 -3.211755734616778 -1.6384036078502364 0.3110314916270773
Ni 5.853937246073063 6.93759187346921 4.527314254945547 3.061722866294682 2.287707429098215 -2.102011303046554
Ni 7.134984910217722 1.1513795890716154 8.252904354072214 -0.4732030521942367 -0.16024888962314981 0.884434033561051
Ni 5.612379358705027 0.29939478367653294 3.680852587738218 -1.5079034102444289 -0.9672271548988824 -1.050455821112236
Ni 0.3989493725276996 9.015908539958746 10.874767237243075 1.668540793555249 -0.1786695582221826 -2.0978309464166194
Ni 5.6465456627802935 4.450310715731125 4.142965890672486 -0.5563257889573452 -1.8227007966718416 -1.1191145599312144
Ni 1.9676881809685407 8.68289985809337 5.9723362410630765 -0.7992017066541075 1.2642775017555195 1.2319597634594202
Ni 3.6860847921591215 7.525701593684763 3.5844927462635314 0.8109879006557581 -0.11357462549506245 0.41568233226994866
Ni 1.9307690542259321 0.9875728302176262 9.509437165653894 1.6755894728719143 -0.3154792429857857 -0.4235288248975609
Ni 2.0213175857754475 6.492067319304226 5.2732509402945595 -0.033918250013999646 -0.13586326168993376 1.3920860114617768
Ni 5.3689064642640565 4.248111747770732 8.592259258896116 1.2442830609114635 -0.8137402665899146 -0.8345500042464143
Ni 7.401750919536199 7.9220712307228665 7.910207393635454 -0.9851636847726453 1.1066665639758488 -0.5254203576277403
Ni 5.652879916944611 6.758133614499901 10.834611932682506 -1.790199738720343 -1.8892311762939076 0.9345260651214358
Ni 9.594277503043704 7.8108811325506755 1.1552869400415813 -0.04641766803259102 0.31339484965293124 -0.18223542119657002
Ni 1.3251756877050886 2.5149106588240127 2.671627288125762 0.21717954137192275 0.715149258987878 0.6625496305142912
Ni 2.012046373648314 3.3890653537942077 9.9034876186455 -3.7373948931235437 0.7166348423944691 0.352825801955044
Ni 2.9477114640717184 0.6753161961522093 3.617102186415563 0.08477852719897658 0.8355825592759867 -1.31988403537623
Ni 8.87308399802406 3.816378927236778 8.20892179739521 -1.7529429112514134 -1.235372131575079 -1.4117444091226523
Ni 1.205542986235398 3.2870175730423186 0.24115555174742553 1.2962468555732642 -1.7550450451960808 1.391032887606914
Ni 7.256725960820594 5.7538873332770715 8.887954764486569 -0.33644530371449155 -0.4059509639147977 1.1039365666391954
Ni 8.450484288145633 1.4371943947069143 2.8065386157374372 -0.6720380296207007 -0.9010986387009255 2.8470943734793868
Ni 8.5780071870264 6.199236958911355 7.007528300043327 1.2788176043532233 -0.8030881861927072 -0.8944410241750919
Ni 5.158495062125507 4.293105207219892 11.430801509663475 0.781597363308783 -0.3910223676294234 0.2947700354628923
Ni 3.801003630064669 2.4634724640332504 10.631516225833153 2.076873627438662 -1.58101427129749 0.8779792790746427
Ni 8.361740282491766 8.753837980674865 12.550212449411307 -2.328351170761506 -0.8227854075113183 2.1252005966788237
P 5.2434274671630545 6.642128378351054 8.7349862091242 -0.046195781829772055 0.5017227569004843 -0.5653058809687683
P 9.08280489280458 7.002913869538739 9.38243536965932 -0.23962784307310991 3.0056795022468688 -1.041838254646554
P 5.636445841823525 6.86657089000475 2.013884043897148 -0.3120319078671336 -0.37250553977215844 0.30385862802772184
P 5.97935179582065 8.362522857497533 12.322403944556342 0.945013852026637 -0.21445597179317258 0.9812355533628327
P 5.063831106722139 2.883521900069357 -0.26199138110682657 -1.511216276667746 -0.0075549295291224726 1.090351114645277
P 9.033484253911773 1.7719339483497505 9.51977267978887 -0.07098121630456808 0.04391058534002115 -0.4068225678864736
P 0.4562172907731798 6.736930435226028 12.561019349902699 0.3883931575366924 1.5543059087683684 1.3130860386177903
P 1.9626152535782222 4.524047694803832 7.361395828180039 0.2472709614406645 -0.4697230640654362 0.3506635041964025
Ni 1.0178262592640632 8.530150423732614 3.6889241584153365 -0.951914178690896 0.8107091930730748 0.06183271703608061
Ni 8.806095577530488 8.427955334744345 5.9611647526866465 -0.291060447821789 0.4282534840667399 0.022870991060902544
Ni 2.246809668613347 6.303337848207782 0.3715592473258888 -0.5717290108862928 1.273025937372111 0.7625483170971319
Ni 3.495108870457891 5.1007502334647485 9.403415745225667 -1.1362712742161591 1.564716819689047 0.5088218298391107
Ni 0.155287739408868 4.720694983605673 3.5678110091700317 0.23310006925692114 -0.37711681329192476 -1.16450121559613
Ni 1.6509294389287759 0.6124625337185144 -0.13349348583652296 -0.34808623038752956 0.2534470083443893 -0.3620676322682861
Ni 5.137126161085709 0.1536857623382411 10.585229215933285 -0.025914920093548916 0.22397188170340782 -2.8443440644277596
Ni 8.066534576787275 2.823990959042497 1.093424846174016 0.7195630717848576 2.0230900059593027 -1.2659487188103553
Ni 8.02467141736118 6.1063314955797665 11.378302695570781 -0.5329197513285789 0.2886459248430255 -0.5918820887954
Ni 6.062461261433001 6.1721230366527555 6.648552858810156 1.197734523727963 -0.21774981205309596 0.8960675040349213
Ni 6.507461030005883 4.63357136855198 1.164674157404864 -0.6241476336973251 -0.08325746256875984 0.27600535326087955
Ni 1.902992244903625 6.631954903276096 10.781547823232705 -0.3881969823654863 2.0111783421233813 0.10237207191102368
Ni 5.158743644774397 1.9830174443167812 6.721251314816386 0.8170212513340316 -1.274181905353425 0.14438338334580295
Ni 7.72790976840993 4.856338249016859 5.218528692509012 -0.20612842576408374 -0.4977041226593945 -0.8262188586728997
Ni 7.0456700851478855 6.750998371800269 0.17910563987847627 0.8103970611492947 -0.2762670915626984 -1.3659759446382862
Ni 3.394451311186833 2.892737871607849 8.245398078752203 1.2142168376537024 -0.2912712782810145 -0.7505019274555592
Ni 7.691635115201481 8.649295166669297 3.9539105001030532 0.2871917088950021 -0.4302802846887815 0.22756859791573064
Ni 3.3523119488175257 7.734105921102642 9.096656470406637 -0.7409219970766078 0.5001302156023838 0.7216240680789443
Ni 4.07746436268987 3.923600909791497 6.174097887696718 0.5051279259272913 1.975822845442223 -0.40584169203044296
Ni 4.410620352791627 8.671768879481943 1.423219446456888 1.1751111299014922 0.8103384399972173 -0.29674489980107605
Ni 2.6340001611720543 2.270240884962459 5.553100683032967 0.1381957664778523 -1.9904881607638816 -0.3529355880600309
Ni 3.117834063560478 2.023232592848381 1.309085945586539 1.7216456438000285 0.03731750550353573 -0.8337629895687447
Ni 1.6247730202066433 6.381319145841173 3.131637765985713 0.034324484313482825 -0.5968710573695591 -3.021855597786099
Ni 1.218561351625435 2.2480341683282514 7.621908602864206 1.536181688363832 -0.37782515221285895 -0.059168797050672295
P 7.611002269313261 3.600692048882888 3.110993437333606 -1.0939812551986967 -0.09929369009601609 0.15526429192436486
P 2.5214290482838053 8.090416924610299 1.9075118457310432 -2.7996297522395204 0.47229185323387696 -0.5452847006518351
P 3.5976077826836925 5.710808880900845 11.543546630405945 0.18568841274217698 0.6994043374487955 0.2634038624467851
P 1.9601202203245447 2.4274279799441447 11.83856912149144 -0.5522297645111005 0.04827169052219429 1.3067467266633237
P 0.5985290159099698 1.562544497101084 4.575110253591826 0.45679967113554876 -0.7455623240620967 0.9558111997524571
P 3.242815895363699 0.8001286234835936 7.442178744334071 -0.7404591985075764 -0.3276084221491519 0.03766023355493514
P 2.9547362255940652 9.012879514348192 11.033301281911157 -1.054350785291268 -0.6898660589410571 -0.3354186622221901
P 6.942858142919777 4.233371717368009 7.067006762510976 0.7788372840651425 -1.007761367567503 0.6227993471995468
