# total energy = -381166.58147475094 ev
CRYSTAL
PRIMVEC
9.22019795625703 0.00000000000000 0.00000000000000
0.00000000000000 9.22019795625703 0.00000000000000
0.00000000000000 0.00000000000000 13.49469170087101
PRIMCOORD
 96 1
Ni 2.585896713453642 0.8901547896444001 2.0078483900412176 -1.348720499991948 -0.6484702696030897 1.0004239533658255
Ni 6.33481075430376 1.8670993024712115 5.475470788185116 -0.27877957357190697 1.1957336912478502 -0.7712592146075685
Ni 2.1336736652301496 0.0659364015079549 8.428474292605433 -0.6811397348116528 0.5027188022651665 1.3618336403351383
Ni 1.6464507456372277 6.212882856782863 7.926782116389737 0.0676997173398189 0.12654558383343367 0.5680371638570023
Ni 4.97076545128356 3.479730362074966 7.683215835563169 1.2207554101031686 -0.9529927564670554 -1.5796433590918926
Ni 8.733832495967206 1.981309894318713 10.713557438260521 0.6743733626220967 0.48242585634408525 -0.35452787224781523
Ni 8.685583200162089 4.926526941581105 5.498264039505549 -1.6280610882736477 0.13880923169213516 0.017613599316705152
Ni 8.581376523076397 3.4452837025817664 13.330299401893113 0.07184639251834078 1.0767913736829713 -0.6707697044312384
Ni 8.137202707652039 5.041788635993441 11.319333662929344 -0.5002888526674352 -0.11379162660187499 -0.3817815657574457
Ni 7.220742693292944 7.418386856273734 6.235991438872746 -0.040194827051330775 -1.0829298824805413 2.6921159882265573
Ni 8.006736906841338 4.2689332045054895 2.2014974412558392 0.8924905853169403 -0.4916214068004244 0.7511842982345643
Ni 0.23216274001789922 8.138078626456068 3.196244312259704 0.09709282578995537 0.48096546974847487 -0.3672478909176449
Ni 7.572557785980852 7.662039806960912 10.961171385981503 0.34633890867911965 -0.09850256165328841 -0.24301064350241372
Ni 7.826657220930823 3.448012881171163 7.224396657735437 -0.24912009883426126 -0.6515036571127748 0.25696273480713167
Ni 7.960847981708134 0.835595190371097 6.842105122786068 0.8395148044508575 -0.6855203803778516 0.19350276658027318
Ni 4.752680109476104 2.94943067771967 12.672851343944904 -0.578923471752203 0.7680108828735999 -0.229418763750592
Ni 4.943777931921517 8.6207375480701 9.230949609966487 -0.09343157488828427 -0.12085521831687572 -2.02630722734502
Ni 6.744316625484428 2.560448967147103 11.41223176724512 -0.4119933134541356 1.05580243013613 1.3292726756799818
Ni 0.06706218767608116 8.00682910882071 7.692446175718052 -0.19368145824998256 0.10912533147445723 1.7710954137907242
Ni 3.705025898669274 5.400214610602288 9.686867191503396 -0.17723771087166248 0.5023295372465478 -0.28198933875845633
Ni 0.5726194708670296 5.177758894972622 0.9263929335967884 -5.292898935965072 -0.09972563542711213 2.2269291214685776
Ni 1.6521396077644506 5.114794163259811 5.90708577199928 -0.27302724446916204 -1.7838748249435792 -0.721559533389596
Ni 2.8061027007866426 3.5699223382961867 8.431577811231078 -1.337538772343516 0.6191666355429659 -0.44971525348494157
Ni 0.45546579183798913 6.760857660583678 9.998028587446813 -0.20055401700009975 -0.19102730845658714 -0.11903513438900147
P 1.0669797456831007 3.5056852192680488 11.90907872944484 0.4039059084603109 -0.6755974648371849 0.5621771055317996
Ni 7.22515916810484 4.144635716114744 9.380564839872857 0.5843852661977227 -0.02607587115144542 0.3836021639059523
P 4.74207688184838 8.338710133568496 11.829676228849674 -0.3594613049936906 0.5262009445475067 0.5072688835296941
Ni 6.9780670835871055 8.983045226010487 13.033941955757587 -0.7122634527996508 0.035107642336410505 -1.7316228096173982
P 1.23263904201991 7.272763050054356 1.286342084904852 0.6962313390374525 -0.2806701057264005 0.5178939673437081
P 2.929800876311474 9.013785365932952 4.275077544410807 -0.516330222401014 -1.653379255323462 0.1707068517316802
P 3.9326818059354935 2.4829624236832775 1.542160164750308 0.3927023264350075 1.588950238315115 -0.015761633709630917
Ni 3.0481513370327566 3.4151705361190277 10.68693227267741 -1.4941467227799687 -0.776336886240792 2.4953312084609025
Ni 7.304074842248925 8.493803083069329 4.470912704556327 2.16349897803839 2.877937327002173 -0.8812108986380631
Ni 6.800532172307244 1.8878263074339292 8.88562000450757 0.44350706779170074 -0.6942233074684883 -0.9915621320998211
Ni 0.32425592105376055 2.504814292794328 5.857114143219504 1.5281475052054456 0.927408737350364 0.6618865430089955
Ni 3.4175401269888757 9.01705853620064 6.718885475534175 0.4554341582465899 -0.9831883062138294 -0.4243173822371272
Ni 0.2078324817013426 2.0094407182249636 8.447096326379098 0.5187257192163841 -0.3748370161188125 -0.4350193420356637
Ni 6.788674997760066 0.6934206602000073 2.405914761641261 1.95600221117187 -1.216884871404169 -0.1579454383009538
Ni 7.966619825616791 5.8869580799024765 8.063712197974175 0.49415574318650385 0.49579405012087513 -0.1887002029853073
Ni 8.183930670797524 6.605515765738542 13.105477783472775 1.0825874115394583 0.4682392804310581 -0.2143523563357728
Ni 4.662525014046632 9.313045330379094 2.7573296977386965 -1.1677495473300985 -0.886945230018679 1.0298024065279425
Ni 2.7448529258901426 7.005727677398561 5.480545585129724 0.4770334816839204 1.6917617117564028 -0.8326702707251982
Ni 8.929438995203885 8.790757998031182 0.8162733435740013 0.9507070457566725 -0.8408420079027131 0.8949719569778973
Ni 5.750646673599622 6.7261528355482385 12.647252386392196 0.0709940718203745 -1.149649495295278 -0.9676328749777334
Ni 5.433084616248234 6.214035381525006 5.003777447977739 -1.1367029624369391 1.5008233634691959 -2.489413557424887
Ni 3.2842252850155953 6.597955203430077 2.988804610990484 0.14425302841552576 1.069454987922558 -0.0390105769352425
Ni 5.945460235813707 6.236938353200892 9.842636903532815 0.7917190251238172 1.049643609623586 -0.5149842498960808
Ni 9.507407102894257 9.197608452205952 9.930285027143176 -0.798239085630522 -0.6937774781803213 -0.48037848689675333
Ni 5.8025563879857875 5.195258830657337 2.627106388133743 -0.878589658965132 0.5045517417088471 0.9137268689878973
Ni 1.021136921539581 3.527472546993539 3.7250742970638178 -0.6041891882975272 0.13576504554917265 -0.5247850380365865
Ni 4.190515421050011 0.9754231801671814 10.91093052742196 -0.14813076620337715 2.5804450075121106 0.4604467809698328
Ni 6.279747732223088 0.43371442288445394 10.588920646585692 3.3765392788854878 -0.17752181777098458 1.7297626164802082
Ni 2.0036596541183695 1.1966341690753317 11.042274091076278 -0.9100321937451294 0.1588077863012491 -0.843307181613754
Ni 3.200810154278182 1.1477855604043004 13.375304110044146 -0.05965139311404566 2.6893191422077103 -2.3004205057895093
Ni 3.9916449717435802 1.6394987163926151 4.543824185803738 -0.34670863331371254 -0.48020930830874076 -0.1306135832552202
Ni 0.2162099535470389 7.259725690171223 5.624357622454452 0.6385728079837196 -0.9093223121622984 -1.5422592620164794
P 7.02991225658771 4.206798290607022 4.31252537833255 -0.3708165821055098 0.5340636351250351 0.09221852841678958
Ni 3.2320942858789383 6.017257917150309 11.992894016772727 2.108859436316639 0.5630224842512304 -0.26537024214453653
P 4.152832472080871 1.7061330868844127 8.547793796129909 -0.1681833139788781 -1.5800169403812272 0.1791570393815624
Ni 1.8062367758880713 3.0779971177553174 0.760254186967247 0.3541267801546546 -0.1149779336004923 0.14718048647496587
P 8.079677892722149 1.431149903606792 0.31485500723704046 -2.3954870451780548 0.6213883257846331 1.2102586243369027
P 2.701628637960774 3.35491654259974 5.055516588702067 0.03289932183118205 0.9411744236758887 -0.5526671091588353
P 6.853778815394296 5.265157151218886 0.5591635139975499 0.3991851059458738 -0.9836835006826931 0.7645208674424704
Ni 1.1933978795993911 1.030541523435476 3.960435523746115 0.8036546002191384 0.14597952418832924 1.2576599964390016
Ni 5.331358172407636 6.894910118391931 7.4673682357950595 -0.4983885503209287 0.6537047785291517 0.4103123262072869
Ni 0.606471427593283 1.431149903606792 12.758933877945537 1.3491452462341926 -0.6316130888364347 0.5295202387287267
Ni 7.2568489884148315 8.519057205219188 8.62963964917842 -0.14912526890616254 -0.5042920602895573 0.29392722784662284
Ni 3.9013423531471143 5.185420879458395 6.531808581409155 -0.8358193578771412 -0.27737626546647715 0.35043519023568037
Ni 5.918057807544491 2.686535173937656 3.133872439274252 0.5318362884564132 -1.0712015383000197 -1.5233850508197957
Ni 6.53588483091717 2.921410496188665 0.9113723091373741 -0.5193186156053766 0.2068701890261147 -0.7213592444533319
Ni 5.148991877408708 3.366543212198488 9.86615762847049 -1.000982911193089 -1.3707908495284264 0.3680212787485597
Ni 0.4893352669403232 8.214108378645824 12.008574807404441 -0.9803978879528857 -0.31430090640696834 -0.7776908291655252
Ni 2.3226692825458906 8.540392743245759 13.101969498157688 -0.32934417389333603 -2.7034339843425377 0.42359361669722534
Ni 8.919619484400819 1.7110290119890401 2.469002121986636 -0.4592460757935123 0.8152610741098152 -1.0977139827682514
Ni 4.62517399220323 5.121801513692047 0.7264796799036657 0.8587003762403727 -0.9676981809980302 -0.8807838384029735
Ni 0.8335335541123498 4.013828767980368 9.83235361677351 -0.5428094996384651 1.0029755161430856 0.505563213692497
Ni 6.791247432984532 7.447227635421146 1.2771218869677 -1.0485033253715554 0.11338590652302406 2.004725387409186
Ni 6.1635455776211625 4.931828555394967 6.501203056376573 2.891577800603743 -0.9048617052877835 0.6218727216202193
Ni 1.067311672808838 5.704656326289108 12.21161647425764 -0.6395629398111309 -0.08621731652803216 -0.8257845993489585
Ni 2.495372810106684 5.397697496565445 0.665051955186978 3.3522883767579232 1.9220322819843285 -0.5046085630887116
Ni 4.122783847003693 7.62008790634687 0.8637416886138407 0.3878509118799772 -0.0077433913908447295 -0.12871250957776542
Ni 4.872432040283835 3.6946531759899783 4.644966991114914 -1.5167683168342265 3.2089198078298797 2.4743600055258743
Ni 5.212620463372993 0.9245645683458512 0.7354444783579586 0.9155603226522103 -0.3015346078802355 -1.1201697406686062
Ni 5.706371283105418 9.560515443012251 7.01946669434471 0.0947855178130174 0.47482670384058867 3.0112066027126847
Ni 1.067477636371707 0.12294488535336555 6.217044854131693 0.5639917901430351 0.8661676311516954 -0.5049227518950208
Ni 3.061981633938484 8.246028703904244 10.41618853641129 -2.46756560831186 -1.518252614689237 1.7551023807965773
Ni 5.024675948622088 8.694213305431264 5.214079098686651 0.008103345833424754 -1.2378326773004293 -2.57874422277092
Ni 3.0487690902945457 4.321884801258553 2.7674239704402903 0.807024545132636 -1.2727171478824404 -0.01913003596123157
P 0.6546635581711889 4.17009268261922 7.733807983664116 -0.5979460356012928 -0.02169728246777554 -1.1861607028474346
Ni 0.6794419181074911 5.933667602652089 3.6417449141672193 2.1441712242440554 -0.6238164756101515 -0.6916030962368218
P 5.668946499678519 4.743072663225592 11.278040084448016 0.18701818729719402 0.10335269065673812 1.8526801166427511
Ni 7.719583062286677 6.308164382265391 3.439338518951891 -0.6327999100556844 0.5657604520076837 0.9622235310367042
P 8.250777105841877 1.3687383837702103 4.688474339120953 0.10517945945283178 -1.147757677589204 -1.737098745130305
P 3.4583395028607735 7.199416375464312 8.57826470627261 -0.4742258370317962 0.18512277004669406 -1.1137779782096495
P 5.840248557152865 7.633743019491793 3.3388300632587904 -0.8229802971309439 -1.4374032473413374 -1.6721544790484364
Ni 2.7708907648646597 2.0276229485570276 6.7087377256845455 -0.4071167020881246 -0.4631487532820282 0.09298291738663986
