# total energy = -381166.43506362796 ev
CRYSTAL
PRIMVEC
9.24038349782694 0.00000000000000 0.00000000000000

0.00000000000000 9.24038349782694 0.00000000000000

0.00000000000000 0.00000000000000 13.52423528135175

PRIMCOORD
 96 1
Ni 2.960951495727847 7.3375851709064435 1.9247958875844144 -1.282551617474359 1.730062407108814 3.883517113537324
Ni 5.096930801729551 8.131463470485649 1.6605052136421634 -1.1795969335869878 0.9804056012623695 0.977750937248342
Ni 7.758789567509081 4.412791295429702 5.3870954732350835 -0.1915654403482443 -0.498017025914123 2.3409128094766007
Ni 6.183036226389562 2.5840085356196627 2.013569174963507 0.4060810617347587 -0.4155159818954134 1.531439031472524
Ni 3.5209464510249884 5.390719551605255 8.720007514340882 0.5899316499372486 -2.192906227555914 -1.5021215134553292
Ni 8.908829204925901 5.393565589692998 0.3673412777154105 -0.3885970460173824 0.21205199033737027 -0.2027911338607346
Ni 3.1525785667136415 -0.12752745536609367 5.966838051900135 0.10736386869866026 2.157015684306892 -3.7539090887284834
Ni 8.176122243466377 2.7262919592400343 7.10014243093802 0.5500304428669366 0.16208182906683055 -0.0006247780681924725
Ni 4.7890227460159505 3.2879132220158866 8.36041152599283 0.05246361711635481 -0.3199020546438297 -0.5990233278258715
Ni 0.7025445019594835 4.1529886757056875 11.075509684779966 0.586023573132094 -0.7156513954352771 -0.2438351962862381
Ni 7.970736241595356 8.246922061090698 7.084657396433343 -0.8044704112522145 0.269202214296117 0.6569477109464815
Ni 4.249587643787735 2.3890641669926347 6.077344721040179 0.42869365692795197 0.8407754163308359 -0.32488305279818885
Ni 9.38869155536294 1.9997113719758808 11.373651579276244 -1.5685454494065179 -1.8139652165710562 -1.8977795800845507
Ni 0.8677745696814572 8.957609188903817 5.79829900288199 -1.3575779503825782 0.2753952304807064 1.5779801124568564
Ni 8.281582739230718 1.0334629604201584 3.138096113808056 0.7468782146600427 0.24393984018490245 -1.3818069981332717
Ni 8.330039309789571 0.9177363986964583 13.119955600880473 0.6226304257218503 0.7118957850475868 0.37250759665468747
Ni 3.735766884349212 8.373062534908186 11.324329184792646 -1.0650154640939657 -0.2512731406215221 -0.5022858284928059
Ni 3.3712799610666067 3.5117522695402323 10.364000162844093 -0.4420183990613162 -0.5597263299984618 0.4885905903939005
Ni 2.3012250823754603 1.1961029486746175 10.028612130931982 0.11590713028298102 -0.2729634811107622 0.3797059141753396
Ni 7.870284033634772 3.426546694192561 12.453683299926274 0.08002430034344284 0.43944652456908184 0.399069663413932
Ni 6.067753203069147 0.4354225745429318 0.15490671138552223 0.5321437923945029 1.3483806001540262 -0.1967600971753063
Ni 0.7920865892376031 8.692308541055754 1.3651363582047573 0.6688017820715901 -0.8438797662877725 -0.24418538053680527
Ni 7.453385655697359 5.4575367639834145 3.5048866646727213 0.130419207856227 0.24100903969135268 -2.0986498427734888
Ni 6.351257406218687 2.4233829509467886 4.471396579078713 0.3071162157330711 0.7524001729195364 0.8154109694241183
P 5.6795184944440065 9.065952684289506 11.210630887225632 0.1336487705371182 0.1428893152987797 -0.08096326721794443
Ni 1.4569589721064327 1.4094541610379607 0.6770909418409827 1.4061473746508493 1.7753130514164972 -0.1707680439869188
P 2.636456951808079 3.7867183584265423 7.1533605710638035 0.5204825540064907 -0.534285521327854 0.7512110377074418
Ni 2.702303923929054 4.323880326337923 3.6244683143516374 3.2871121971709063 1.1836117111733357 3.8946340493860925
P 2.0889549948701234 8.97098002368617 7.811800723046664 -2.2200539916152993 -0.9578922506512019 1.5011185261121114
P 8.233292495573096 5.260060530304303 7.907498753747039 0.21469482727685604 -1.160592367460027 -1.565138223497182
P 7.4023602585528145 4.251250912800053 1.417191134060258 -1.461692201795689 1.0523039300645682 0.09389103102320603
Ni 6.65300212620331 6.609673968432436 5.407895576272455 0.7430449569568817 0.05500566681191817 0.7541922318229527
Ni 3.001322730810157 5.619391319648724 5.942535843553494 -1.065573393479965 -0.6597245023606703 0.2764226433039562
Ni 3.19503812844475 8.78282733685944 -0.004202526371122548 0.4476501434257968 -0.7898215509907881 1.4329130727804678
Ni 2.3138566864856727 5.642381393552315 10.882316368807574 0.5323080858865091 0.7449956529253492 -0.24619109811292436
Ni 6.75055285377574 1.5568937185965168 11.331929400140597 1.4280359471938247 1.0108230372119624 0.5375557074386935
Ni 1.6500275429029025 5.134215748755671 2.0751720389880517 -1.7031966930662215 1.4137275009909522 -2.382220667086452
Ni 3.5585455710867686 7.553579132922692 7.372682919181367 2.2479221787804766 -2.6915752852317385 -0.47527716111444596
Ni 4.151334647076772 1.1071457776658296 1.411876065527563 -0.09087872655944348 -0.060389299721334715 -0.3406855670480842
Ni 5.150173890890519 5.0189881677356665 2.686278326995373 0.4854132211071833 -0.6619235668945181 0.6411377404974183
Ni 5.688712675928762 3.692549611179159 11.334066700821424 -0.1918076382660374 0.4695014349729334 -1.9603802856349075
Ni 0.8743805197753787 4.365508253562872 8.573337680719693 0.9955522270958209 -0.7112920900253169 -0.34388170538787877
Ni 0.949624961815948 3.947491789233845 5.721467987011337 -0.4479656177836865 0.9979526090071974 1.012401951663308
Ni 8.15402848675276 7.746656944102564 13.08799773488547 1.1112570115600087 -0.892831770706443 0.7078519539955164
Ni 6.181215870859414 7.274214621537142 3.404618340341833 0.3459714980373719 1.150650939976599 -0.9815191460415225
Ni 3.696310447223677 4.80661643601291 12.562134907797766 1.1811177411068883 -0.6899056539297408 -0.15282842878936262
Ni 5.342383106030624 7.67903581836845 13.00076574345779 -1.6850431620856465 -0.12629772948868573 1.5656411312755296
Ni 9.02930532371811 2.9481166031827963 1.1337959674348588 0.20948165850703276 -0.17824146954582853 -0.23712770235907546
Ni 1.1673745966785312 1.6216133639424763 7.814492446731598 0.37722505673501483 1.305145700724791 -0.5795042839563375
Ni 7.879552138186742 8.557999568311104 11.025213353885823 0.9599928419339725 1.2428309018459693 -1.1937390294153247
Ni 3.2164665775534425 3.19598064755173 0.8875656228513567 1.8278013511232005 -0.3550716605664272 1.3718097777112437
Ni 2.025621407034429 2.04992361538107 5.104858126649924 0.35587590163527744 -0.593707572039913 0.18605248094981508
Ni 6.032316332723379 0.37318674425536674 3.35459182864302 -1.1216023593500748 -0.19799319825145903 -0.15092478400874654
Ni 4.250742691712956 6.0252289586542265 0.8548639059925116 0.9324139038744393 -0.7649605260830503 -0.7431439444285911
Ni 5.483529962492579 9.128981339472944 5.82118281237646 0.4219959331928022 0.2148336668475655 0.47729316310321024
Ni 6.827044747575547 6.7473094792017205 1.2203062849188595 0.4028021338731708 -0.8086060306871429 0.5966915943689014
P 8.741495101903347 1.8036119554236323 9.159234354730321 0.2626723835973992 -0.7314433681622113 0.6748107072698313
Ni 0.6461744670553586 8.41068013573677 9.591116938392037 0.652039989232219 0.5193713232201829 -0.057392678986855995
P 4.549068469838926 4.561672352798934 4.754958996643684 1.2303101436711392 -0.49229272183583606 0.3688987962575066
Ni 6.184884303069915 5.237560196721006 13.117263877195539 0.5177983223061082 -0.4676638675435624 0.041498119243786595
P 5.735690785143334 7.256935104575843 7.1558619428506605 0.14809425653848687 0.8351382726497164 0.6599322474961022
P 7.92991222772636 9.029896708255821 1.371654524656362 -1.2001187076894233 -0.5843526131875743 0.673800263727446
P 2.0131468894420466 2.5003368639166843 12.04034246959854 1.70095006312389 0.11480232725457647 0.3848661182200404
Ni 1.614793960991974 2.786955076272619 2.8619444837312997 -1.626759595853405 -2.9500210323423 -1.8214684669266372
Ni 7.98500339356768 3.765613322736912 9.661037071516509 0.4984800815934705 -0.9989663949836923 0.9435339250470008
Ni 5.6670347364682225 2.8906506588072216 13.436760297733292 -0.7527398156471423 -0.23850092855751828 -0.2365234931161733
Ni 3.9332985603287343 1.4438653488261322 12.26969987409042 0.16730168270487317 0.7702158609447187 -0.1758688555485939
Ni 4.906486499819182 1.6054057314557812 9.898401268226017 -0.580722986854787 -0.714783391008027 0.5524053708570165
Ni 1.5045561870089221 0.33665026828478944 3.6071296589365662 -0.174543451868951 0.8238652708390585 -1.5373777655544618
Ni 5.48369628939381 8.032249473900903 9.22296065886059 -0.9681388680798745 -1.4025719985947651 0.016010002275011134
Ni 8.635295375466866 7.94316293752449 4.19808451882132 -0.2649665789482146 0.36040747095704384 -0.6026876640513363
Ni 4.158126328877069 2.2402200711570104 3.3888080443414137 -0.6417234377975594 0.42958531550428597 1.158172445164625
Ni 2.2146519302843277 7.626726007931061 4.4414401801285335 -0.15519641480090693 -1.9147905128202507 -0.6535924213210035
Ni 6.339549840448651 6.936571012036663 11.38184779935361 0.9138430828507874 -2.649929584666494 -3.4588207506942235
Ni 6.852686811515444 0.540258420389312 8.860970487173141 1.9763098123809706 0.23095294100693128 0.8602638640727507
Ni 5.725267632666143 5.069791795678569 7.056594352042184 -0.4753892612122781 -0.19666985145434515 -1.6788069513679476
Ni 2.0109199570422214 6.61116167016012 13.698291793191775 -1.5877197083421235 -0.5589192607161342 -2.141370007349835
Ni 8.482838289721151 5.720998575534527 11.566210080908936 -1.1946396868527234 1.304271525649954 -0.4230485428270327
Ni 3.8323658524312596 0.9079554528656905 7.872173692040433 1.048160597320156 0.5759697884405177 1.3381992887456502
Ni 8.025771965136267 6.981257506167596 9.017703098318853 -0.2256006755560824 0.7420393985105027 1.4197539096906904
Ni 4.4743045277352484 6.99818588855963 4.816778085639831 -0.8063126066672758 0.4483368850801762 0.20990254809453526
Ni 6.37399798977043 5.185730886220509 9.228559407163718 -1.5907970617158667 1.2961175290842517 1.0954444700077843
Ni 1.6124838651415327 4.207802630044956 13.428239740198524 -1.615887171915275 -0.14340353593103689 -1.4244364027680243
Ni 0.6998287532777049 5.73561686207612 4.1705361637856395 0.5508981901838707 -0.4037184750398531 -1.2049140721955378
Ni 1.3888481060520255 9.30700656609134 12.341946735755457 -1.162447932611527 -1.1111143153345575 -1.7841674164833339
Ni 8.856962932891797 6.525142941073093 5.894470141212535 0.8145882164125068 -1.0310491344508501 1.9597902174593926
Ni 7.736815935779684 0.47444471364858376 5.363697898423474 -0.19241030484704283 1.148193479575042 0.697021953259548
Ni 2.911885059864477 7.299690358575807 9.426932882071142 -1.5393981384186004 2.5881945695505424 1.6032993079479354
P 8.962580515173967 2.177006608305539 4.897774666347998 1.0164984903301848 -0.6134896397628467 2.1377594071804404
Ni -0.24777256457325664 6.864579184953516 2.2601561983463174 0.4779217978261446 -0.4698248797506231 -0.5728788082200198
P 1.0786761564049927 7.058913688276027 11.79029307455509 -1.4605318629390007 1.4747251237202474 -0.4011232035088511
Ni 1.1889046900046427 6.622767591712737 7.6570298452971475 -0.10846095841758095 0.6616700561228153 0.25364986838381476
P 6.308409748384705 1.7003321901421091 7.2530476752787205 -2.433473037503525 0.4304288944515038 -1.72544367738988
P 3.66171445176747 9.13540340593717 3.2756235120915393 0.556407292927558 -0.15390083591793496 0.32874536396707255
P 4.643847082390827 5.6025091391737005 10.692814586004186 -0.08415657734426152 -0.08640089329374798 -0.30847838618792034
Ni 8.65977315109814 3.5274794020900355 3.445163294632096 0.08515673647400172 0.754786413763526 -1.8410605301259515
