# total energy = -340893.20513313444 ev
CRYSTAL
PRIMVEC
9.10835686940770 0.00000000000000 0.00000000000000

0.00000000000000 9.10835686940770 0.00000000000000

0.00000000000000 0.00000000000000 13.33100096520241

PRIMCOORD
 96 1
Ni 6.419797626206194 1.9232842018361935 11.505866754434154 0.27726210848611604 0.018669037164413007 -0.27805066582568244
Ni 4.5182915056302555 0.5615948699588663 5.871346115201132 -0.2731773968937811 -0.9887796842586778 0.3664631902328205
Ni 2.4190065241236725 1.6711831005725677 4.849937709052834 0.27176303304475774 -0.5479727890069594 1.277908976496025
Ni 3.2086828474618407 4.29866169658445 5.030279531604292 0.4911658073202444 0.12438148630257934 -0.38518544923267206
Ni 5.192309913517686 4.210010059233526 2.5704438870049966 0.1754669921244849 1.1416628775453757 0.14330429134901126
Ni 7.327290545571713 6.088499362015796 2.6227677538421603 0.4397113481946944 -1.0566771194315996 -0.29470395811164735
Ni 4.952131651388178 4.582897080861952 11.514625350393944 0.28490574107430283 0.4108810542265633 -0.20721497396004313
Ni 5.716468525932524 7.901290086742767 12.53312727986715 -0.46303459630166705 0.5059352523199351 -0.14892215175642096
Ni 1.8717035769190784 6.559947913262462 0.3296186831847983 -0.1980199377243364 0.91641572867397 -0.048452181964116554
Ni 2.766508555173959 1.4977873109650945 0.5191890929101972 0.5742854587595593 -0.03262987021987929 0.37776293151635587
Ni 0.4440460596232984 -0.041984970961582595 5.010256630711604 -0.02320369180997294 0.6429673375069894 -0.5843551842907355
Ni 8.888326286595866 2.5457493098770994 1.3057594665579655 -1.0506306561272034 -1.2149426600761333 1.1563341064043053
Ni 6.8072215853885165 1.003048691218857 4.733291536882423 1.2460887466616346 -0.5859117301445781 0.7624850679593642
Ni 0.7409866908894787 7.463706406314011 2.577348932343097 0.2471876576982388 0.2884749464828 -0.753908896254579
Ni 7.4572941230822165 3.723186601601534 3.6815422831866402 1.427117034923981 -0.2832970018262863 -0.4213678126905001
Ni 7.671103692092346 4.009307415749748 12.626311235593274 0.29837189388153773 -0.6715166098995918 -0.7603381968196905
Ni 7.899331790017148 9.108356863343658 6.996002300573863 -0.5552294705693729 0.10088366029095529 -0.03554858652857104
Ni 7.007978879013474 0.7803530092528499 0.23296171098668175 -0.8460749741668783 -0.9167615420491632 1.3434785348667186
Ni 1.859953796565365 6.482936755982892 9.253674321248502 0.2610646727906471 -0.012783782028229596 0.32875333438687254
Ni 0.0836119834984358 4.978964870707588 1.1908693855908075 -0.006596165160278962 -0.04034497947594987 0.726248454224833
Ni 6.295523205162733 1.9755934953023762 7.094172170846981 1.50132318592375 0.6003538737118371 -0.6746196743049478
Ni 3.546484478452667 4.828157806121206 0.6898724138437667 0.8960353652454053 -2.3533695471827145 -1.0748656174151683
Ni 5.997370251598042 5.464476724951258 4.817623991408749 -0.4010270442506191 0.5259608035122425 -0.017195795052996194
Ni 5.343982272006085 2.7596317457421353 9.352017250302023 -0.9948577721319576 0.7624621851412289 0.14441423658373836
P 0.1532781618034061 5.6354861250605355 12.418733604349045 0.6601322793220502 -0.915809462548539 -0.47056818567455083
P 3.9163566339593263 6.382498904850801 12.63509624578797 1.0860591721381425 -0.19995674973573305 -0.42562555952558956
P 2.6604508478571858 8.433099718922813 1.4145788276757048 -1.0422869121481984 0.15783153843090883 2.0974594220098135
P 6.47252590408809 7.8425411849742 5.791280015029597 -0.17076470155280912 -0.1012011915313741 0.3616801670218803
P 4.849380277612798 0.9509944317448481 12.818277143173733 -0.031191338001139834 0.6395894221736921 -0.7185927374517882
P 4.009671750024283 6.079299921583818 8.128817752024778 -0.24623789219045977 -0.04437364101936874 -0.564957239380098
P 4.957760615929724 1.040520471354653 3.693966992783927 -1.4389700776078251 -0.06193221872842238 0.3468855252112091
P 0.2545239241892752 5.537225171218783 3.5560181955815287 0.14807445904414498 0.0008780317295791331 -0.7603101717952325
Ni 1.5635860809458892 1.0598848380461214 2.6173956449641604 -0.49693124904911185 -0.432630530088513 0.02214671130036831
Ni 1.7566012712370045 6.881718836173804 4.728465929416223 0.6881884141283181 -0.5079047173414801 0.8333780954255001
Ni 6.121626455927776 5.582102045484478 9.203163017427142 -0.09433146099473431 0.7037471877985234 0.7765011797327981
Ni 8.94959820321558 2.2651937017723878 10.341764097157654 -1.1582554917967343 0.9705901578338445 0.7480390677373633
Ni 1.9314726146563395 5.391163560558205 6.957943031420382 1.034759750533218 1.1072689734465382 -0.16961618977066273
Ni 0.6474119866539175 9.246803887666482 9.521000951844893 -0.3394516946409832 -0.6231004233797333 -0.8117764579953246
Ni 1.6407702970058633 1.2312403557162057 11.610621966719469 0.019393574035263376 -1.7779512603702927 -0.4079332844521491
Ni 4.258958369017135 6.832779634747059 1.8633803604173549 0.4303448193781298 0.14830508699771233 0.27897523452248085
Ni 5.557172472749507 8.074950018699276 7.932171970687934 0.2142690525933471 -0.40729770775067914 -0.013737661301066663
Ni 5.158490584484091 2.9179805298113646 5.0161360750668935 0.1370829930296478 -0.030200691953096374 -0.7346770446081605
Ni 0.5244118247356385 7.573881090933016 7.085093871561287 0.6263515833271793 -0.5108946532077394 -0.13660193962817122
Ni 5.501620604239973 4.407479236030817 7.307121910969211 -0.9304932898129589 -0.23222692262334846 -0.8125976683450392
Ni 8.076771690071945 7.440452771241894 9.06293439850185 0.4605233998440391 -0.22441205456461996 -0.3319132201720929
Ni 4.601314178439633 0.14819843118071932 10.432680982860491 0.20894301239474336 0.3020290310181508 0.26435517061646086
Ni 8.326595702119736 6.97173672705423 4.82043665200815 -0.7193046759171483 0.8282497730599994 0.07564519743914068
Ni 7.236452902573586 6.032400992094462 6.960968827570385 0.9895908673060636 0.4174450805973262 0.29662122973901817
Ni 2.3905793423531767 5.396901825382111 2.514386504689548 -0.9913330468081509 -0.10891218702238663 1.8546205281985737
Ni 2.3472235636836607 5.150721156079659 11.679836370524017 -0.1246743349526498 0.025383215959794994 -0.647491193519272
Ni 1.2567892967178846 3.513730827172083 3.714576471858615 -1.0531637069617021 -0.4533379378391935 -0.43457814073318707
Ni 3.574073691391735 2.5805341247382083 2.875363438883466 -0.12813658246963738 0.02962399351401995 -0.1459602409146196
Ni 1.348291849767035 3.623878186720498 8.436004373926533 -0.7459816709877023 -0.9658996943367106 -0.0175151260656279
Ni 3.708649664047637 2.796894033670074 7.10907617518247 -0.41119627147413695 -0.14393652561637146 0.08436997890664824
Ni 4.0724829789539 6.966207954438181 6.068524735414483 0.07885496262569 0.35070232785413796 0.04577360669068891
Ni 0.6432868118305092 7.428156489476381 11.245365926471152 0.8728368156417547 -0.30772402452039904 0.26243969876130285
P 0.11129136917045082 5.699490548739251 8.203244868462217 -0.7107840400406468 -0.5789005889340676 -0.45498087275925514
P 8.591995004403843 1.668241101305708 8.300027535985048 -0.46880929400191523 -0.08088767678500264 -0.758007748914301
P 1.924777972361782 3.2206330116665476 10.543928631917998 -0.2461409616012793 0.10308555303828051 -0.30835805855997217
P 3.9861812976737183 6.046874171150314 4.044345442931659 -0.10828458074071674 0.7814400117953122 -1.378278930375355
P 6.834200538417741 3.8633733220852564 10.468635310742853 0.6624537283663752 0.6398663299841625 0.5894228286216301
P 6.276623364671295 7.693619550258531 10.124681895526527 -0.8417817461081633 0.1629709165400032 0.7363706302604995
P 2.3196890008857727 8.640032478501118 6.164708073055706 -0.002274654966789631 0.14509557892147915 -2.40522612684269
P 6.967191656979422 3.9125948825747656 1.3446448636789523 0.24092419328703024 0.19593657283274643 0.9726444692597119
Ni 5.410427735324176 3.005457189126917 0.07083569132622364 -0.3859464957684128 0.20686967480548243 1.1392761224807542
Ni 1.3814644854633327 1.2141804033111632 7.302228901662223 0.5479673896903209 0.032450664329537665 -0.32942722052544554
Ni 6.779887406441622 0.9199531515545728 9.356043144035622 0.6141290731190585 -1.3737280777798795 -1.1212161796552498
Ni 2.8681578177688745 1.5667831142049227 9.242836287416809 0.10087826097431657 0.08734603081583667 0.48690934603673564
Ni 6.457834124467517 1.8257701332572362 2.4334277855454043 0.35333128083655274 1.6340525299703923 -0.8778126715897915
Ni 4.159986963340042 6.816830901879345 10.217558899626354 -0.049240996413999066 0.1380003626375946 0.7110095257878917
Ni 8.237743680917818 7.293170640761628 -0.07905234005264596 -0.20462150220125405 0.9518352458238445 1.0689608218949591
Ni 7.731829107300258 3.7592192613529214 8.398530772119365 0.5202339283307944 0.18568841274217698 -0.19473895298021945
Ni 3.236536202749946 8.51625901708514 12.66795737567954 0.19146722420748316 -0.25863343764133523 -1.3808610892802347
Ni 9.445092816581473 4.811225370712251 10.260844543948023 -1.3842395188341643 0.22323834597149295 1.017838549297847
Ni 8.70217879737971 2.256568087822801 6.033477599875709 -0.027583823155539592 0.5126324618344527 -0.4359698788743911
Ni 3.4271103534016847 2.74024916233694 11.93295214274222 1.4167050955620377 0.20055041745567398 -0.12531273986759708
Ni 0.9293256507669534 3.1999843666573478 12.740211238169387 0.5611190965809304 0.8076439238841897 -0.7585263404219323
Ni 2.9597059126023417 8.299562098949332 8.141095817076565 1.1941527199139756 0.278315746561611 0.4736414252832359
Ni 5.992306005182023 7.8070914600620664 3.6386838208018633 -0.5336571437152358 0.45408252931470183 0.21021108047388956
Ni 3.477142557652032 8.476655881443323 3.7820848804226594 -0.3308852931282108 -0.13795279722911083 -0.1699740873307137
Ni 3.5426498602131993 4.346881337818991 9.37193358341941 0.10487992593454196 0.19866528461781915 0.029705497484232714
Ni 7.118772931899186 6.1180104382530285 11.568055882590004 0.2844372860783166 -0.3902425520406054 -2.0645019932471866
Ni 0.775071073107797 8.925625007951258 0.3349388744286773 -0.040483561936343185 0.34036906424893 0.3589491412439625
Ni 4.795422371554349 0.16052021634545063 1.6183172865020348 -0.06266858267381466 -0.24173640477568048 -0.4206463611434433
Ni 5.996441199197981 5.700091700292231 0.2848265166379332 -0.2848345215167352 -0.057204731345765994 0.9820292529087217
Ni 7.868071909262152 -0.2911058178595223 11.175378223168906 -0.2811316187438513 0.21651671097694325 0.5663024405540827
Ni -0.05437142546004363 4.7621404355756916 5.6015529415661485 0.04093710453399401 -0.38554077568956185 0.46292301042446726
Ni 8.032350233649419 9.160547748170618 2.52581111670324 0.6555899113670064 -1.029637084594672 -0.12497412558125573
P 8.780483341333877 1.7280465724704221 3.6437362263539597 -0.05606033332867764 0.14648063219446386 0.383701665598294
P 1.9479131987946747 3.2869873914160057 1.4729160317140484 -0.2503197755693173 0.5084233088491116 0.1818325293311965
P 4.732474517271782 1.0505305555474675 8.091557285768213 -1.0805127883986165 -0.7767225517149849 1.2307631720481578
P 8.682431879699983 1.235594150296884 12.488308699085382 1.232161080836949 1.6891427860763166 -0.5026403836187473
P 6.705289963730837 7.731410122884544 1.3735192657714381 -1.3806561723582804 0.38061917001822837 0.019600804950063017
P 1.7300868444078112 3.335890159415298 6.284847300083208 -0.7740735441279121 -1.0558535950890395 -0.9742177272841028
P 7.052719127926219 3.766679005624 5.816368984009677 -0.6204876683472346 0.3395918197632732 1.2435760075421098
P 2.465759719903215 8.523190476658145 10.385210048560118 0.2915137333091238 -0.15987196589970532 0.23313992135592107
