# total energy = -381168.58500717545 ev
CRYSTAL
PRIMVEC
9.29419417840180 0.00000000000000 0.00000000000000
0.00000000000000 9.29419417840180 0.00000000000000
0.00000000000000 0.00000000000000 13.60299265163338
PRIMCOORD
 96 1
Ni 3.2164604353046826 1.6639767955059601 9.857748778998086 2.292742934639593 -0.18081720069280474 -0.6993503442824085
Ni 6.817189336991136 5.668789385978972 3.756684553858167 -1.3035762993551419 -0.2719697497389251 -1.327790177597184
Ni 0.8874896088751323 2.8010006526046825 2.226170530720061 -0.6146327522283543 0.42421196700751457 -0.21045919192895368
Ni 0.16230079867065686 8.060641013863414 11.368742205693051 0.02523074954233074 0.2447865044559139 0.36516684001890015
Ni 9.083931814410832 4.928506804111563 0.6835954315431693 2.022618465639523 0.9786857903577854 0.49569017755315925
Ni 3.6835308793619936 2.0188198425005086 3.931441431828493 0.02085601751340279 -0.7627416640548605 -0.5944017698934603
Ni 4.428163144196307 4.417261054195924 4.490021584270089 1.014811332435749 -1.6285143737609824 -0.999857282229078
Ni 8.05285247897823 4.617532354561009 9.083588858638441 -0.4720733094651676 0.7717844909834193 0.15709311760298753
Ni 9.070975707453854 2.1258982558802253 4.263518349704596 -0.2214866533877089 1.2240348521853885 -0.9632393738957281
Ni 0.8141361091999239 3.3883844428298975 8.935983110692085 0.21853656962044946 -0.6682055432484879 0.1971809867628088
Ni 0.8678230935803244 7.219655835956666 0.23303333553247393 -0.027178874407637058 -1.3574231699722685 0.20585306061551
Ni 8.39238798783925 8.40987036745623 7.346555048257794 -0.19494258435059328 0.7982465418296898 -0.001963294373957909
Ni 6.319401580528656 0.9529523375270457 7.761813146939884 1.3044263060602632 -0.9122101752330549 -0.7413305453689363
Ni 6.062844639036277 1.6587720466566724 0.3935031779115064 0.8591624034784557 0.3903744496327793 0.598330415523905
Ni 4.5614047147380665 5.945988733175399 7.600740111345997 1.038664484904263 -0.34388941869736256 0.3104517078642073
Ni 3.7720209039942545 6.608841381715283 9.76339876481319 0.03956747787997701 0.41086279939411824 0.5319812986747097
Ni 5.472942122135782 8.445838899682558 0.09358603140737605 -0.041778883708999015 0.5311338630727498 -0.5881336774965613
Ni 7.8277285028577985 2.3804941223597473 9.519442892052712 0.45409024262418574 -0.6816783809239422 -0.6499918484539386
Ni 5.467709490703373 3.6753241057299917 11.331387909085603 -0.07400020563654996 0.10342211044209286 -0.18000010410814807
Ni 3.0096274337117475 3.681207330768561 2.1942170904631855 1.5409150892837593 0.0976481840727931 0.32302851608795335
Ni 2.2450591219457876 5.287699534073016 8.311769216422098 -0.4053950914113277 0.24958546850645402 -1.5173460437145674
Ni 5.882593033352204 6.365259135568628 12.482990639478954 -0.8258463058248293 -0.255825792989211 -0.5343611117607958
Ni 0.9790969063003415 7.505201369700701 9.172960902316769 -0.25180664452748897 1.3035906975328453 -1.0186211931001423
Ni 3.9068238991908 4.130200566768972 9.49497034884725 -1.4165809112793475 0.01878088015192895 0.06767169231536088
P 9.150468951932346 1.1373956248736714 12.072302496170424 0.8023358814077151 0.17185922016856853 -0.037994219855586174
Ni 7.358864279286359 3.025585565451438 6.9721189101039895 1.014845270997478 0.4546959945289847 0.10018586289298229
P 8.754805803248386 0.040654665029559584 3.9131049157485656 -0.7777895595269185 0.25959245912049483 1.5785210725619911
Ni 5.778553821532696 0.9368269102886281 10.051197211273418 -0.5557794295355719 1.384214836243816 1.5403623021040826
P 2.7343148079731865 8.707005761584306 9.995696929570704 -0.3734725316711181 0.001362170454849267 -0.5392251247213165
P 5.46598077054986 2.923423780895423 2.425073725673332 0.04204936376156629 2.973460494312163 -0.5573141210125434
P 5.05029792718489 6.517126271635339 4.785628083423684 -0.4078327543185427 0.8456191175763823 0.3343215725032694
Ni 2.0032055959526462 2.78454063436881 11.485047895247005 -0.10323056325657705 0.7848246119968291 0.06365254385363876
Ni 0.6798758949548034 2.4176058404940424 6.325078474452129 -1.4315475598915086 -1.9484331405753603 0.47490486537669174
Ni 2.592847875410677 3.042342997907269 7.26803862360798 1.741333609147259 1.3136606801743378 1.3304782659523087
Ni 1.5480410148880812 0.48037043620611475 4.346292444797014 0.8276165103513747 1.264380345881971 -0.9471818062122332
Ni 7.951592231276467 9.22153236211387 9.641638312581296 0.3818484144396392 0.22753980156032425 0.233287759787695
Ni 1.4117788311748598 1.4716427371360397 0.22546693189282221 -2.1864257620378926 1.6653495403114607 -0.6029280621969164
Ni 2.822776950022326 7.537498695149405 7.57414663298445 1.3308757585010433 -0.47191467240011625 1.9164136502459708
Ni 5.069369614039779 7.493695157066027 2.289315287295167 -0.5913149034380204 -0.3721720676921397 0.4881216211772819
Ni 1.797357778963326 0.5438823134589827 7.943848308524277 -1.1722127253077745 0.19807110267724595 -0.5211402421951477
Ni 7.691438436561456 6.669690472280078 5.490412419300077 1.8478569842224948 0.0709544768316907 1.7952984933994887
Ni 1.0843536575828074 1.1754460566397125 10.150907187353644 -3.0402078750410415 -0.9426044712541961 -0.29484485456488574
Ni 3.8585963245855277 8.523863661450001 3.994927285337115 -0.2996744147430451 -0.7345263779629092 0.48734489091225747
Ni 8.359440068784386 8.720166340817503 13.507581697819257 -0.8402974482531529 0.8744589246262101 0.6777214531587231
Ni 5.60276342914801 2.9729153659355227 8.517554762309114 -0.26656117712884414 0.894697363160272 0.8052535692751422
Ni 5.806956879538807 8.226254263408867 8.985946840806369 -0.688766398118975 -1.386687980374657 -0.35149294207623333
Ni 4.544851754558458 8.486082761320798 11.292701754424398 2.100467098487886 1.680793899890989 -0.5631788073234365
Ni 0.9899989963007242 5.5162065969454845 10.179037925464604 -0.2469611435097295 -0.5180387204516884 1.4642687042736136
Ni 3.5091439103277406 4.917651185083049 11.780980620623119 -1.5824124371965973 0.7888504453267705 -1.0841313589878103
Ni 8.082816961639129 1.4635660822252703 2.1289774224762414 -3.096087716927797 1.0519228925760657 -0.1492473963063236
Ni 5.501326591753147 1.0077509075545439 2.8750605110522938 1.1435410684046952 -3.1030386943243333 0.04501924502316763
Ni 8.934490463075663 4.03674744234114 11.4173322538789 -0.14709949672538536 -0.8556806155774425 -0.02511916366513093
Ni 1.8792024546183719 7.967020593936855 2.873088283006189 0.5407559595435462 -1.983212967258707 -0.5191964882052156
Ni 5.072334462044998 0.4965125929944049 5.377902478728355 -0.23375132968767487 0.6513334500834976 0.6152130502118566
Ni 3.117728208472574 5.86037061460462 3.2348871050700354 0.1433269170568306 0.9618661476972855 0.02858346806464755
Ni 6.847981002951296 3.1361400075269286 4.524777224130644 -0.7996380228605776 0.6394714085385891 -1.2963072764975545
P 0.2227409446830079 6.602958156676714 7.109835635236699 0.6160183197219714 0.678586886482812 -0.41379180011545513
Ni 2.0652443433972785 0.17093510524384986 12.081104098242346 0.2059204235183357 1.0374318980487423 -2.547374450210387
P 7.085633553087513 8.486352292957637 11.765813424824632 -1.0458041812728376 -1.0945391845846957 -0.7890638468891572
Ni 6.788665454458166 4.092661315693485 13.428317090522356 -0.3019040754045123 1.2449104100828174 -0.37483495923628346
P 2.4601546623369672 0.8562657628765941 1.99634833934371 0.5216354366640114 1.0715337248284578 2.5830616191993516
P 8.58900666981546 1.3333265364662243 7.59135390444797 0.34145021312825063 -0.4296411084428859 0.8478953152050688
P 1.140853065180698 5.478202636151312 12.372724317429048 0.6066186236746263 -0.1828961947090205 0.510439825058508
Ni 1.7720868644611603 8.165014816680376 5.88374365461567 -1.1142621169349196 0.014095044640485404 -0.7406839129238728
Ni 7.245344989205649 2.2695400299261865 11.804092493772266 0.14256329941792867 -1.0816924105290144 0.3616341442752933
Ni 8.242565574534758 6.102521554817721 12.429585269188077 0.17988029070083214 0.6432257333746988 0.19504542847704473
Ni 8.583857686132413 2.8054525717096976 0.110931786367064 1.2411321739873076 -2.2618411028544143 -0.10631588705012011
Ni 5.238607599390987 5.168566550590574 1.9929336523308026 0.21594695451640228 -1.1863424798409377 1.6167050398308802
Ni 7.577891263897625 6.898494949372506 10.29572467698788 -0.5238198459098398 -0.8074732026342804 -0.64113696916647
Ni 4.5373606338932335 4.622346747246599 0.07777195968047841 -0.49175484705449496 -1.443394689038082 -0.7344934678424446
Ni 4.085486197636968 0.3602847978003663 7.723521066120127 0.27572690278851225 0.24491197429018466 -0.31479892908930945
Ni 0.3478092006925117 0.07479131154482395 2.032436766677457 1.8673513455016808 -0.9392823488594985 -1.9476880348792196
Ni 6.795840572514684 8.429676295666646 4.234039953409444 -1.1969701347581128 0.13757073129934372 -1.0522599642005104
Ni 6.149187704768207 4.763283910729806 6.081327073967872 -0.07450208497363299 1.1566498378725112 0.2771093849583357
Ni 5.924277495118371 7.973935474550909 6.533123438991399 -0.8795749056965367 -0.12232408955291837 -0.5789730940432157
Ni 7.061013232191509 6.459214146492641 7.811382803212724 0.3786134524421092 -1.2595474432697018 0.9374666358069983
Ni 0.9489279513632215 6.268460101166254 4.804944207590602 0.6109229074769349 0.5119778589695893 -0.027392790190656047
Ni 7.170238604471556 6.323119258278147 1.1181101715481865 -0.12596528584993144 0.010751839199865353 -0.19707634286414444
Ni 8.649242343551588 7.307616091509624 3.147406429946761 0.32982008508849003 -0.776022954544799 -0.9570435294976614
Ni 2.4870427666601618 8.787558544221403 0.44815489966789984 1.9130650454887117 -1.3330827934546914 1.4984489496997484
Ni 7.736617515412147 3.8870365593691343 2.1744111622527713 -1.3339189162027414 -0.423380986465787 0.8691285135522323
Ni 2.1981048519697155 3.7381714480851382 13.543765855355053 -0.9929574697854512 1.562454763127748 0.496613460698377
Ni 3.3506035427006946 6.637551148135729 0.5810339966290844 0.6854113656038131 -1.155058067905359 1.7686590364350898
Ni 7.355388250590584 1.159692397176244 5.468702110662488 0.34265014697362284 -1.7314250917842955 0.846605906969684
Ni 0.15460613514864768 4.54263973629751 6.751546300968373 -0.1206688133376825 0.9802942724954858 0.16323651149656404
Ni 2.986085239363095 5.513390456050244 5.812994388203981 -0.38674302352777906 0.5189581469421642 0.7879235626371268
Ni 8.836278711128482 4.6427939748688 4.266551974748181 0.11548161270978821 -1.4211253361169203 -0.4272592384742706
Ni 2.9638256438380175 7.316603577469019 12.131666374474298 -1.9901276921006696 -1.8194972021328792 -0.4144929399475378
P 2.7351977564386907 1.482516944553301 5.870317261423383 1.0993666878803259 -0.9393237436203952 0.6107174763343483
Ni 4.923469350761002 2.646800673750166 6.277060019220265 -0.19407406570271094 0.10947063062901792 -0.2891485755110569
P 5.7940844203311945 5.195594067829375 9.58850526218557 0.7262337989368137 0.7899930435716459 -0.5266979387885832
Ni 3.69721193348012 1.9314637095818423 0.333416211285357 0.3155972566208888 0.05050520783840334 0.2854374452080568
P 4.856095735745851 1.5843441381118615 12.147540858464625 0.5508524245475996 -0.5396935797173028 -1.2063292073755094
P 1.126316945180188 5.770941876340612 2.518988771561538 -1.0685358185423983 -0.1217003399259904 -0.3388958221375131
P 6.907361610805043 8.35611274719859 1.7704975572232529 0.9105173609116641 1.4525897252737887 0.39321911817042604
Ni 1.9589745249280763 3.3572953626497783 4.630690145535894 -0.40930599642995963 1.5268311003868673 -0.1388475411292383
