# total energy = -340887.7816788837 ev
CRYSTAL
PRIMVEC
9.13700099649031 0.00000000000000 0.00000000000000

0.00000000000000 9.13700099649031 0.00000000000000

0.00000000000000 0.00000000000000 13.37292454058331

PRIMCOORD
 96 1
Ni 6.705206235094621 2.0347460960955703 11.431296089133967 -0.2244195107637877 1.8146920674347522 0.2750010803660812
Ni 4.725766404214691 0.195261359683514 5.888659893854561 0.4336617995665048 -0.23954479644100035 -0.06168770681778408
Ni 3.1020025994456497 1.6814456901657593 4.890117290542099 -0.005399830859332635 0.5447360272372166 -2.0545749639414614
Ni 4.018873208332782 4.7666270713292365 4.983513884261119 -1.1604740967146079 -1.9466074002205314 0.05626602158158051
Ni 3.6968944407904174 2.9858713205937115 2.9236958582544768 0.6789273005413663 0.6001309590677535 -0.4771514953190234
Ni 5.410429277402126 4.752300254237196 2.7575906677933495 -1.8229339957285702 -0.6274910962482613 -0.427442043909038
Ni 5.596449474581246 3.2439915902685543 0.4006163640364014 -0.35956003535508396 -0.6074154085443086 -0.42617783248463376
Ni 5.781153943660076 8.149126455155345 12.26948433022365 -0.04604820050831424 0.2620056965476778 0.18032200622394107
Ni 2.2135023777210088 6.651206560978575 -0.17744420832542745 -0.1620499473876306 0.25759445485385957 1.59469459699806
Ni 0.9012609568973096 0.6346990122790118 0.29619780637724824 0.4027357994116096 -0.04233269932994 0.5341410253301897
Ni 8.159634005956269 -0.1936002529568985 6.898315831114121 0.2758657423592216 0.5801162065087234 0.5488451643095837
Ni 9.024798327902165 2.717855679164608 1.355760041440843 -0.32074794758389275 0.5323348253593864 0.3435109523120213
Ni 7.103086067422435 0.8743159418434647 4.945801827586572 -1.1875796946821482 -1.3608291103300243 -1.9323390632269755
Ni 0.895215917236535 7.975541715924101 2.4537305726320544 -1.131960305545631 -0.9040476940269205 0.3492643098560307
Ni 7.894076217714511 3.9479518089269017 3.5992153348449696 0.08819963706538358 1.342325652209198 0.07979521505177226
Ni 7.975550852924798 4.263507264979658 12.797955658705611 -0.3878830506694933 -0.4234303516464836 -0.0903616777137089
Ni 8.467669710435844 7.35094548531516 8.957772945593252 0.5219354844029334 0.46601450486559737 0.38637175623128944
Ni 6.988352749677054 1.0737163628424726 0.28894851002468114 -0.2378283279705259 -0.7812618343462352 -0.42142540540131296
Ni 1.8985956487177 6.736436503475103 9.224642807135021 1.1574944452609937 0.4679176354255812 -1.501169433954705
Ni 0.4446347785916412 5.524130114068807 1.4462684292397137 -0.9364315096742646 -0.6083134948785459 -1.3585431425093246
Ni 6.660270465669457 2.1104735578677865 6.9394780192516485 0.7648126876512763 0.4606139026753164 -0.091801495484029
Ni 3.659396189932168 4.636123290381774 0.33478884251879404 0.23678754541083735 0.15407155716784435 -0.21565050632190602
Ni 6.143737542297485 5.953523461798692 4.552022681171327 2.2463594622790475 0.34236938250841037 2.1797059268155556
Ni 5.775032153193451 2.9771272109272044 9.080416164841555 -0.5436458794968315 -0.4181670463650153 0.21492776922326853
P 0.5706760483989541 5.706239674949844 12.249518156301757 -0.18018059555007032 0.49054977100280034 0.20537766364098825
P 4.2603184517365955 6.372381847725565 12.402196524239445 0.8122078891057882 0.8642421319942083 0.22864151926493526
P 2.5742585762191266 8.430884145631918 1.391064498431874 1.0456576283926444 0.44097967338415667 -1.5935304014866298
P 6.550690416316877 7.951904295122373 5.688841911923725 -0.7904974940118902 -0.12464785259008854 1.0384657386298954
P 4.896134919200783 1.2848724489375392 12.592012231507871 1.0617632757052555 0.30789191755683104 1.4784588797310667
P 4.111175189368367 6.389760423050221 8.410044474443444 0.46031565470860725 -0.015516093357728116 -0.03189916270144184
P 4.940668660595303 1.241581339637737 3.574917308892888 -0.5740872267058242 -1.551803968282121 0.1821631731977379
P 0.325222402789606 5.928743915909907 3.553399672252737 -0.9201818805846218 0.25691799761212525 -1.5737848434285864
Ni 0.8196858146793625 0.39130576032671416 4.4577169558830105 -0.9951390508178023 -0.09358969773270334 0.23979187945479993
Ni 1.932238085282046 6.782148917959465 4.537794543686808 1.649209954437121 -0.2866846873515966 0.5343729388353378
Ni 6.1585943054299195 6.095786562642491 9.65796597886445 -0.3158790495273657 -1.4226392016582852 -1.3519670319537038
Ni 8.914834524520334 2.364765424250815 10.16108213041375 0.19281242538146792 0.9793429643258101 0.09631172464955672
Ni 2.549826236356807 5.5496771680160935 7.1011033382713045 -0.93070771981661 0.1383916845387423 -0.6342155594562884
Ni 0.8805537722189343 0.2256939679031954 8.866877148964852 -0.6722933401646163 -0.06703174473851681 0.03465127152528226
Ni 1.5885498040849053 1.280166893578865 11.505288434473925 0.10363294090131829 1.2803001024360208 -0.9188863017016498
Ni 4.165713946525504 6.691071295017206 1.5438506829777794 0.673386316118479 1.5891412712799986 -0.58047307562751
Ni 5.827387167184136 8.08548724530454 8.017401970914838 -0.471136399473195 0.08266405195913507 0.1336773097822085
Ni 5.7429430067475025 2.9570440833963967 4.5379544411989965 0.12498209600105571 1.0840058891535396 1.3024668683410472
Ni 0.803909869276864 7.361827653144637 6.432456713604685 -0.2871120046970023 1.084586701357674 1.1837088988728324
Ni 5.693319955965058 4.590575341909948 7.194526429292344 -0.6146268386910834 0.31977452792702993 -0.17487229596327947
Ni 0.9197761751086051 7.666446119363737 11.057643014152802 0.041263377525161196 0.4501554263461538 1.254751050322323
Ni 4.764123533138408 0.9031870366441221 10.593321653860581 -0.7420005748527673 -1.4092334697753406 -2.018221107902776
Ni 8.117558117749095 7.690184047173127 4.313222599469138 1.4384211470828905 0.43118377033965744 0.40111291909620594
Ni 7.312149780358013 6.278681905583423 7.147935035340982 0.686936801109404 0.4277382349932182 -1.2614315476662923
Ni 2.4901616218089586 5.398925793525289 2.5222133065520516 0.5653968980206778 0.021960049210858954 1.084665120004093
Ni 2.7958034321060623 5.341170812122999 11.125456919621818 -0.4849838468792486 0.5234889449329823 0.30087486280904957
Ni 1.4112645795715961 3.589964121639809 4.0680567693817276 0.3044913765157143 -0.5175304133567022 -0.6077720205527791
Ni 2.049072913187611 1.3097068168305028 2.4177974899931076 -0.613396308718092 0.3931700101000455 -0.35945436301515515
Ni 1.4341436293155183 3.4690907394264108 8.133332235751455 -1.6631692448306905 0.8777872176684948 0.1152314443721951
Ni 4.365658932766022 2.7348139524572277 6.540897378970417 -0.6082163071790493 -0.21728932747690965 1.2356873488226525
Ni 4.448568077085651 6.708815350369721 6.146529809710321 0.5407541597713332 1.7065866925843771 0.86006666046028
Ni 8.83051828209345 7.826983221600445 0.13558303963462057 -1.0066419092510792 -1.0640492435259545 0.04457418706594904
P 0.3346929040114813 5.70568231790736 7.766901046120769 0.3549256219068661 -0.040790037433168454 1.1515528829655781
P 8.555951411164989 1.834481314830678 8.036926827703091 1.3449579476257225 -0.17099327262384742 -0.9380572182031458
P 2.007526971020832 3.5274578998753627 10.347339889610979 -0.43011496275551087 -1.9203188988376474 -0.7092519196668366
P 4.280931525307798 6.469380247119127 3.771365564966871 -1.8797831435071306 1.119603069531859 -1.0268911464184187
P 6.996448132294113 4.090132676764432 10.376880726562684 1.4051760118765155 0.605842150519918 1.2116223374536488
P 6.822479639033617 8.053160536840483 10.252325133068616 -0.33517003654649374 0.1749946804737567 0.5287201114249346
P 2.443855302279326 8.844223783138132 5.768343868683647 0.3423763244869458 -1.0939025794419612 0.14318627771390824
P 7.008198315189753 4.394129826936174 1.5657283174453704 2.318123065275595 -0.7629527516244022 -1.336373548390821
Ni 3.1720742577867598 2.21231456763047 13.34346383868618 -0.29978600062024496 -0.35922527772348456 0.5895742665978299
Ni 1.8150469143493189 1.4646246636388909 6.755854457355209 -1.724374355585101 0.5904898364335638 1.408834434564709
Ni 6.974035069585709 0.8414346174371335 9.268372492468252 0.5009354851124985 -0.5528134049287124 -0.3922156166065761
Ni 2.941410675204763 1.8197616067086895 8.919673480089177 0.9673816781988759 -0.5299534696114034 0.7871298630912379
Ni 6.5058186058965894 2.1710244614831913 2.4133980241577646 0.3650740231947777 0.1561685489061891 -0.05358898897004964
Ni 4.322742440494774 7.502692792881878 10.341710583481891 -0.5490122860150674 0.12083079283684353 -0.16987561407963647
Ni 7.915584717353966 6.369686432520111 11.390789023946375 -1.1182146738247645 0.31767702196805286 -0.10139890936447697
Ni 7.922985687918095 4.087848426590318 8.440695456979771 0.20667169986206343 -0.07204770989586946 -1.3484813873979486
Ni 3.057048556019093 8.714295633234547 12.356060152922767 0.9224675912950049 0.4268766583238713 0.42157735759814496
Ni 0.4147229794116577 4.98147450570567 9.990082248679533 -0.2956879192914714 0.03586200400393179 0.6875911468639513
Ni 8.5651980558698 2.4693475342224347 5.512199018559377 1.4916674080015406 1.1795485968475556 1.3674458443155935
Ni 4.02068233447068 3.17135243473174 10.868763849455762 0.3999605506593177 -0.4899041669990014 0.9946623682916997
Ni 1.2482422131454527 3.6789493714225805 12.837124153291173 0.2509067584210389 -0.05399548037984894 -0.9049630067523382
Ni 3.155353546512248 8.676267436335902 7.859147291452105 0.612184804908494 -0.6883650489154983 0.2382913836498735
Ni 5.946323505249886 8.014017625856871 3.1355893003057473 -1.1519737725530805 1.5399267572285609 0.21046150592179882
Ni 3.081389525874448 8.572452834422785 3.6817133141332583 2.170608335389662 0.3234110962383527 -0.8802919863682196
Ni 3.88393798204754 4.1764681963452315 8.666777747412565 -1.244480007413618 0.9918441821166144 0.35283325815421174
Ni 5.590519561129247 4.725410061187529 11.845789729828144 -0.11402122611417782 0.06944061129032558 -0.07353920683973142
Ni 8.10803736302339 0.36365628251917276 2.2972813645069405 0.3607180602189272 -0.7263746953900523 0.29147028166569805
Ni 4.579802818088829 0.37687112662645506 1.3766755497350975 0.14781991983117768 0.0830664296038763 0.21298967166029126
Ni 6.504082575764262 6.112269711898896 0.3351817335487416 -0.6294577330563288 -0.6876952765419835 -1.4162417827723737
Ni 8.371566737110534 0.26630702229886655 11.390080906392399 0.07349626941693795 -1.1116555325500082 -0.02590592123248442
Ni 0.30477745003121914 5.167768812905683 5.493637201644528 -0.4651467575486634 -1.0182221578895108 1.6481334335434907
Ni 7.446472827596593 6.36657071528262 2.5281779406066973 1.101544412257935 -0.6839964875341574 -0.7845315062364424
P 8.865933296792909 2.060521575060269 3.43821864147323 0.4994625001113978 -1.4617621358016761 -0.15028715042474763
P 2.121867397736265 3.547376561393634 1.509348454647897 -0.4897889815773758 -0.7874437947872309 0.23057036085653196
P 5.086394684703058 1.1498824006481183 8.055381741709791 -1.3490825113170573 -0.8749818870092156 -0.09364394800940647
P 8.688821675292832 2.099335554018808 12.577181965677456 0.1976926362919047 -0.24109337187504287 -0.4600364329052916
P 6.6301549113739435 8.062151345525795 0.9648782379464445 0.7731127228765394 1.4047954886086451 1.4132762723861467
P 2.379174474349124 3.611902060311997 6.117377295288213 -0.2664238802200315 -0.8586726083262307 -0.8569977917269691
P 7.348460221125723 4.356521932069566 5.894143007972503 -0.35853262253183416 -0.6354072657715445 -0.6200786058342741
P 2.620044086709061 -0.15946350465487438 10.13881617341656 -0.21701190544580692 -0.16413511205143347 -0.08033643226722294
