# total energy = -381168.94644687156 ev
CRYSTAL
PRIMVEC
9.26992297764378 0.00000000000000 0.00000000000000
0.00000000000000 9.26992297764378 0.00000000000000
0.00000000000000 0.00000000000000 13.56746929595401
PRIMCOORD
 96 1
Ni 8.708620016330299 5.001763154350393 0.29187279973066743 -1.015112922836568 -0.4816419269902092 0.17175740448338161
Ni 7.6129985314491675 4.681885916838289 4.960090214910985 0.2968302604260307 0.6857736340392383 1.0238611013428431
Ni 1.890591552825697 1.4280409283906832 7.406522117594091 -1.8891255039539787 -0.4050024839585993 0.6916902566339894
Ni 5.024863802795062 6.735674466400898 2.4312366446853124 0.4502451578464826 0.5098289309473865 1.7328841928283252
Ni 3.338636975334997 3.714782646257671 1.2940367735807174 0.795227809608024 0.7204935540189269 -0.5214919691076114
Ni 3.3176127896718723 1.2654093969648166 1.41040675361689 0.6331822330957676 -0.21259320755282093 0.2713339159271391
Ni 0.23391724031009534 0.763189990471509 3.2976138575071343 -0.17716931952757228 -0.6731675152394535 -0.5811338491399604
Ni 7.094049694679739 2.218440924231227 9.642278331243375 2.4359400109867786 -0.8287915044960822 -0.20187710668689748
Ni 4.035559066313569 2.153783210386299 13.066802998379952 -0.06265752693022113 0.12996232282446651 -0.4337587301556853
Ni 3.0761312920861554 2.851326386214707 9.502547217922528 -0.8375929048377961 0.330095964457696 0.21104360367751396
Ni 5.201446568534422 9.584451623754335 2.603122340373744 0.9178838285790644 -1.859671717469236 -1.307075313647336
Ni 1.7222590186737188 6.80162996948429 0.7339359670518927 2.335066635108469 -0.9482647548637668 0.6861040207954635
Ni 8.113546570801796 2.0671465087956613 0.519996338083332 -0.8394862652057671 2.1424899798868906 -0.9933030260503279
Ni -0.1232547519462269 0.1699686755847568 0.7244389308032719 0.8964261729259208 -2.3683135700870563 0.014360125376413976
Ni 2.261175269869237 6.583712616499836 3.182169015799524 1.2147439138017662 -0.012123265626095251 -1.3716573112937795
Ni 8.274361197293812 9.1504987121812 9.799878148393251 -1.775638038856084 0.4339446209142461 1.3099361801348988
Ni 7.7274450024354735 8.857050025518111 5.897942243048926 0.413563743265049 -0.9035260171954954 -0.05360930068502381
Ni 7.076789097808161 1.2751984357920918 4.206838509029175 -0.0594665307967492 -2.8061878650730128 -0.7454245129326518
Ni 3.935036019871361 2.6103176547087164 7.2547020975169465 -0.9655785635518661 -0.2964098850591605 -0.2992730655395685
Ni 3.4308634405741643 5.03996450757691 6.229164012489838 -0.6462326385218226 1.0544490014320291 2.5778289100455023
Ni 2.211970517885168 0.6180841757187925 10.498182384910786 0.6307944495898814 0.9894371153370186 0.4584701168594362
Ni 6.995046915631161 2.973689371555646 11.878387728963983 0.4217143973966414 -0.254106239194943 0.409368731347095
Ni 1.3914988914047755 8.26399742323236 4.421990643943387 0.10477245382240019 0.5994521878331741 1.1587545429203399
Ni 6.23311485372865 9.315531153698226 13.75510776881512 -0.22410043686147213 0.14841641576459602 0.021615521387246643
P 4.668954374069303 5.673869661104898 10.875398731955194 -0.04431861941171722 0.4731590863301786 1.024340869192739
Ni 1.214211611507392 2.5349717194927197 0.32420165665313144 0.5077987878912352 -0.38229912882381256 -0.6540637045304671
P 0.7934108668737814 9.176519386412414 8.839206350481538 1.335489603123971 0.7616155208702173 -0.4248434299439263
Ni 7.713688436507749 8.214885370479609 12.059906728771074 3.0466993963026563 -1.865882217155322 0.4280128288108435
P 1.6401923891871024 4.7692734822026095 2.142127209040261 -0.09762581547528994 0.12661423228784 -0.13737507034876986
P 0.22677939949854056 0.9307929816730076 5.656617407164139 0.6356394363870085 0.38602028642914166 -0.17612673719567085
P 7.352652740290056 4.370435039453071 9.642305214020455 0.6741756447889937 0.6729019202828926 0.7882524067314554
Ni 2.815386894232372 4.566577343000717 4.272247086647786 1.1416888456873047 -2.0637648579708454 -3.101569823088291
Ni 8.246810985745837 1.2032545623654989 7.570919569376582 1.2182480703002825 -0.6543575816218021 1.091595014354707
Ni 0.21454217397213346 2.1482027166609017 9.363996165816369 0.8325481433250371 -0.2403888896088505 0.6376886056065534
Ni 0.45128952181439463 3.4193501960443577 6.711813684259414 0.4807626097090495 0.11618712341724506 0.3084434191849269
Ni 0.5637160765502616 6.041347953899255 7.177232422911435 -0.0355339312405517 -0.4360202724963523 -0.05617526163998713
Ni 2.1096769161247693 8.756137642304365 2.043084569322216 -0.20011230147699083 -0.017545207972614944 0.3961247218529952
Ni 0.15482347517187603 4.572964320038589 8.901901621599444 -0.5738540276490955 -0.8333171602805778 0.9789367300263269
Ni 3.367512785890833 7.530644534345463 7.627970384299482 1.1332507422222806 0.935358331214744 -1.550224282499827
Ni 2.4799639956280886 2.4709814401132877 5.314377407088664 -0.70162885590394 0.19700640885815748 -0.103326465404493
Ni 5.813632292164393 1.2187446039188858 7.712347078630565 0.6269033420655914 0.048734746201541876 -0.5064271043546891
Ni 6.777055403261651 7.0724693136287 0.8756146912227496 1.24345645124511 -0.7680067691085418 -0.42102148509467496
Ni 9.163365365488263 2.7486527176059012 4.421176744692407 0.9176840538634323 0.8128961734220645 0.26543683371641386
Ni 3.3970745707584276 9.416017120447906 6.118534895849244 0.6210304282245821 -0.3006784305275273 -0.02178212887209797
Ni 3.774898097767973 0.5614820250754763 8.694997864287988 -0.7187539456200008 -0.9089844692069056 -1.2770450858338331
Ni 4.062293524625938 7.116075032041108 5.06598425481581 -2.0217028958037893 -0.18754474922462538 -0.10608885864097857
Ni 1.7270052193172458 7.227601477240869 9.186492896710014 0.12420176619160547 -0.6439518129074459 -0.9040037281628625
Ni 4.317911654987786 0.0419473291641124 12.166370868948508 -1.454747652157056 -0.395356476228403 0.23434731140046094
Ni 5.064715202339054 1.6475805179232181 10.162617656482587 -0.3425732709891003 -1.8011585517246917 1.014937316490652
Ni 0.02256206591070544 3.5061259464819736 11.520993258552494 0.8549362812122502 0.11722070688808199 0.17709552886684338
Ni 7.658801221643833 4.589835580138628 7.330530995728115 0.23601904267592902 -0.5292384458222499 0.5752725052631769
Ni 7.376624761509121 2.4690162164093272 5.976090476027693 -0.9608611034715387 1.5655853383369296 1.0740017267529762
Ni 8.906087918885806 0.9397013778027533 11.878197695539779 0.8951506486476066 1.469293925402347 0.2727534219824851
Ni 8.029783545382044 7.61325808929686 8.138107232139737 0.7235199995500765 -0.20038483841208715 -2.235950351130582
Ni 7.156695835205047 8.073222405178077 3.222504305331001 -0.06443827297972773 -0.11978898183589047 -0.11452233412031244
Ni 6.34346401869066 6.875798624462536 5.341227739440181 1.2600871178232556 -1.8012061171331755 0.5189936281657901
P 4.059855534842251 8.026001416744233 0.9234780853296337 -0.2766357877560268 1.6825743888301796 -0.3807230425859443
Ni 5.644956770856535 7.269724007952174 12.219975126450972 -1.982873324531101 -0.9700599963619873 -0.13257070698159104
P 5.846614678667656 4.48843189099889 1.8061017654324047 -0.45672562336450373 0.19958779643208852 1.4968597508357575
Ni 5.475715784237632 3.613573625503703 8.824580265764043 -0.599245985359639 1.3024054189754926 0.05950818266796203
P 5.0927567198130195 2.1153686489277495 5.307865286088512 0.006801853413181834 0.02061921891224836 -0.08710588978057257
P 2.1372920171346674 4.644333458231005 8.061329093799863 0.2182262374688822 -0.6603245978385144 -0.46214730860070735
P 8.3486874409653 6.6796099712992305 4.673925833844936 1.6144609809917099 0.5579319571022003 -0.8779355703209009
Ni 7.843179992737111 5.450974359398619 2.682058516818721 -1.4627173006260936 0.18005589704674796 -0.32152570629018173
Ni 2.0634199996966416 -0.09195856446065534 13.046695608114572 -0.012044075648727644 0.2619733006478456 0.32400604950987427
Ni 4.496709932355667 3.06452534832503 3.2941682270790107 0.35315156072557885 -0.03933864969862257 -0.2643870522956608
Ni 1.2277549692030825 5.711014243094378 5.010411992632447 -2.7739850550882226 1.4603513714970786 1.0504753614962619
Ni 4.082094080435653 7.8463966560638765 10.055801259226138 0.4752609631645299 0.28380659447285317 -0.34214621075401075
Ni 6.541108049785672 7.064348860965166 9.625834414599714 -1.4022130725934496 -0.32388469344066156 2.1166100267963355
Ni 0.7310706338118256 5.877678191082617 12.150605510678103 0.4166565232577598 -0.47211727532922565 -0.4762896615393604
Ni 7.28408311888347 5.626648672671054 11.683232672229881 0.8630961913152231 -0.6222817841331799 -1.0115933397190835
Ni 5.853168514321901 2.0780757481681587 1.345522853647544 -0.41866892570209835 1.9760298192467067 -0.5132644389914968
Ni 2.9782038241208766 6.923761206746931 11.887776307111958 -0.04604177275041103 -0.5763976200065557 0.7608894413374703
Ni 4.10283089848169 5.931378855785652 0.510771837574789 -0.24640629944752404 -0.5356836872269612 -1.4052737137966445
Ni 3.8037553684775447 5.727978202425736 8.888985837699783 0.9323198014987362 -1.4283707048254237 0.1502470412154316
Ni 5.607858538482715 8.801977412191556 4.8021242357973986 -2.334358296187535 2.648224943270562 0.4667657812093252
Ni 0.8183135883752889 8.318875368173144 6.852345718938857 0.7723246797576053 0.8071618420414486 -0.17545053706425265
Ni 6.020722374930801 6.089542284261947 7.5270153594393285 -1.3672828363751677 1.706592863231964 0.6272183022028487
Ni 1.9810845424392007 2.554151190452599 2.7817111174788445 -0.5561249858004487 0.021652288162453032 1.1738502609111978
Ni 2.902728109981034 4.297684682714003 12.49690110212378 -0.5330470209350626 1.5190871947753903 0.6110036401161992
Ni 5.419975736445581 4.097046466447391 6.4937025898815035 1.9283242856406273 -0.464072036427246 -1.3139201044833115
Ni 6.036332925484903 4.673524446173325 13.289051259451625 -0.7158776525134704 -0.6894361704924901 0.521214804186825
Ni -0.025970616646301146 7.308342507719624 2.536601371979306 1.0083956587173923 0.21744205100469002 -0.431872825986882
Ni 3.637823744416725 1.0159743053319388 3.940956719775699 -1.1603090318916536 -0.923619445511261 0.4372243201067825
Ni 0.9347512388503243 8.135228921007284 11.058545530264245 -0.9160550029004417 0.15503057864700398 2.119210697643976
Ni 5.225131222136399 5.161103863064439 4.238708504756611 -0.06774856829988332 -0.8527680699163378 -0.30967934847455697
Ni 6.950375156058587 3.2290479440698014 3.35595411873768 -0.32035791123432567 1.7533992820625417 -1.675249573033992
Ni 8.904660350723494 6.501330809626735 10.169496866438761 -0.84204759817504 -0.4032032259663314 -0.8797019181927044
P 2.143651184403144 2.433364092044081 11.81525769845119 -0.7798796092867278 -0.5724561188603045 -0.5948522271673176
Ni 9.137567169412215 3.5443551094778853 2.131666100785924 0.051177294204763475 -0.42285056788361364 0.3010820937238492
P 6.213101089686901 0.07898159906832347 11.356121186705652 -0.31678304939887375 1.3182009912468524 -1.3734190311798928
Ni 4.743058139585627 3.476527081921851 11.391342259645263 0.23577427365497458 2.085315330448112 -0.6908397357082361
P 7.563376632924164 0.7369588889852018 2.156888634635482 -0.6975099486395601 -0.02873670581306019 -0.4255486835410671
P 5.493755054652288 8.462206919638417 7.011654909914254 -0.45803894285928864 -1.0436290279983897 0.09329067843504578
P 9.180375674435279 7.1362741945454955 -0.012355880542495288 -3.312250129889115 1.9855236176697546 0.4354332896446308
Ni 1.9194673633815322 5.02352893386407 10.426803976795238 0.8318863413713221 -0.3409979560821805 -0.8254840373894041
