# total energy = -381167.7535531372 ev
CRYSTAL
PRIMVEC
9.24144516069132 0.00000000000000 0.00000000000000
0.00000000000000 9.24144516069132 0.00000000000000
0.00000000000000 0.00000000000000 13.52578913226235
PRIMCOORD
 96 1
Ni 5.106147843525771 6.858279595265086 11.58215968993239 -0.9430256179520146 0.40288003829895774 -0.16770894544562084
Ni 8.934767581201223 0.4676448378557692 1.334162452822465 -1.4257391807398478 0.2902973444035194 -0.9270076452572035
Ni 1.1916935653289191 4.675690580073329 1.230527965218995 -0.4099418302417456 0.33894467309757753 -2.1406752952756554
Ni 2.47629137655164 8.831623814323603 5.2465050608525265 0.49061764812625824 0.277869917273444 0.7391139973335915
Ni 0.20347536206266367 9.06609775511914 6.260560495857556 0.3944002829627207 1.0278365410508234 0.32731968726413946
Ni 4.201585972210621 2.436506956122632 0.2789816637289043 -0.616973227436073 0.2339927562745196 0.6051032154713644
Ni 2.7610665021079415 7.198826840981448 11.277802866711275 -0.7605911933707611 0.5871301759327113 0.32384612689324227
Ni 8.844940736469526 1.3206948951241622 8.456431315704497 0.17644941064241224 -0.029267638615865718 -0.07383462659296317
Ni 2.156176965578259 2.6163362330397204 1.8568336262323437 0.9289817382644388 -0.745167402616523 0.5789985479645126
Ni 1.9162875380530122 0.1204197240320893 1.3475283546265238 0.993007092076464 0.3317427560324996 -0.06785424063981217
Ni 5.17741786683553 2.9386963151313936 7.064938635106563 0.8639924778772476 0.14509635025242754 0.47005679325577115
Ni 8.547569521471939 5.7677798519332955 2.7763980592488764 -0.7693380863254558 -1.5132883287054262 -0.01892126238453516
Ni 1.150726239948712 3.571827707370959 9.723838191066116 -0.5584724029867028 0.006891584913510712 0.8560246291804225
Ni 2.3117659324406925 7.40630652113282 13.526194666391465 -0.5397372884710446 -1.7208763697341716 0.24475693676955912
Ni 1.494739027514291 7.534901227351089 7.3180202252711615 -1.9820839958605863 -0.5347115531216792 0.5845757849419739
Ni 0.8854228388625427 1.3844146579250933 10.965059432215055 0.13760775518486626 -0.12620516977487944 -0.25541904446909564
Ni 4.0442965794808385 3.3387584662049714 3.187081402981933 0.49269329970836445 0.9607865414798614 0.08495824730995045
Ni 7.404384300587122 4.401108768276191 8.966800277621903 -1.3382890202459792 0.2624042175376771 -1.0458193507814892
Ni 7.0900457926957685 4.651182268115669 4.377161412025857 1.008334980682786 -0.18338804674377449 1.8234230195498466
Ni 3.7025941531480697 1.668358053437583 6.140221172396369 -0.38036797323937077 -2.7874671487350575 -0.5735683780878768
Ni 2.6819874578312817 9.307059190256412 7.754442841426721 0.2988287789132983 0.9141148484549354 -0.18035337368250876
Ni 0.6639414454958421 7.279606311125457 1.8507878729583234 2.6608385182695145 0.33916861618292554 0.9741570492494964
Ni 5.021311379056946 5.047011837410737 7.8816661172171925 0.5138555356082763 2.0331946984934723 0.3022789422454278
Ni 5.479955049549682 1.6090557013137865 2.5410221534280497 -0.724476707036391 -0.7498558092311279 2.480397984189838
P 9.14622108267303 2.6072149268925817 4.505535247710268 -0.6921497127689112 -1.5133088975307163 0.9739693587187227
Ni 7.542174244511978 1.776501442023007 6.343946977616669 2.176803665567096 0.06769766045728985 -0.6930295442707032
P 8.322863787968727 7.857963659257537 11.702729125372366 3.567813927466191 -0.3907526589078045 -0.6587490258212784
Ni 3.306459616170271 0.6092542709707092 2.9779327178759782 1.6989836834261385 0.0026361520712664273 1.2755685012883062
P 6.862502935598664 2.12455274102354 9.191787875195518 0.2798226701244406 0.11568575830079432 0.0017547779075776232
P 1.8875189199820481 3.999623434683202 12.418202716093814 -0.29355107545412673 -0.6292816124897808 -0.2913126730419112
P 5.8301226394394705 5.419913381831386 10.29100137695298 0.9945037312266485 1.9872673398337386 -0.26279785343166995
Ni 6.550031199583423 8.50890331587961 12.42515505511559 -1.4613070505421284 1.7441669648309963 1.7076344171226008
Ni 0.47914766436168926 5.720029305973554 11.998714123630268 1.8899497996274868 0.06977459759097661 1.0202021644340173
Ni 3.0468027379370928 3.717214119029299 6.12799381660784 -2.076639914161301 1.2713143539976426 0.5878107469395037
Ni 3.0255474145952297 0.22313561200939336 12.849296715102017 1.9129429180885507 1.4271363181976906 -1.64799665085531
Ni 6.3037928993904115 7.259145752047681 8.071216470057458 0.8046316194204272 -0.18601005774765383 -0.17519394096875635
Ni 4.8801205833973915 4.732802709748421 5.535523857921256 1.191158413172342 1.4613363611181671 -1.5208085483418712
Ni 8.221642241636804 3.2385719617053486 10.672916102615073 0.6120539357575847 -0.8843211621322706 0.8953694495266322
Ni 8.823519067118902 5.742901882178384 9.954520367006365 0.32054174511035766 1.0530438935543867 -0.5864202943498804
Ni 7.929409270020988 8.255447447195296 3.0973922557797113 2.4028589121620936 -1.4193358483166654 -0.492566544322513
Ni 3.651738481691431 7.567856219975907 1.8426720360197044 -0.18221099571653782 -0.9717666946404491 1.4965103379161389
Ni 2.1684403630020204 2.233250616304839 4.225794861352509 -0.04825446413101367 -0.8282939960343735 1.3971937650019872
Ni 6.022677386026883 0.828628614893086 7.6829593407390515 0.8459628740690464 -0.8532349822504274 0.1640834328778916
Ni 7.380190197757123 8.406009068015134 5.972541623130388 -1.8150147408814936 -0.6168271887765119 -0.3697945685988986
Ni 5.255230833156609 8.8575922745804 9.578462869141694 -0.5237154591214916 -0.1392925990864569 0.15843163390875295
Ni 0.07619478931361838 4.61733085533252 5.4481746445756265 -0.0857599172756394 0.04921297138954105 -1.2378761289438551
Ni 8.574073985534747 6.25573738574794 6.9019260155308615 -0.7793908425757674 0.8375083155437899 1.105439119326651
Ni 0.9090615308521731 9.12646287341003 12.898773562974915 -3.5271089935476616 -1.3803671803629516 -2.041089270750201
Ni 1.0475270244015036 3.9904281969766133 3.445815985010974 -0.00789997157336704 1.1937246312376215 -1.0808357189556739
Ni 0.06748287917693413 3.853534673210088 7.510045437064014 -0.05707540485675332 -1.1808295204425083 1.9071723341533606
Ni -0.0015895285281740668 7.0053941571255685 4.6534122287775785 1.000098965926239 0.5500882926880655 0.31153902739111505
Ni 6.013177180637563 1.9364246465581945 11.232342350805496 0.4265496140017557 -1.2054586318450982 0.621518166494278
Ni 6.065188032710608 6.014470982927938 3.0110438909201345 -1.3728618731248419 0.8728836097192902 -1.385202396968066
Ni 1.0575817164866979 2.187117323208066 13.496167363520865 0.08124454590378911 0.4617300185576306 -1.0965952957827758
Ni 0.9446420179819579 0.1890716459928259 3.442285753047239 -0.9109161390119797 -0.12695130391228457 0.7847101979061518
Ni 3.451578025925605 5.1110458093393305 10.954171161797062 -0.23263649935694128 -1.194059388869221 -1.66072463994494
P 4.963071793100243 0.5684856366565237 4.802074732664044 -0.3082408162558175 -1.3310577926048626 -0.6483262878260576
Ni 7.947531743531159 1.2602281209390287 3.2233032463899463 -1.5706671237352112 0.5275446030595947 2.0812419317096866
P 4.745805422766682 4.756784259345001 1.3419114043973133 0.5839872594283556 -0.7145563625988854 1.6120166332162755
Ni 7.3925737339649915 5.985286499835068 12.068114602630436 -1.274014269427309 -1.2885296894346647 -1.2576509975779373
P 6.353151456768189 6.384803405657701 5.902721582530343 -0.07877140177294821 -0.28910872341205696 0.14972870681811634
P 4.704607061263194 0.1981513656377737 11.548738004338544 -0.37976119289330723 -0.12836798175415312 0.06475066201382397
P 6.628001270468333 8.476170117933142 1.2729434250199283 0.6981560668639912 0.0740570270164144 -0.556931540862144
Ni 8.27389337127806 1.4472842077923502 12.424911080969405 -0.8457954952532466 0.28077706361791 0.2923177172676579
Ni 1.3446764447207418 1.960775853952024 6.512937887918394 -0.9107996680387733 -0.3924876393210402 0.32977740477601275
Ni 8.33180026521724 7.35455442951785 0.3653679185126993 -1.1229961543738078 1.0505206129119005 -0.7697890578199452
Ni 7.592373773378498 9.164713213980452 10.179982050704952 -0.2896440270902367 1.546941240873181 0.5393529085484324
Ni 8.26296998336933 5.017097280168298 0.5262947439674197 -0.5495694440701181 -0.7243507229814881 0.7914449455268241
Ni 6.544560264184127 1.8932948230640758 0.7644495522790717 1.9268831823187267 0.17707264604870793 -2.689533572211362
Ni 2.8314493467043 5.415921077621089 2.5574155525915843 1.666432231852678 0.49774320342744593 -2.179136427465331
Ni 2.3037351167954414 5.381154761789747 4.604841042507943 0.24082520581532074 1.3992251936097193 3.0667791977716665
Ni 5.8304091242323395 8.321144879211515 3.265923866268353 -2.9993705293097053 1.3671784495868196 0.7232366639817028
Ni 3.078158960588805 3.9323919228083972 8.57260459579068 0.32132953111897566 -0.22691193816833824 -0.5403633520908178
Ni 3.7158648680693376 7.001281714131165 8.933770429293142 1.8543551903523288 1.1952575229423803 0.4579546106755984
Ni 6.547877942914443 3.7837247981994664 2.342315376949908 -0.3703195878644332 -0.42825451250800434 -0.9274473038977834
Ni 3.3643757515543813 6.512233689814633 6.680468649920981 0.5551392248484117 -1.7647177923991544 -0.7322656069531904
Ni 4.689626679029647 0.09259373334411189 0.9625842833159692 0.5504533893369681 0.5595880046483847 -1.067533088309497
Ni 6.052961601066571 2.384394448155344 4.765676377657845 -0.5410724623427005 0.9593899182426511 -0.5294922137042687
Ni 2.8316618999377186 -0.04903603094967684 10.083678801365439 1.3325390051360793 0.9807169618552014 1.2094163309412655
Ni 3.2766282319322135 2.5908298450294853 10.799733678973062 -0.7524387394669558 -0.1973725339483246 1.5540272011856848
Ni 1.8761889084963423 5.878547810879192 9.158040890740093 -1.2309269513195316 0.22424724685198152 2.9911612540260357
Ni 5.820040223019483 6.439790002998606 0.330645037472534 -0.13468415378016804 0.18598640359857002 1.1928604834651133
Ni 4.224587928644489 7.078715781210063 4.559746487821442 0.2155137236337256 0.07077475672071681 -0.46621068003680355
Ni 5.107025780794238 3.8989471336022232 12.182056073765722 1.6847230597420662 0.6633340740887996 0.18256632217342753
Ni 4.251110875597161 1.8440379215805422 8.829282956322517 -1.361166953285417 -2.2352870065149695 -0.42569343664904746
Ni 0.8609579616960589 8.03018722699621 9.937194506049268 -0.4658846641559525 -0.4663808870660806 1.3165796535933454
Ni 7.089879446687005 4.058084815318255 6.764368956018272 0.47799533137655736 1.3098706170042862 -1.2973123207233013
Ni 3.4785722865697704 5.187213798462648 13.258167811484057 -0.6702529126958198 1.2077636258291908 1.143265189035489
P 1.8121179707880237 1.5829855851627457 8.978215310400977 0.26503908405736293 1.2611163304187185 -0.0454506761336314
Ni 5.261616671604099 3.6035351049300592 9.738649454857422 -0.626346698231173 -1.2508188051474525 -0.0825871759746126
P 2.071950436474896 7.455480249611973 3.66029513555327 0.27327509881391 -0.49406086947985234 -0.5038233481832549
Ni 8.825718531012537 2.9384005888935936 2.1112404396000826 -0.08938851516716217 0.6795531070508232 -1.759714425647292
P 8.534520601229021 8.178826627270348 8.625449950341016 -0.5879423874213616 -1.1062551874700433 -3.5016902963642402
P 7.455997770528122 3.679777025612827 12.64274395187725 -1.0612218013794885 -1.5432085133036262 0.2046497843360282
P 1.5188869231196334 5.357228660862755 7.283421179593075 0.2814054412305283 -0.8964585688257528 -2.9879455753022155
Ni 4.597683543408694 8.538254144981243 6.754887233518815 0.6432254762643825 -0.14771321904998433 -1.0859925805662654
