# total energy = -340872.1698663156 ev
CRYSTAL
PRIMVEC
9.20318066761044 0.00000000000000 0.00000000000000

0.00000000000000 9.20318066761044 0.00000000000000

0.00000000000000 0.00000000000000 13.46978517880581

PRIMCOORD
 96 1
Ni 2.2132176969943163 4.847766207623207 11.304571425641162 1.6715883221323213 0.7112054438487817 0.24517602658484872
Ni 3.998487493462046 3.02553643763903 3.810911946593816 0.11942825606236204 0.33251537253246605 0.11611744652157423
Ni 4.016396883019567 5.296181981929817 5.004954692599851 -1.0403866098016923 -0.2684787058665312 0.6042537229868754
Ni 6.341930196745635 -0.2011861307411065 0.6321075789378038 0.837150932204371 -0.6872448192681262 0.42492210570066175
Ni 7.2319974075763405 5.450307648383983 6.643769673690596 -0.1444528031311577 -0.1598179727333183 0.6455106727541334
Ni 4.28720047383666 7.848371228863816 13.221766055865418 -0.4060072710740298 0.02319983515523101 -0.14687092565434703
Ni 2.9252217684833353 7.707580971180898 3.4502043245796457 -0.05851702239928632 0.48151285761151263 1.9443525427480837
Ni 2.8762700505714878 1.046070326138795 4.602234550888824 0.4757664420460387 -0.38608970621449634 0.15589524064014443
Ni 5.840485695496353 6.621670075980176 4.9432897009291334 0.16521368982759288 0.8503268074646969 -0.025971741473413336
Ni 4.321187820001062 1.3009892271427934 6.7654688534197 0.6922705546174917 -0.5080846945627702 -0.06569322843275138
Ni 5.960982939831721 2.8813041903905856 2.541546688822839 -0.4927028127900611 1.264744414089609 -0.7386519700955085
Ni 4.415934564859582 0.9658277939948958 0.2563665613212637 -1.6432030861214089 1.6463596294725196 -1.3849434868797244
Ni 1.7837052557561268 8.74797293485464 6.415766394834555 -0.13629623546229427 0.37521342562162474 0.5788831054325707
Ni 9.077520427802082 1.295826242794505 0.6136874128538476 1.2184578723182435 -0.47452639899135046 0.04935901004910209
Ni 5.693823808554597 0.12004444784706866 11.71234227289647 -3.6689179312980684 -2.278779530480966 0.3603010272861666
Ni 7.8168595382960095 3.1893622565051327 4.134402826351224 -0.7614080328451016 -2.606003315597189 -1.1225575241744925
Ni 5.461093776113386 6.498733988770839 9.354321731453005 -0.34208064762339796 -0.9515801923902452 0.5726980596677814
Ni 2.6120191243818125 0.3065827962553125 11.931414785243454 2.122802271649976 -1.9737307387998848 -1.4725857087797414
Ni 1.9577558083315851 4.9359142719510265 6.429182791595579 0.12949798159353829 -1.3200491001991845 0.19274840491275194
Ni 0.6261982166382745 7.927536988870907 8.608755500745916 -1.2790883415161067 0.6398447327176077 0.7946685946704444
Ni 7.469255404900543 8.333332833557332 10.236214677224622 0.061380974210642675 -1.048160597320156 -0.07291185766837766
Ni 2.391483306310445 1.940058091929163 2.093811029566742 -0.013662842199073244 -0.009731111244834853 0.14585713967785202
Ni 6.446036576331802 7.159706423519645 12.314710693860905 -0.04075275643732981 -0.6417072398476432 0.7561786661253622
Ni 7.662190884183111 0.294008490524356 8.014360715502258 1.1865301703717113 0.8558487657241906 0.8469630331987864
P 7.128470828371532 4.778769962241533 10.928427308711868 -0.7001257889958523 -0.223294396020409 -0.19471195639702596
P 4.789114337299422 8.538591371738933 4.288361915235509 -0.4898414320818661 1.4149721720313309 0.7583106248667005
P 0.19668393476395366 1.3315253805610132 2.847822098844225 -0.6045051768760492 0.1336557125156537 0.2860491106501267
P 2.1807120629156085 1.4808009708092116 -0.011639262576257513 -0.33077370725101096 0.8655675356738514 1.9888488253882457
P 3.6772228631054418 3.319246745110116 10.352351454564946 0.14468728773946693 0.4951201639823022 0.9104636248555934
P 0.42506270339077856 4.511914535926072 2.9082078484036904 -1.4791132254856139 0.28254006905560375 -2.29890355492435
P 4.4142503827994455 7.517470868359871 11.05341386457147 0.7516008169466927 0.022357284649277626 0.20061083837996418
P 9.172285579021915 4.092323123435574 7.067367230720861 -0.406337657830255 -0.3775299895699433 0.5689846153719362
Ni 1.4184678282228338 -0.39945577353217265 2.0229999169596096 0.8791732993827439 1.4366835955664934 -2.3745798627117427
Ni 8.547177939291435 6.357207476635401 11.607318336198851 0.5405808674182625 1.520854056867826 0.6206576182661956
Ni 3.0550234284624103 2.4161570336504834 8.261275610289312 -0.1330810709591063 -0.024198708733390584 -0.5825860082054547
Ni 0.5006594699392838 8.648017189744548 11.086400824998512 -1.7497709412813351 0.47209927760709663 0.4405911796964863
Ni 5.346330113327008 8.8285835942248 8.81297039824107 -0.19970606717750766 0.39434886089949506 -0.6498573797586035
Ni 5.206138062386761 3.9401025153773004 6.510351163713522 0.06289792507580136 -1.250028190925357 0.7028470445817573
Ni -0.0511393139538943 4.296762578538749 10.902902287161105 0.5720360006037503 -1.3974868707623738 0.12512427800587483
Ni 2.6031932741322428 6.906766206356791 7.806966119090287 0.003097922199033374 -1.775642409731458 -0.22256677382576506
Ni 4.727784341404601 0.846181843870253 2.4933247831370506 -0.6821244673224252 -0.8276910723430521 1.793227726913389
Ni 1.8460291951618482 5.409003773597676 0.9562353187966407 0.8941682301296795 0.7900928023743037 1.3113176338634578
Ni 8.129169473873853 3.0381447951384155 12.616986401568983 -0.8479593356737849 1.1554079950456102 0.6121369823896942
Ni 0.6168256974577093 1.769026182609032 7.947119516671777 -0.019427255486676218 -0.15042136200976675 -1.064277557486677
Ni 4.302680223700869 1.3035108986426707 10.124940860543184 -2.0954562755368555 -0.8128846034578388 -0.6835239187731131
Ni 7.0760403081715335 5.358929267645737 2.9858606055108545 0.935558363040692 0.6643203492614688 -1.2595430723943277
Ni 1.4511575259146712 3.781117569536509 9.23954518421371 -0.8419871772507499 -0.7808427445309455 -0.9412189037605792
Ni 9.060798248549247 4.752743367344991 4.87199450101947 0.24259746722439507 3.09558275226692 2.7046334039672772
Ni 8.258280895303692 7.155279693623876 4.532892265914466 -0.18443525706136624 0.4868759216956389 0.06933853849482252
Ni 6.599876944185618 1.4053901085099678 10.18726572026697 1.9949389974463836 1.0031184694788529 -3.1833103347918916
Ni 3.5654410308517654 4.702917347270777 8.711139044913187 0.47502082212926583 1.4557447259630025 -0.3279154118666095
Ni 5.1256378411844805 5.142856992192765 11.446367590969835 -1.0694953542421903 -0.5557642600269203 -0.06193813226569333
Ni 6.993984749438306 0.9593487548127299 3.0978890830061236 1.6017373627774545 -0.31415666751962024 0.3095867887607507
Ni 3.357808072060791 3.4777899382793955 13.054538741428678 -0.7871069802731024 -1.5294227723734435 0.008728638122249483
Ni 8.284638804703867 3.3310268163504175 1.5745500908845695 0.5856332796722108 0.02182069541951726 1.0288300153123442
Ni 6.69928049845632 8.243693853963162 6.365281427025336 0.9256755567093413 0.2955303106676846 -0.9915011969548989
P 6.3858477748383855 4.612707770475904 4.745970746699883 -0.8218780652057007 -1.7612192923275927 1.380583410138816
P 3.0790345267951817 -0.3320535190402024 8.373734796639305 0.41565276458359385 1.8581048872027486 0.04042082701920781
P 6.331880323468753 2.029899541497777 0.5237925848374263 0.8881433640918381 0.869430103953051 -0.6825854661192438
P 3.0721965635674127 3.064834019042224 5.858845120587977 0.9483028071905538 -0.8036715695000028 0.7811484486968224
P 6.230175974033929 6.576261582621075 1.168941991083536 -0.18877862163172648 1.2196246389328351 -0.3683866325077785
P 2.955813140985494 7.351298238426365 1.369163628491843 -0.4581806106434754 -0.6162198942098162 -1.2075180854772882
P 2.0151652492667433 6.812774122312102 5.311540249809361 -0.2865520184284742 0.09104302005144965 0.19440033869387813
P 1.3045784675988228 5.88459654038289 9.535355657510607 -0.4648287120876124 0.6807085608115051 -0.37573098868799165
Ni 6.0883733664787965 1.7865490385789808 5.178768723432438 -1.0050925624860885 -0.23206262913134226 -0.9112295564873403
Ni 0.3183693097220738 1.6195573255670472 5.153593422746622 -0.22967638828735282 0.8421488996395948 -0.14980892523674846
Ni 5.456841906650088 2.4592279191228363 11.718686025322986 -0.23881691713604028 2.514013358251438 2.630248047077167
Ni 1.5450483749721386 3.241166960420491 4.33226016664888 0.7999799795810287 -0.7716078561962388 -0.6648183719438099
Ni 4.417112571983613 8.019826484494146 6.488072103980301 -1.1159289631143814 0.4861105042845241 -0.4993324022914369
Ni 0.14301558676565707 6.546618137726534 6.720977917172051 0.4597425558139566 0.30676346037934266 -0.44385210983594525
Ni 1.473548864451901 7.473617712531717 12.754095386989308 1.0596364591702396 -1.2158407464103704 1.6016743707500027
Ni 0.8307343051383417 8.802096840295434 4.2091326532818885 -0.31628939759190694 -1.2215863906448963 0.19082419130684555
Ni 8.557807612949675 5.8202663075940535 0.7715044750693307 0.21804703157854063 0.5141332147496952 -0.27383122842769614
Ni 7.6735107963905875 0.760848112187186 12.164562642086471 2.2834681942058865 -0.1888894361779779 0.9861067654122049
Ni 8.180550831479012 5.778787572375273 9.172963853436299 0.9223392932472568 -0.7047982547708571 -0.3413725658127798
Ni 4.163675383065309 5.510846170742347 0.18985701535297253 0.7457114480454512 0.7834953516624441 0.7995907145624099
Ni 8.066081670473643 3.085513565977348 8.862956553658709 0.8792738295163504 0.27845047236726234 1.0158122628964377
Ni 2.434508175879516 5.0833676324292405 3.3295561480815112 0.7670670309030918 0.8105842374594362 -0.1942591851303235
Ni 0.7562097091363171 6.720769925289214 2.755702862063131 -0.8316014631410517 -0.313370424172899 0.3575877421200616
Ni 7.78710565523359 2.301052853179816 6.6447120793898184 -0.34395421049702696 0.6744021589775031 -0.5051947746094848
Ni 8.318165991835443 8.564139401241338 1.8970442661768803 0.46766669575703973 -1.2038159540353526 0.3736568797677823
Ni 6.310271255287324 7.865608786233414 3.000166029523296 0.6411184572237086 -0.18686777776225882 -0.9785446367942309
Ni 5.969845602803917 4.040297543184461 8.96884282838384 -0.8443232815830942 0.7520708146045757 0.8753621531667698
Ni 4.4790683841630745 6.142423646474338 2.6402802515417494 1.1343838273854594 -0.5348722470692595 -0.5466427573416263
Ni 1.0478005241022141 2.082155201265303 11.696110623172626 -0.3423305588506749 1.362228304670396 0.4981083000763486
Ni 1.7524420510660448 0.8871792527407 9.731596919284984 1.1024525258945013 -0.21261094816463386 -0.7279420398771722
Ni 6.489742481269452 4.574358116680328 0.7268524831601932 -1.0488475960848518 -1.2755746719358934 -1.2356927481392914
Ni 2.4053985154630513 7.626215650996907 10.265027074905882 0.7000244875312975 -0.32767372816944856 0.1308552669523811
P 6.034553165999668 2.05704892443441 8.132490901772778 -0.17839290752202824 -0.6741566186256003 -1.1505198137153734
P 8.758593405332226 9.1594931579094 6.03618765088426 -0.9643981700905196 -1.5107835600057014 1.403345643535996
P 3.5603332655874165 3.9138826536869726 1.8284152277034003 0.912150525639713 0.43728294125885986 -0.4280755637279789
P 8.650667705773618 8.113119126808941 13.209427351559269 -0.4047795693145158 -0.06030805286143807 -0.42489459489683595
P 0.9393410400655299 4.338342548744751 13.01515280949118 -2.3519554404440077 -1.5266377534291384 -2.3396028324159253
P 7.0855932096929655 7.300818792525541 8.29090893168513 0.6259949713187091 1.5811492542134573 -1.179031548001821
P 8.789479279615392 1.2963692304532375 10.237413851664162 -0.020345653535887537 0.24930136160713193 -0.8751325536544672
P 4.721148848151275 6.02614145887964 7.239780537457531 -0.1549732430465073 -0.8225936032154867 0.23672301072148905
