# total energy = -340896.712224588 ev
CRYSTAL
PRIMVEC
9.02311918495019 0.00000000000000 0.00000000000000
0.00000000000000 9.02311918495019 0.00000000000000
0.00000000000000 0.00000000000000 13.20624699804552
PRIMCOORD
 96 1
Ni 6.275895153881681 2.0999505117109614 11.214057857888953 0.070681168565646 -1.089377180767782 1.347104304544764
Ni 4.55541191656596 0.1908705502061523 5.956505611180136 -0.3566734578359083 -0.39871973627368107 0.41889543989060757
Ni 2.6400202832399775 1.4846730423556624 4.809595888980566 0.33424392518779855 -0.4354646571031985 -0.12162732059620987
Ni 3.334493669070536 4.257360245948351 4.77586746972746 0.05044607246569376 0.22956274552762398 0.3665076703175107
Ni 5.173188789916207 4.5782494310468635 2.767527784082542 -0.5239653703487687 -0.6737737813648847 -0.6500473842822225
Ni 7.266759956412629 6.067713749652767 2.6631059334965514 -0.39050686144558555 -0.3357940432837378 -1.186071228457422
Ni 5.110324719039696 4.792106377199321 11.418648963021877 -0.4853031778918803 -0.4547810980436232 0.5967880107374496
Ni 5.637238782898559 7.822881856847819 12.555363462933034 -0.12887577462850708 0.800152500603151 -0.5410889174029326
Ni 1.795266848543583 6.4670318861017355 0.27833344841487784 0.8014205686822973 0.404819935634148 0.8164995745026067
Ni 2.7688523779686722 1.518473646561692 0.45220985607921593 -0.11867415150515691 0.03156980438648112 0.16544483200179247
Ni 0.3548449869533262 9.230109467836595 4.855831253639434 0.7868694103409997 -0.4371831824562019 0.2928944157067343
Ni 8.66943991536728 2.453819197176009 1.2896852428971848 0.6833066605559845 -0.29070512136489934 0.9060930065917234
Ni 6.715266916083604 0.651732675205059 4.664538421458684 0.6283637286612017 0.04734660760476362 0.44385056717404847
Ni 0.8469974844203775 7.270423342773453 2.464391585843442 -0.38071378661456373 0.1675935029136791 0.12240765040566016
Ni 7.579004993398655 3.8218503787277887 3.6981984566832056 1.0818083672815886 0.0933600982204005 0.9453244412885203
Ni 7.720162668838891 3.872497146322141 12.654595215403885 0.14219794565870994 -0.14601886206669693 -0.28713874416987967
Ni 7.872139064098411 8.655183387165057 6.9796993471894035 0.05674013300452163 0.13249845898275892 0.0318474835279
Ni 6.837999382290335 0.9008862587128682 0.43846223179509775 -0.7823144439804656 -0.44866701472608533 -0.42074174907072703
Ni 1.6202724764208554 6.439881320683705 9.166509110440275 1.0912137197558884 0.12944681664062865 0.2738019178516574
Ni 0.07365211209080005 4.9385786697984875 1.508377678583548 0.6448720107288701 -0.7607284902795737 -0.6158054323802169
Ni 6.3496862220068575 1.8831069131313292 6.88571092923647 0.2957725085854777 -0.9580087216244082 0.1989385928838638
Ni 3.5332278675856994 4.494695348038899 0.34399197928140623 -0.12625890583095029 -0.8023651919837536 0.7956782668818813
Ni 6.077106816651826 5.46968848404598 4.84362838734786 -0.37947220089797873 0.9723374795422547 0.3507115838255186
Ni 5.313534384636063 2.875496622792768 9.121832038452625 0.8350269438828328 -0.21198668431707363 -0.09306313580527198
P 0.19198761235263026 5.540907963223288 12.302398513910907 0.7349863483184632 -0.3225927141021154 0.18552180525732564
P 4.050667656373466 6.299562795321194 12.67493332588984 -0.13281650444381 0.6589786253335813 -0.5011923383183111
P 2.437595629006644 8.403257901465018 1.377821265791914 0.0962657019029697 0.5169575715723679 0.0648841022678947
P 6.31731127062105 7.701232164934928 5.734192197792789 -0.077413345083157 -0.4668038335361122 0.6264526276814179
P 4.715527165267508 1.0964623655376655 12.573443086704422 0.6011480874783582 -0.18213669083517664 0.08818292489483523
P 3.69712380319657 6.113857980808569 8.215751170065062 0.322332004241561 0.3060006140713891 -0.11995687487232244
P 4.689360119833048 0.8332236930908249 3.812194738962473 -0.3121596916942495 0.8808607143874958 -0.29650270188328287
P 0.14702450748902482 5.488203924470638 3.6534555159260145 0.5788327118106096 0.6711643687664958 0.27943083400266067
Ni 1.4522439522551633 1.0147309525909982 2.5977740395419984 -0.06427937880436027 0.3691026847381966 -0.08880256075670512
Ni 1.8428908712342995 6.4253811682653685 4.733106005927996 -0.043911356670969535 0.20985601112731603 0.7449979669181944
Ni 6.140963430631023 5.477060372363205 9.257975566600471 -0.6102035128124071 0.35285099876602455 -0.3498682619886168
Ni 8.601703360168491 2.2862779214425446 10.057032316849186 -0.2223294610039784 -0.20328632832959828 0.413093745607166
Ni 2.092082351842393 5.060020829971726 6.9836875658383795 0.7514488647498607 -0.02975049178955522 0.11282026382754119
Ni 0.6765462527722189 -0.10518791339888156 9.044853102344002 -0.9391324535451955 0.5249966398267604 0.14985160554922577
Ni 1.460797869176497 1.149373936029966 11.411979975683735 -0.19046346553331714 0.3650369993092552 -0.10010101648865986
Ni 4.2662480182769515 6.921670765846799 1.7976868490903146 -0.028744933343176304 0.20547253734763965 -1.929751247895141
Ni 5.5950286316770415 7.820878724404215 8.0743255079871 -1.2790114655315843 -0.27943649042961555 -0.6439911507858135
Ni 5.086639031361952 2.7041295445544034 4.937273926774411 -0.3095268820570927 -0.2375969286860102 -0.6611825749634355
Ni 0.8174756432988378 7.2220774705535105 6.778674178730858 -0.9908532789582547 0.07874517652070309 0.5871597436190662
Ni 4.972144672907518 4.6060135685647365 7.108869808884922 0.5740985395597338 -0.4236175279566253 0.05666711367474111
Ni 8.177806247249361 6.994451244631058 9.061400600489607 -0.2743292511100372 1.6040169028402504 0.7152387333778908
Ni 4.533810569403858 0.3098557150442864 10.383227095987513 0.727709869261708 -0.06066646464212133 0.22756834080541452
Ni 8.11006969205057 7.3817596095375215 4.361706302333771 -0.008301320776843767 -0.39292755507193616 1.1679254107863304
Ni 7.089924867990374 6.086788623462576 7.068974087716487 0.2342506379215966 -0.10004882309448576 -0.7923409749785322
Ni 2.476232625058491 5.427794141993499 2.6742783595851543 -1.2262922807609977 -1.71354255507692 -1.7588698182588096
Ni 2.4329667689004792 5.357657437110031 11.387786286399798 -0.8554265905851075 -0.16899758235005735 -0.2454087114209451
Ni 0.9856674859205174 3.377912918253508 3.662725868505105 0.7483671405007434 -0.16385537602748557 -0.3142445992477362
Ni 3.5443894659313635 2.658923717786596 2.8667992382775007 0.27578141017553154 -0.03739489570869044 -0.5924027371855605
Ni 1.1718775951036011 3.1153762444738407 8.339982376356849 -0.7288653230223899 0.9212889976058714 -0.5309459154316598
Ni 3.6652721927194514 2.6499457142668414 7.058554189762103 -0.3976100481492701 -0.07786020281258849 0.049890199962223755
Ni 4.150526515622833 6.623970996874686 6.114611411254699 -0.14865218592448592 1.0089083366877527 -0.742827698739753
Ni 0.7766956564570998 7.44035574507248 11.371740473677006 -0.022830624741270355 0.4125131905133476 -0.47464441262645357
P 0.07446599743500289 5.458147914697472 7.954056353298853 0.07679679454508065 -1.150735272160289 -0.956428778731798
P 8.510651065175686 1.5358792433351653 7.835319324236392 -0.18199039506529946 0.1128094651942638 1.0555041821694209
P 1.8893238422017922 3.447192426821019 10.3819196460277 -0.7192391127865355 -0.7143046515993956 0.3781208290764069
P 4.044342449873619 6.102064764124831 3.830155257561539 0.5736632517945282 0.8115589426678799 1.3426285281615973
P 6.932309023283774 3.9798361713181176 10.59720765887185 0.040487675701401236 0.03630886173336328 -1.6907564104203399
P 6.350705834466889 7.693021126539976 10.144339115097216 -0.680866426545608 0.5090442302625621 0.22531374044328292
P 2.264414903826098 8.459029800716879 5.799206477954485 0.7878592850580948 0.08946564826200075 -0.9612429122909897
P 6.975710226228515 3.938952418606553 1.6059194008440985 0.3429270547840933 1.446518579379044 -0.8790231469581249
Ni 5.381000246261393 2.966648172095841 0.5700256246800031 -1.1400965614995202 -0.22624113735355875 -1.1841411013142447
Ni 1.6331213980410864 1.1171343314308888 7.091860327040612 -0.9868369587100102 0.47242323660541863 -0.733142353131189
Ni 6.7211680359850305 0.6369212251772434 9.118583715571106 0.9869598574411195 0.5737115885339603 0.29801605320401575
Ni 2.8495280859788457 1.70438599281397 9.358447997949682 0.05319715284826967 -0.4331591488984734 -0.4628358500272996
Ni 6.29031409822798 2.199024359597295 2.622536185330201 -0.15914125838126786 -1.7100908490828934 0.7918514369366233
Ni 4.124088776614913 6.882023180454035 10.314911256541519 0.22582487575174656 0.10421143911260762 -0.21227953296714408
Ni 8.175027126561838 7.04318511097296 0.330515048570748 0.4789283847137881 0.7197433061164638 0.07647129288486185
Ni 7.495117054983424 3.700065340028168 7.973813374913782 0.8039225091685445 0.39098200130979116 0.20280167538369592
Ni 3.1373024239240945 8.413724719638802 12.351076436914296 0.2103128961590765 -0.4328027940003191 0.5806378833401484
Ni -0.11714715547434114 4.823335392457481 10.06177306363238 0.5824086020873259 -0.721141472015571 0.6294505339674773
Ni 8.723966624181225 2.3822297701149737 5.704042347580824 -0.48879345043332595 -0.434086288698433 0.480499842965966
Ni 3.6179098404830796 2.768834331730442 11.64625894732992 0.20603072384395488 0.31526172765834093 -0.31438112482560054
Ni 1.2440354786689025 3.3936492379906453 12.62385164395413 -0.4210945044244554 0.29375856347924245 -0.3582605998173701
Ni 2.793314053890334 8.279289267939488 7.981842146302603 1.9567809983194235 -0.3682987007796625 0.2709760183670881
Ni 5.704812921953273 7.6880042723118525 3.5665583672858197 -0.5207959714818514 0.5544046606752323 0.22025818029724648
Ni 3.0441657884156488 8.240616179411179 3.553417998918164 0.5408778298333912 0.273219048764994 0.4832632646437161
Ni 3.652603733481527 4.336285468850149 9.454919578283153 -0.7566365795983873 0.7336372904897365 -0.43712404708349234
Ni 7.276243254602842 6.199830259739441 11.355259746612854 0.25063062194151675 -0.4666379973822093 0.7235765638196249
Ni 0.6091363344854048 0.03108464535231497 0.2519489458097387 0.25941453878173387 -0.23353458569117846 0.006345225491737458
Ni 4.720237233445711 0.5165212352618255 1.6781043537667457 -0.3928311387033879 -1.0238934972426752 -0.4731207768930755
Ni 6.104122035283127 5.646595757421158 0.44458802736249586 -0.5836761559458399 -0.29200558534387777 0.10133026091007065
Ni 7.7853186119706965 -0.14437351509294064 11.46129222396093 0.09742912608345157 -0.3743796168664198 -0.5887599982266506
Ni -0.08308036925440931 4.771344180114945 5.785577958842688 -0.2754821337675578 0.3767203491844544 -0.15529077428692611
Ni 8.247933929013712 8.982515079311916 2.2243278925324175 -0.9392221850455245 -0.5166840061960069 0.4401342946647258
P 8.381412930086801 1.621192834570619 3.53725398333496 0.4131207421903595 0.8845638742706959 -0.13204465927479195
P 2.020285393041705 3.3672566145783023 1.498064253434725 -0.8864667477203636 -0.12300517478034301 0.7377145458829037
P 4.708200392545859 1.0337155952096544 8.138864269771414 -0.24915146629282897 -0.8787608944356736 0.17560763146740724
P 8.482841812062237 1.6318762076031708 12.439743019213006 0.6023367084698207 0.8820776175137325 -0.8996045706539023
P 6.47722801070206 7.828882231059513 1.414825077283886 -0.5536001624960659 0.16136346284356726 0.5014903291747042
P 1.7956277733081962 3.1687840865174843 5.907959425715832 -0.349750762574146 0.02851096295549928 0.3235069983862686
P 6.768819128033094 3.6809273043845505 5.781325362803632 0.7377721385937166 0.8286817183910955 1.159532301626629
P 2.452952977740937 8.565376282610169 10.247030331436886 -0.5542830474957035 -0.29056499624260923 -0.2504493591686461
