# total energy = -381176.5859917344 ev
CRYSTAL
PRIMVEC
9.17406472578520 0.00000000000000 0.00000000000000
0.00000000000000 9.17406472578520 0.00000000000000
0.00000000000000 0.00000000000000 13.42717105486804
PRIMCOORD
 96 1
Ni 7.2443277893862215 1.5936634921990267 8.18540519110672 -0.7925137531109706 0.09251857615571163 0.6418396516604494
Ni 7.634243891401274 7.300353803103362 0.8138367926077977 0.34209530291141726 1.7190804541760136 -0.9604224732722233
Ni 0.365705745014966 -0.13137444271036589 3.67758166791419 1.30274429037215 1.4947285634253675 -1.8393620593776063
Ni 1.2606908103808447 3.661635308483515 8.193931566929335 0.5333203292011073 -0.8633322185854293 -0.7928497962941506
Ni 5.184511716706537 8.29619853685081 8.801819778902432 0.8153348647705442 -1.1456534867620076 0.00614647921737006
Ni 1.4795748223797427 7.461670558499171 13.039635896606603 0.6165052866607189 0.18161449978311947 0.6656562944640729
Ni 5.758578821397892 1.8972699926010355 4.618692096267958 -1.038636974100437 -0.6460194940697519 1.5713870326203712
Ni 6.721828102920516 2.10479651238087 0.6310774955612473 -0.09649273031211124 0.9325177764421554 0.5913766099138912
Ni 0.06563492918583831 1.431988948276122 7.257479728679637 1.4186758461351632 0.3246899629507763 -1.2194680587503128
Ni 2.4975932707422777 1.5161426446618 7.399874975431006 -0.5558869016477136 -0.4779035429936995 0.9386151475891449
Ni 2.5447020934764386 0.3716945745146466 11.950961553394665 1.6831194627003725 0.703224225415518 -0.008590312772172303
Ni 8.726379609261235 5.97181160948165 5.039298197249437 0.9651689868182731 -1.3377367472869348 0.10690261279152558
Ni 4.1051371229796265 0.4532410016849306 5.766177699269499 -1.1800083100927936 2.020670340774217 -0.8609477775136528
Ni 5.240179941896583 8.500468263627601 1.2066739168543132 -2.168407728193917 0.04809505573501394 -1.9183440344994638
Ni 0.95781823516262 8.410360599188472 8.193863678849834 -0.3056082637289769 0.30659916688733646 -0.5961390642995411
Ni 0.6499118505901142 1.1723170441884063 9.568685359748029 -0.10622255600536547 -0.9341370572131332 -1.7266729218112908
Ni 5.030515865018976 1.6030485604866695 2.5373463283219593 0.45320578313670334 -2.2471559900384137 -1.2307199775150481
Ni 7.4136718514796724 8.57781480393368 9.294019364155599 0.8041420813785184 0.3743989001401294 -1.479745202642658
Ni 6.481540997749506 6.143935413208686 4.858111334909144 -1.0838745057819978 -0.703106468890731 -1.1941897437994982
Ni 8.79379981145663 5.808265556340095 12.197376933850274 -0.2849607626819544 0.18200427902237043 -0.6253393400125811
Ni 3.0997238396485884 0.7156697122442364 1.2559120400279284 -0.7199813902691988 -2.754436957752966 0.37692372344451214
Ni 4.56255599377325 1.280983841712483 12.891038064645777 1.0303996737923093 0.3935991272176641 0.5853627996196435
Ni 1.8718945293716902 5.982958098210375 11.14316863467533 -1.1873891759378972 -1.0683573839830052 0.31694811422182834
Ni 3.143218080852611 3.1973909334806967 12.178014152689084 0.2802798122665173 -0.11644860460874784 1.1673898499978346
P 6.248868366360258 2.2688654872158716 11.775656183995924 -1.5452561398612743 1.0670877732419624 0.5524534504861324
Ni 4.859272771512483 1.3892194581910866 8.123492180009148 -0.333878828538896 -0.6406782843624966 -0.5580402005452906
P 0.25882880753284343 4.489741441477041 10.240473685253798 0.8253701375193591 -1.0618170117613261 0.521862722183469
Ni 8.70802230560183 8.433561809060857 5.553061421808667 -1.0735281295506673 -1.8377443212685256 3.0775477491420804
P 3.7533209120677804 8.094442503828482 12.958912383048636 0.6863498182576825 -0.6030360485296904 0.3777737301496333
P 8.219007955646287 8.359196839813904 11.167256976613615 -0.2214642847902057 -0.5979581197861508 1.0678117958921804
P 1.1698400466931338 7.824440602778999 1.8649396708488533 -0.7584301811637002 0.33150467187976457 0.04783408876414343
Ni 3.3626617108041446 8.331527860385233 7.554099261332019 -1.1473450155318174 -0.9203839692930987 -0.09886045921333941
Ni 7.77868954163484 1.5905993545567267 10.60707573639946 0.5478655740051339 -0.8229489296723763 -0.4105419257195897
Ni 5.845594826000329 3.749981552481561 2.6801837649965576 0.5432841252820385 1.482037084000628 -0.8564612024972088
Ni 1.8267489565041526 8.55576035216096 5.805908739093668 0.2733257495461874 -0.44190989850790996 -0.32671393535934057
Ni 7.269363812218066 4.950343712755329 0.6378534598205367 -0.05489510937598288 -0.35169271679186526 0.1883579891545401
Ni 0.2561573198638682 5.958178949192855 1.0669859366246295 0.827251156592156 -0.7740725156866475 1.0417570077866576
Ni 3.9867366427056092 2.2117936301118375 10.422398142403793 1.2988621817089243 0.5244950175999935 -0.6772668821198077
Ni 3.961929971493697 5.921675345364379 3.641179896204964 0.22195407994243066 -0.4998167981270231 1.172858843532206
Ni 6.000526432297214 3.184813290643592 9.44832438182683 0.39299620352634246 -0.9995261241419043 1.845401323593151
Ni 1.9748275363974515 4.545767455194182 4.759744259933001 0.3230043477182373 0.6570870647378232 0.7962868470001576
Ni 6.628280164182398 4.879960287630405 11.74380658323912 0.27789794229790205 -1.3411357456661548 -1.0118692190882894
Ni 1.5319770805019484 6.8638884963067825 3.7703498111445373 0.499206932457166 -0.24361896651037396 0.5204910386469229
Ni 4.380698507296274 5.074661464823608 10.938713591789634 1.0568396131513929 -0.18599694512153128 -0.45518064747488707
Ni 1.0734940181918378 2.3623492075004084 11.290854564595305 0.5617546732824003 1.8601784819023255 0.5766824982368262
Ni 3.7029277741361843 3.322149040659246 3.5052569521680943 -0.85163292787063 0.11377799975512018 0.9916888874856727
Ni 2.5198220297461478 4.040698491843357 10.066471033056274 -0.7069417834764213 -0.3252643473970076 -0.415919130871103
Ni 1.6261580297110807 2.145107353100228 2.608765505362498 -0.39463579601229454 0.10667404172048726 -0.2088198565533178
Ni 1.9477915674397939 4.76982563973876 2.3942391741423203 0.2868183847159835 -0.49960931010190734 -0.8654996585503932
Ni 2.6096636463061547 5.3262693659544915 6.89889397535386 -0.022152881947955397 -0.5458819679162018 0.3758631433904817
Ni 8.321372170654616 3.1875288138235938 12.469088880577972 -0.6236940910996742 0.165857751169495 -0.3540491328391838
Ni 4.413064607901166 8.44063501301958 3.442780653491968 0.10033241577317559 -0.32332959226813995 0.7434285655485454
Ni 3.6627912406479757 7.51028392786009 10.770081437124453 0.007053050192039466 0.021021082336357345 -0.013865188017866443
Ni 1.7911994554145962 6.367608287031777 8.823987989078642 1.6194867163410753 -0.25749443894088553 0.5166698651286199
Ni 8.758681491412545 3.2634900703452785 1.4322898576014738 1.2983708438948027 0.6943834871954363 0.4191864887684652
Ni 5.9930862657466 3.4132933744204705 7.011078109321223 0.6361539141295818 0.011850471580682816 -0.892873936798288
P 4.053505486300395 5.072716563086579 1.4017833399309956 0.6113309415486311 -1.0117704887268963 1.4130813827665212
Ni 4.978618180460623 5.783935936497643 6.974878167037538 0.06888705277970071 -0.5476683703926631 0.12599433931565399
P 6.980802778083637 -0.0472785429329109 1.8239068312299476 2.587083852984867 1.2841433874415111 1.4621853393820237
Ni 7.294179657494776 6.77304690668387 7.103738915993442 -0.24704213325931004 1.05749730134005 0.561108297947653
P 0.18801511876892646 3.792677650048218 6.163259663297728 -0.19610883674455257 0.04351437834286699 0.25986319628337823
P 4.370267595621739 6.20590622091448 9.10740879470714 -0.3084932985862558 -0.04951224779751472 -0.49861069363406385
P 3.4186051579381105 6.812146770849983 5.62103023307894 -0.8064355053983853 1.2743503126104891 -0.44685850076243694
Ni 8.105212855900518 3.7454954347956795 8.204726688976322 0.28108508177663205 0.5980329388881442 0.03470552180198539
Ni 5.229427937954141 3.889133767327082 13.447983612205922 0.7056081522666622 0.7847230534219581 -1.6056526386714605
Ni 1.2871579873210695 4.17470405633759 13.060112409234188 -0.5434674449374383 0.10067540093489112 1.0406570898542593
Ni 9.089323960772212 0.7076231400105202 1.3373181040068136 -0.10343470884758316 -0.6261672352305152 -0.10634339785394589
Ni 5.402615933197664 7.882686740177089 5.931989746415989 0.5888787831927019 0.04887332866193519 -0.1132105572874244
Ni 0.15513985756778428 3.448448390723743 3.9947309227699805 -0.5749143505928099 0.013454839953325217 -1.360373253739528
Ni 7.498220032651635 1.864307577784319 2.839269387833663 0.23420358673374506 -0.3595744335327872 0.6554158476829873
Ni 3.6480943888426927 2.868812628700424 1.1462691220094183 -1.6699916670691626 1.1545515605825856 0.16276497117678418
Ni 5.80583442916881 6.713709055574902 12.982020017460089 -1.6171274720802795 -0.1452706710467627 0.1855428883032482
Ni 6.294133202070161 7.000242621389126 10.758400100418045 0.21588087716515722 0.5196734278416341 -0.47097956218035664
Ni 3.589563855435887 2.9874057643351843 5.962160493314886 0.29475409462329233 0.10513652203003827 -0.25768752878829815
Ni 5.10181669662363 0.19892675143884095 10.903642059476017 1.143950902248604 0.09946826800066741 -0.0932207444290588
Ni 2.9292421935202717 0.4457448733390527 9.609033814133058 -0.2319929522356714 -0.8968236654746554 -1.0127346524123784
Ni 0.20904482750378853 5.823347718866865 7.208699391339407 0.4062342994831714 -0.39133912753889377 0.4405582695760219
Ni 5.904905154914905 6.398157922806801 2.1934354090459505 -0.5307158016987247 -0.5486770141628358 0.3118629863894371
Ni 8.25140157844557 7.14847716038398 3.1345733595941105 -0.039412954579983735 -0.0998037969632152 -0.6080016200650818
Ni 6.443982376469339 5.304618573032853 8.907450878385083 -0.3975475703424508 1.366718993451898 0.0703654370974401
Ni 7.0334160396961805 0.3067816442283562 12.751273939678274 0.2558617884334691 -1.7534429908162832 -0.6626856418715233
Ni 1.6037733116056567 1.675872286847676 5.060230660897447 0.03621270247513118 0.4378642676836265 0.20557383881219438
Ni 8.671271002023826 6.3211233007038325 9.599474438614266 -0.7793862145900772 0.8742180122599975 -0.24482635655491386
Ni 3.283617968510566 7.010728577452446 1.6317505396115177 -0.9451254379038367 1.4532769811488002 -0.6592887003748322
Ni 7.194586010055233 3.5610416879810667 4.818555519722604 0.22364175205749867 2.2598940064303727 0.2730295584620072
Ni 8.229659044875959 1.4449335537051193 5.008146742823707 0.34260335289608734 0.7935555641119236 1.036487531857602
Ni 1.142638944569125 8.081351113362727 10.650620434959867 -0.5360140739831866 0.33440050537032084 -0.8663473512626693
Ni 0.4309223368460472 0.41956851425290265 12.435413640926505 -2.4099176187810882 0.23495640573936954 0.15335293383426493
P 7.635748438028033 5.051175858942507 2.912030730554047 0.8566267815407955 -0.5509886930151477 0.23159186014251082
Ni 6.8909978577828195 8.865531824106757 4.152768867407234 -1.0990900371801717 -0.1883685306775014 -0.9511688158844392
P 1.581315200981854 1.9530758287630414 0.32088126441533416 -0.6016826198255896 1.2862900014708687 -0.6848254111933562
Ni 4.087064215328936 3.5540051802815333 8.166754317373798 -2.212785225868028 1.4002456644544337 1.269347202968943
P 6.82080708801864 -0.02381954183972249 7.008285523996923 0.2727925027505366 -1.4371386808260411 -0.6663530634207815
P 5.032222241071275 4.320966171401023 5.050295148721966 0.9896394611558118 -0.18455044248299185 0.030082164097361093
P 3.205464110502325 1.037008762492956 3.684066814319405 0.11428219308504835 0.33997439991367256 0.33964349893681506
Ni 3.2899572472855034 5.573501238177062 12.88656662546357 0.3457971772430367 0.6841139869486283 0.8422005788131367
