# total energy = -340892.8321461515 ev
CRYSTAL
PRIMVEC
9.06709559914881 0.00000000000000 0.00000000000000

0.00000000000000 9.06709559914881 0.00000000000000

0.00000000000000 0.00000000000000 13.27061092542763

PRIMCOORD
 96 1
Ni 6.538436582273585 1.8261583347124133 11.4270834346244 -0.030398152675883135 0.37052733299986507 0.2484827223605785
Ni 4.631780575231404 0.27509748569718506 5.982523900564825 -0.19869613785575457 -0.274672750492385 -0.17806714875149332
Ni 2.6906242704628474 1.5445706221788182 4.738536555633598 0.07482372997910985 0.22957534393311432 1.2015261295599113
Ni 3.27202455714108 4.286705061205014 4.830900335620266 0.3921577667854472 -0.04412398690240788 0.08185029780858806
Ni 5.013741033055664 4.443529542013266 2.6594434363363733 0.3953778163846417 -0.05149353989360164 0.5512483744344377
Ni 7.150166302826909 6.070048571774472 2.508397415381215 0.7240555603385724 -0.6116441019136756 0.6385825781757325
Ni 5.212156280137473 4.987800073319748 11.57477281688881 -0.7846896290808615 -1.6235122925607008 -0.596206941422999
Ni 5.942084655398035 7.940291123975883 12.374525986567518 -1.016732717828178 0.726712024124813 0.5849331682813926
Ni 1.7689358960918722 6.536849840591031 0.4976466204158652 1.0231553335250703 0.11822343712098347 -1.6009032969119332
Ni 2.9782869368667897 1.7242713845018258 0.3631915704934854 -0.802072086223367 -1.0434745046983966 0.06726108714050351
Ni 0.7473961344116425 -0.08217055141794516 4.792508440578737 -0.958250405321569 -0.28952344235197236 -0.39374079500185094
Ni 8.65160475252626 2.6311350580100874 1.5209444918803643 1.2621452859038649 -0.47594127706100614 0.6096872352976209
Ni 6.932773625221761 0.5437101848151575 4.906038447901135 -0.5073341895499908 0.5810811415251541 -1.1723171120961229
Ni 0.794419904206263 7.417273864120288 2.529219093094447 0.2555709966659276 0.21698028087692306 0.1064542124001973
Ni 7.502024004159298 3.7785215693074616 3.860858955279458 0.7635795865751236 0.9299484730530823 0.1389203033487027
Ni 7.479782419317565 3.493125676735738 12.861424472180532 0.3752381082119731 1.178131661895371 -1.678478364383935
Ni 7.699831755854073 8.794357101384096 6.934451037857603 1.2169522343069945 -0.031075895469198096 0.9697969725085879
Ni 7.183605750399806 0.8262127672674362 0.5063782332175735 -0.6187819985100376 -0.5660923814258058 -0.4072123471257245
Ni 1.791032407408345 6.3934265266788595 9.316406902168099 0.22708651607298955 0.8726087587913489 -0.7585985884207646
Ni 0.23411874835832677 5.136999126956414 1.479858762816625 -0.702606389325861 -0.882710366001725 -0.008893188724571783
Ni 6.357121876982037 1.8960112371260793 6.955618171902866 -0.13054544902144616 0.4278040552341471 1.1987835338177677
Ni 3.4988923493649033 4.132283360658915 0.35765520208567325 -0.3963234681273626 1.089977533355942 -0.045250901417999485
Ni 5.9063693668975885 5.624781654363995 4.8178020097081715 0.2336762534753653 0.07571564566575992 -0.4024367801139521
Ni 5.308947522773232 2.8710685346028226 9.29084766714553 -0.19839917544062605 -0.6479131115480389 -0.17961083908952935
P 0.12873915302705594 5.714754441312438 12.379489314550545 0.5862747699109516 -0.6931884384460707 0.20800507396150628
P 3.8758749718536105 6.1083933179202905 12.747442923510755 -0.8681759198309758 0.982621892187398 0.11932232661211709
P 2.4898515785955304 8.543806056161246 1.2237559351239038 -0.20409622582540332 0.6055683280332409 2.0650686643839338
P 6.271492228696125 7.680709251805472 5.806410081153921 -0.6812919441188009 -0.38267605254725706 -0.05461845867582851
P 4.86073379938087 1.0690921431325238 12.636394580179871 -0.1291467689017066 -0.7395798812264166 -0.23245395103249
P 3.8088600702778828 6.1623516022224365 8.246967489284481 0.7448717257529753 0.05054608837866778 0.5278227964216458
P 4.760760006284675 1.0913065266882715 3.9068409158207906 0.07109640172619369 -1.4050844806039735 -1.3788260611280772
P 0.07206164683578052 5.561874146972247 3.652789065091461 -0.39112315487334576 0.2966070886716311 -0.4990336401040954
Ni 1.5815371698346485 1.1496986206062376 2.587291118547304 -1.2530350960724805 -0.6385522391584293 -0.652536212142347
Ni 1.8617104154969388 6.435661056720767 4.608325813034666 0.0731442853941579 0.1102267920687521 0.7980243985165547
Ni 5.848140480695544 5.4658264061534565 9.19227292685858 -0.5685932934707885 0.2868620934697253 0.6170436756626921
Ni 8.733825172968515 2.4093448391704344 10.096518929945395 0.15086513441540467 -0.6237290581026678 2.059198321646086
Ni 2.1336598056959377 5.4927103438035765 6.9656237115982815 -0.08744938916292036 -1.454206177831289 -0.06245646666300856
Ni 0.519062192873139 0.3821000910923249 9.243404997546714 0.5827963244440478 -1.2783581482183017 -0.1990450365547411
Ni 1.7672766176466879 1.1783959773221324 11.48738505881863 -0.41592427307742563 1.0496996596725017 -0.546324197659943
Ni 4.176304108480611 7.073785091776451 1.596401765916809 -0.6532622916750943 -0.5795184250237245 -0.538614230610195
Ni 5.521443968900787 7.706650211541389 8.125740424737398 0.42305214237145855 0.7472852202904743 0.30753170600393487
Ni 5.263720851272795 2.7881408807249164 4.909807639429348 0.05065536026302244 1.3840631411573001 0.2769808298002714
Ni 0.7769231303501295 7.455754616696041 7.1892871923328805 -0.38226621870334815 0.3835386576578685 -0.7049401796653602
Ni 5.137207670148978 4.400968596539518 7.019807766574116 -1.0505188131396876 0.357726581690771 0.5202696666647362
Ni 8.116573591359904 7.485313347468179 8.928307114096658 0.2169023764511361 -1.0019936118457906 0.7073824705582656
Ni 4.897056583268349 0.36534228550549497 10.450937178998661 -1.3904564462781537 -0.11197514221842651 0.001863278460983888
Ni 8.06397537135709 7.233973464951716 4.634375577914529 0.18493327974370732 -0.05805319538899034 0.21885230108865536
Ni 6.913070827072112 5.981599056841279 7.07464193228503 1.804660651340679 -0.021043193823544405 0.08288825215479917
Ni 2.741880560356987 5.348561662265094 2.4602919411138595 -1.5487718663240166 -0.9912751969870219 0.09461428234247576
Ni 2.4935237522037252 5.156030960051726 11.233757548150692 -0.2949183881152985 -0.3495797842139205 0.9198730910949514
Ni 0.9751026329533877 3.425829695204815 3.950475405381477 0.20698948821279833 -0.014436744250620298 -0.47630611659959265
Ni 3.4533392624326273 2.5228920739739573 2.669078131832838 0.9778015879806192 1.112561075083413 0.02893005277078889
Ni 0.9380726156302552 3.337071899030441 8.249754714388578 0.26003211776107477 0.5686030636628013 -1.3472287459377699
Ni 3.7423619931359013 2.5717093152246298 7.07457574248913 -0.6481023447407096 -0.5423456726281691 -0.8169873127723026
Ni 4.11682396312318 6.79918810974142 6.1274523523015905 0.37505324589467665 -0.2626111913421606 -0.9035725541627149
Ni 0.6062423144602886 7.520348603818959 11.159481716635598 1.1172862484732242 -1.5755378215639513 0.44503018930444643
P -0.10652295605224221 5.519811891741589 8.20010964733438 1.1340428991062728 1.3246580597261055 -0.7414976670744198
P 8.434067001395851 1.6749373188174075 7.908766646936445 0.323315708311069 -0.008419077301630662 -0.013350967385609263
P 1.877940516135628 3.196704196244101 10.29694525877115 -0.21396154865525735 0.8004720887260988 1.7269074064196
P 4.057371019051736 6.259550864147994 3.859093591818926 -0.0005489305249345384 -0.5614188872095363 -0.26547925691857505
P 6.819035981416332 3.8486011491043493 10.576265290762992 0.21065151044541788 0.3698647597152017 0.6681461507654621
P 6.427682012831355 7.85758108038587 10.221780851913827 -0.1880548560918245 -1.019450116759341 0.23529142048128512
P 2.4525495484125317 8.300708163298733 5.8113326072079685 -0.166161655563159 0.5067333227411982 -0.03696963524581375
P 6.840624735394388 3.9040827054217457 1.5336447723075217 0.09041207133567009 1.119461144637356 1.8198057345122334
Ni 5.271654559685562 2.6554348734914766 0.7393001249924885 0.17325018697882422 -0.11841292742397026 0.05123360136399564
Ni 1.5416238161969333 0.9240367520611541 7.0742302861571 -0.6264958222145274 0.8945125008429756 -0.935402297078802
Ni 7.074818740643944 0.736519246855122 9.301570414081459 -1.5624485924801608 0.21891169357168105 -1.4198256434688903
Ni 2.7030552581587375 1.717851881008981 9.060642277131146 0.9432765576205561 -1.8050257479895815 0.6452427638047274
Ni 6.616939493630999 1.928407968736156 2.7629144081009156 -0.9268574928325845 -0.7203233469896497 -0.16110429564490963
Ni 4.201229553539694 6.945413156110215 10.465362927666902 -0.4074476030649822 0.5347984564085305 -0.4356654602600948
Ni 8.151500042566738 7.33379311742732 0.07542100565512934 -0.2641219715597322 0.05127088235983428 1.010987844924601
Ni 7.626950443600562 3.8701355005104316 8.618479026451743 -0.9761540250748673 -0.3375668189134444 -2.3923870660964925
Ni 3.0853874668914814 8.209085165000433 12.438331136396823 0.8421368154547366 0.2895913194754303 -0.8590911839208882
Ni 9.094931311536358 4.78711805240572 10.345675455906663 0.7034741366427949 0.25064476300890387 0.5462640338459689
Ni 8.494073038282357 2.2858328666004755 5.831305604798418 1.1558129437935127 0.6544848512282858 -0.14444483271135766
Ni 3.8807802704265333 2.8216891334417604 11.535690915892753 -0.31133282491757996 -0.28784451198765265 -0.7052533400304049
Ni 1.1216268934680353 3.506463373964516 12.719867166487042 -0.3406881381512455 0.21054815209833416 -0.5918509784471484
Ni 3.2463646773603587 8.36426850155416 7.798022958008611 -1.2542861948707626 -0.07079558265632323 2.08733570331225
Ni 5.637022233057977 7.919881092390582 3.4595683569235653 0.11704998563817261 0.14047582076128065 1.5880215558532587
Ni 3.167344941569198 8.322886278473165 3.59950718610085 -0.38044613477547384 0.2604234396622224 0.3432661832910669
Ni 3.2923439177730924 4.2320395434672164 8.956123149146585 0.1996209636628691 -0.23981861892767728 0.03144510588315875
Ni 7.214116526181477 6.041106403484697 11.33673799005794 1.030063116388497 0.5426922573343105 -0.04572269884809545
Ni 0.7922791629991152 -0.05682076629747166 0.07885652807524073 -0.9509271321872785 0.3573702267926168 0.16880449250264476
Ni 4.531707044086591 0.28844969027848893 1.8040600099768749 0.6715844870230498 1.745366641566052 -0.851692834574288
Ni 5.765548309344805 5.695450595357259 0.5602059513469829 0.9844738577944723 -0.5476696559442439 -0.7004829152249549
Ni 8.155643705132034 9.063758637795681 11.20111147141907 -0.6287056853816527 0.7814220140731832 1.4652338964003604
Ni -0.05226364418517823 5.084817993338729 5.786052638721527 -0.18418688849598602 -0.8852405886227463 0.6348971589043453
Ni 7.960202465318097 8.843555160638582 2.6959248943921086 0.02493790089226028 -0.45093678459686853 -0.7552697811578476
P 8.693521934231658 1.5058450580291858 3.7515886693425657 -0.3525077564939929 1.0182378416187947 -0.7593771184580018
P 1.7601136123368752 3.476895576097049 1.580330339446375 0.25745432973156956 -0.8551085451240563 0.45533285678203517
P 4.7265045201321785 0.8792280736553784 8.264631097694664 0.7473880644169258 1.2125289084283184 -0.3761554778199199
P 8.78979635243367 1.7411361818135365 12.483132561126336 -0.09916230672447437 -0.6247922092598595 0.13707296572731875
P 6.332368706734203 7.773520039591855 1.4123515179645394 0.5611311807657885 0.6121961177624038 -0.9466485594165827
P 1.7651730515303885 3.2605456144547214 6.125674294907597 0.2941581129105063 -0.19739541676646005 -0.3569246546147659
P 6.916670463917676 3.9259706735456543 6.022255912295963 0.4533484793621547 0.08187652306083318 -0.41493902634602087
P 2.3092622409302934 8.572793559927664 10.185764535848463 1.0586388711436607 -0.7355964710986364 -0.2673211952233202
