# total energy = -340872.73524363287 ev
CRYSTAL
PRIMVEC
9.23894555330086 0.00000000000000 0.00000000000000
0.00000000000000 9.23894555330086 0.00000000000000
0.00000000000000 0.00000000000000 13.52213070418006
PRIMCOORD
 96 1
Ni 7.982042508370545 3.394000587749824 5.909779340479202 0.46371953818383366 0.8255768542135264 1.0306560127774895
Ni 3.306101259051791 4.4531348365710395 5.477274731039772 -1.0482277031126657 0.9249160528354974 0.20064760515517058
Ni 4.344106039223396 9.244119436840801 3.4649787875314755 0.690101829100947 -0.5345685997859116 -1.4827317960748077
Ni 6.792325002053219 6.191756580496891 9.019383008351548 -0.014056478093066113 0.571753436366325 0.23479751156400208
Ni 8.015542925215097 7.771043468134508 2.4291562463170364 -0.38287685570415353 -2.3660509993051253 0.4921358845429976
Ni 4.812418954125075 4.24299501827834 9.983862411432058 2.147444752789005 -2.309629940202919 -1.2730629612576334
Ni 1.8916741171875293 7.463201799833221 9.026225371483118 -0.5586441526778766 -0.29328368072535294 -1.3699976642031695
Ni 1.5541199997488795 2.6623592445791395 5.0879049109450305 -0.5597340433079457 0.7760957167642635 0.0007798155888180118
Ni 6.904781448228587 2.3882766835999685 11.14533276538851 -0.35300629339696626 0.9509091344651495 -1.2210012075653873
Ni 0.07753785117702731 7.015889008342371 11.104292445017526 0.34945945658597233 -0.8605667400251503 -1.589673489634385
Ni 2.2013173798861376 8.386976256269017 2.366048704315273 0.011447836825625446 -0.011320824329457923 1.26815395399179
Ni 8.296268288100288 1.7084473475071236 13.026463397826175 -0.9416441642234556 -0.8593809472471651 -0.6607825113115393
Ni 6.951798442525864 3.0898729755907075 1.4060446464966223 0.888608733764031 1.3454580271905925 -0.6989168562894157
Ni 0.3318573835648632 9.024943929724614 12.073274910196776 0.7546933398290874 0.4009203434694257 1.539377312482994
Ni 6.8945816522560595 7.279226675557004 11.384457927797705 1.105622696092367 -0.8871077237384721 -0.5992932936578066
Ni 7.151294995455927 6.3956693494367975 4.837744751878601 0.8614396295484067 -0.49318592307406667 0.7012048809926439
Ni 3.4317047248547925 0.15155751185918276 8.877346229961287 0.43982062007904904 0.15617909042915037 -0.0749078050524839
Ni 0.6972022494504 6.613514448382658 13.441741993143525 0.5302558313431707 0.33045154802490184 -0.13063260941861374
Ni 4.87805242386134 6.045457876488761 11.366392093518103 -0.040120522169969614 0.9796985478930159 -1.1339799070788212
Ni 7.325171952161514 3.7190266949178694 8.768101241285965 0.5641843657698155 0.5073925535917521 0.35695550785270136
Ni 7.537076409069027 2.328805590597106 3.888356242585706 0.13433936884623962 -0.7411312848739365 -0.7704207778666732
Ni 3.9120744638000837 0.652958786630436 1.142345736507962 -1.3607581478827724 1.8563573083840226 -0.2720358270901702
Ni 8.027673660823728 1.1823540666523764 8.254354887367528 0.7390062681111338 0.21918243073456448 -0.3347411765391912
Ni 4.137440064486557 2.4579013778472225 3.5400396773858263 -0.043107115602119314 0.15362495654872896 -0.6507058438018277
P 0.5232171970809719 8.51233950948571 1.0896430950716516 -0.7678252492253551 -0.8462215270470717 -1.028623555728493
P 0.3499786515182289 4.168981824858124 3.9809156954581435 0.4168521842083337 0.007892258263883182 0.5853476301109919
P 8.57495184400185 7.931126679018553 9.041261755491533 -0.09356038715666466 -0.22866080253864493 -0.04787779751788528
P 4.310051285641207 7.096341746864809 8.82638143419747 -0.35487985627059526 -0.34476719331662564 0.37644781224935814
P 1.9487708011641787 4.34900268040586 7.341638524953033 -0.12806973378744396 0.35344980869228804 1.0693336318533455
P 6.662942807488657 9.181497863379036 12.167307974896765 -0.5412917774423581 0.9106127488389479 0.28029601021643336
P 4.748503928275486 1.9410193257828827 9.608244761903537 0.6127219083588867 -0.6135696010711627 0.21580194429810579
P 8.509401524776232 7.940993872948498 4.491591947744633 2.3974233429688194 0.8569911068587499 1.0725500819081142
Ni 5.851292195185645 3.9759525338671633 5.032409336245592 -0.917493020898549 0.6673797049130828 0.030646007020631093
Ni 6.884862281456151 7.658956579784231 6.952484896185971 0.1080027878342398 0.4855178650058477 0.08582753728878123
Ni 1.1207487772096099 1.3950253560469539 0.633468306935106 1.3283043982294414 -0.6059709627882983 0.08343692556941759
Ni 4.080158601597362 1.6112074447799014 11.830728566221797 -0.5819267773549011 0.41176731348625856 -0.9513919876388389
Ni 5.543238031134931 7.038274973597293 3.1750366524884996 -0.47076127552196345 -0.8075097122991706 -1.4316725155051473
Ni 9.61321531465102 5.447892112261303 8.648916994904805 -0.3071393556615227 -0.33197749775112506 0.13893418730577362
Ni 4.466503590893728 4.863658146574022 1.2566601346489779 0.8544207750284124 0.7464118165465855 1.5005641962705383
Ni 5.6822379680975015 3.9147722359232526 12.760685725071376 0.409784735838591 0.7013074680087793 -0.06081250330168236
Ni 4.71924418747386 9.492369905846074 6.5985833883543945 -0.5159705250687501 -0.8177347324612884 1.4035724148348214
Ni 4.364256179636515 4.804187053571161 7.576490675009607 0.7628691907716604 0.43667950334690603 0.8435318960300504
Ni 7.591734011400073 4.689799667759688 3.3292300355351476 -0.4885628224797585 -1.1001020233844538 1.7515079785770997
Ni 0.37785532215944956 0.6997300249740265 3.8338889625345836 0.26886591400262083 -0.6326515574032782 0.15526429192436486
Ni 7.668140091737757 5.491860254501574 13.163658968707736 -0.07735703792392483 -0.6798881217927387 0.09596436861246699
Ni 5.086501515104246 8.414508314238342 10.399992837536242 -0.46438648234387114 -0.15882938356780388 1.1709202317485963
Ni 1.875866281219237 4.371213105693864 0.33085680575342774 -0.09502591595859763 -1.578832947375455 -2.044256612734589
Ni 0.6790837531807227 5.39830669107964 5.91241613556123 -0.363408976787529 -1.3211958122091183 -1.0913885547708557
Ni -0.12046568813966534 5.005402050387898 1.635839397716818 0.18476178716284955 0.3440825085447751 -0.7144607175612856
Ni 0.05060909635716653 2.693004827224859 2.4119422428242703 0.6067160684844389 0.08611370107063235 -0.42695970495598085
Ni 2.7333513027792318 6.3967872618577 6.741404553228413 -0.21015143088054775 1.0818577324622851 0.7154935297011742
Ni 1.1609381906883192 0.6269566980569923 9.632395365773272 -0.8567643355599245 0.29378530295211985 0.15084456559011442
Ni 3.380862807067818 6.886987238950428 4.329137099518062 0.1379006038349367 -1.0256793854985045 -1.3865134024700059
Ni 8.926161123077634 4.419671375508997 11.360712913641008 -0.3454739895756631 0.4689676739566504 -0.7786416231145686
Ni 2.720324389444754 5.024582101510151 9.495091699227872 -0.7288072160909449 0.8630383414940943 -0.49589226626163635
Ni 5.646150646477309 6.803356303132203 13.544983514950234 0.18114835877997834 -1.298539765372499 0.6379284895315013
P 3.8673856838008844 7.428167718014539 1.3396203230146613 0.825631618710862 0.7999272719662224 -0.06169233480347439
P 6.773209623550357 5.736211888452127 1.778403719902397 -0.14810634072334491 0.6847945579554207 -2.0896715505342787
P 2.3614190686614376 1.3659319162666193 2.643225388185023 -0.7095576238327135 0.5075709881511452 0.9210411432611235
P 1.975905584471528 5.880071510814652 11.385904746682938 -1.6430822442728281 -1.8099527529775536 0.008128799754721484
P 5.582836152093494 8.366401124357044 4.915957046086421 0.13438050649682018 -0.997459985641495 1.443341210092327
P 3.919502576084424 2.520947942807846 5.795193317336743 0.626102700541167 -1.9960229745391818 1.2770445716132006
P 2.247207222816885 0.5558232839888022 12.287790293138562 1.0674284444108328 0.17480159062634412 -0.3392745456331705
P 6.039350933429124 1.4529443061844318 2.273002359008277 -0.7911302424998826 -0.728563732621571 1.0231525053115926
Ni 5.9063101163961536 8.757615037998992 1.2881926560749168 0.4344015059460067 0.03182125827565488 0.5172211096463996
Ni 0.5279734062899006 2.7777906312464946 7.516560406409068 -0.04985471873859801 0.7522561911425045 1.1903541721034918
Ni 5.048529448576086 6.3497517896691695 5.828782428059317 0.16571325517183072 -0.04713706269711882 0.5838563902774461
Ni 8.01123757655278 0.3274199179800761 10.510819533702957 -0.40206371304524946 -0.5553413135568888 -0.8834472441677496
Ni 2.8316814010904743 7.735510483251952 11.08306319575514 -0.3605889908402306 1.9343316681769718 -0.3096358968311313
Ni 6.072407880883565 0.06967920402645483 8.681302271012143 -0.14002073550173302 0.7064900406509832 -0.8313968033294133
Ni 2.896418693100892 0.6844358743826113 5.066214638295843 -0.9621296857713172 0.2975074889987135 0.49789129896953604
Ni 4.236370694263573 8.545405695885778 12.741512141211063 0.4796644915488642 0.5529311614534993 0.008655104571836705
Ni 2.2996012834692436 5.944134359794277 1.8104776435420955 0.24577252251826703 1.8735183935443411 0.7557816877972597
Ni 1.0940020296186068 2.6330255922124954 11.925112710855624 0.5039562742166934 -1.005434004985907 0.01746036156829251
Ni 3.481327101818964 4.077423873691684 11.844210035681138 -1.8349335912926075 0.4467834245501273 0.5927956017486048
Ni 8.174323444765696 0.5849869397559042 1.6570557124553258 -0.7004967991820259 2.535013871762505 0.12912002942882925
Ni 3.3231748305710225 2.5971045716135936 8.068101439099621 -1.0681228993746958 0.12295503826869794 -2.7269971163744584
Ni 5.739722687790497 1.5162033668944834 4.987962616621827 0.060779078960585646 -0.7481285421273761 -0.15294644242446562
Ni 0.811060243677428 0.6875152149601871 6.644694042085634 0.026186171477064576 -1.1650933406541741 -0.3300828518315735
Ni 7.813246971759966 7.898716457758021 13.5841972957707 0.645003908321044 0.2631128135689275 -0.7199034858434118
Ni 2.608644014702078 2.6673944699460126 10.096312390345487 -0.4968677428010282 -0.5677790250996092 1.5463712273023238
Ni 0.5882030167287637 6.291435564869718 3.4944972188106656 0.04970816585840471 0.5611597200108788 0.5923610853143475
Ni 5.5417043661608005 2.6523257496279027 7.550000770107043 1.384684833901699 -0.8219780811186748 -0.6774414600244592
Ni 1.5655578144354638 7.972701934341355 4.96889620453079 -1.9096218241351173 0.24177677109531265 1.0380880435755027
Ni 0.18153142315779813 7.3201644436315245 7.0528863661068515 -0.2046415568059121 1.4665294752833324 0.2832430086598993
Ni 2.3019849314410843 3.6935179660409228 2.5647969026495248 -0.04790993630740136 0.008534262723256268 0.9980243427853973
Ni 3.358920311203006 6.322136581189201 12.929752886683396 -1.1675793403008214 -0.5680793299488475 2.325373833300737
Ni 5.9034922379798305 1.599104426008152 -0.3501394091721437 -0.2991452817124525 -0.37284723938229336 2.1892048674449263
P 6.629368479079087 5.096387186925446 7.081986273149126 -0.22347205924885385 -0.008684158037559238 -0.9013907160200477
P 9.036464894921844 3.545168216103535 0.05435271712534425 0.3445828452199614 0.8695170072399026 -0.1406992496259964
P 6.76890427488804 5.053010337205321 10.965055067152335 0.5740342619807016 -1.0991432590156103 0.2391766144683042
P 8.971625974509525 2.6790632582732785 9.860067007288317 0.4847979561206876 -1.1150596731355507 0.12583056004428006
P 7.464153411232831 1.1976168048286586 6.1918240247999705 1.1176354042825267 0.7191545234925292 0.05238134181519366
P 4.158015196398531 4.701311394011292 3.624093756913781 0.5981416965518667 1.4181585401791124 -2.180000832348155
P 3.8241843740476784 3.117719157711358 13.828813163566195 -0.052937728539295924 -1.364753899305727 -1.153779972523884
P 2.6157487638894636 8.544315500301758 6.971929181153165 -0.8952280388527615 1.036799406671066 -0.32508668416856273
