# total energy = -340862.2591507819 ev
CRYSTAL
PRIMVEC
9.39106742357949 0.00000000000000 0.00000000000000

0.00000000000000 9.39106742357949 0.00000000000000

0.00000000000000 0.00000000000000 13.74477643805185

PRIMCOORD
 96 1
Ni 2.1307673968275638 9.365129013576999 7.28844195509443 1.345832636921192 1.025620764346427 -1.97033405441351
Ni 7.228266814174914 0.47462453330717597 5.832361690412773 0.7952612339491207 -0.14320350410508886 0.3987307920172746
Ni 8.50229654679432 5.804928505080424 12.811024270153215 3.1163318118888137 -0.05098009059229285 -1.5777739099833215
Ni 8.405164739354742 3.128587062695274 2.161751344645933 0.15484365944717848 1.9710578199534121 -0.6622845497783626
Ni 5.974202490297318 9.540385108562724 9.498148784095983 -1.4415861750744334 -0.7149286583366397 0.34733366849222114
Ni 6.191248834060584 5.377681905499696 2.0872679738303566 -0.16646581706713912 -0.20300530675406975 -0.5669573005292623
Ni 8.695987306577866 6.08390893663872 9.376947671573975 0.5111759318935841 -0.6118924704790558 0.3806037433992607
Ni 4.219490986064779 7.945810081218867 9.55127217269931 -0.8075932731519124 1.0555697453000337 -1.0589988255862408
Ni 3.9625232158850348 6.805171066270517 6.534994760156928 1.1267743904693175 2.6238408579992427 0.03286923992419501
Ni 4.727059382902655 7.05679531924702 1.6314772256744976 0.8903056618504795 3.5075464980347015 -2.591098630571215
Ni 4.398559854309758 1.421075061913504 2.196209048199765 -0.13718943670052502 -0.9440448032451484 -3.4593246869138357
Ni 7.952308699680453 3.3580108329504044 6.390949876814385 -0.49226778213517164 -0.7736081744557193 0.6108550303534769
Ni 1.8310702711561766 6.406595394671324 4.472082518956808 0.8106994228810619 1.1137466107510818 0.22928043840051482
Ni 1.343767797208623 4.764210444512532 2.6646176341662997 -0.763290337469479 0.40262729885820336 0.10333237894176397
Ni 2.431215807870233 1.2958263994537134 4.898747811481506 1.2389253961439761 -0.3945761464189527 0.35371437520758436
Ni 3.196137008640634 3.6372448233215082 8.518915918313782 -0.914868181681192 1.9635887652698762 -1.9240477697524607
Ni 2.3491097078562904 4.378040372606628 0.577267958051816 -2.4512609576145654 0.8524487389037061 -1.291057598062841
Ni 6.103658350836286 1.9877508353369626 10.878261889353785 0.9368295164436319 -0.25703961079165405 1.046864761326868
Ni 6.062375219684359 6.68639284907089 8.362706785703475 1.2922487901574649 1.0190477391146 -0.7985242209711086
Ni 7.180682276971362 4.154213678367546 8.830413858954575 -2.0562130137655164 0.2186309291064686 -1.6562306087293281
Ni 5.6607192780629125 2.314193720225976 13.160224528045065 -2.1795076947618206 0.5432818112891934 -0.18531380301157763
Ni 4.140521502475938 5.721169577249662 13.192538250970602 -0.09832772663832097 0.5992773528182066 0.18249278862301474
Ni 7.151166152947135 1.3736313907170683 1.2138057581507546 -0.2259878836921721 -0.4528877376756523 -0.23172092952120735
Ni 0.8487824912330005 2.4297695835305158 3.5726248903241458 -3.2822229873994053 1.6938905851739472 0.7124593708605407
P 1.7920222139838133 3.374698759259998 5.152820315661673 0.712618007925592 1.305643466296816 1.8165296348641229
P 3.0378787451801568 8.57418516575883 5.051644714711174 0.23484019187647945 -0.8062845816428179 0.893701574905906
P 4.319590370720916 5.74572721782343 9.192630135903878 -0.5879837821822583 -0.6513154523613687 0.3195919796025786
P 2.094020151104751 6.685237747812543 1.4493863120235382 0.9503324360260731 -0.34197728927631427 1.3061011226595247
P 5.901186943275884 -0.0982756394173513 2.6242078722584883 -0.049654944022966094 -0.4106596822443766 0.17890558549238866
P 6.595252542467286 1.9250372889692278 7.259097687598883 -3.9144479987882255 1.4552888693725066 -0.8229227044201313
P 8.583548059698428 9.231850988711637 0.5560986145025275 0.3337680139926445 -0.004234606906637868 2.492568558114101
P 8.099748453794474 3.3826717752627244 4.31513149204236 -0.33763392470595405 -0.8890177962769914 -1.3728361620932292
Ni 4.464024983349812 9.40177295756126 7.485143491003389 1.4427866231404378 -0.6404157747297293 -0.2781666225782564
Ni 2.8170196281576367 1.751912966224515 0.24677094947802383 1.4021621647508562 0.522592401260642 0.014938623587703304
Ni 5.213281884128991 4.284843422299141 10.77079145609866 -1.1466865560122124 -0.9046027951994421 -0.44963297818378045
Ni 6.215393267680147 5.732776936235964 4.973506340564313 0.8656243570537157 -0.039964713318395684 0.7238370165698631
Ni 1.7322668537655002 9.047025396309213 0.7283965233388305 -0.11291076665881845 -0.2444718014289725 -1.284479687735007
Ni 1.4860612465293657 0.18783542942112147 11.592825370793891 -1.7138683138474546 -0.512721164893517 1.0784083404611042
Ni 2.1091867245374987 6.164465510574392 9.201934805227202 -0.12974249350417655 -0.8871622311254914 -0.5480758902437272
Ni 5.133974322123073 3.561975420186229 5.00999814926089 2.2060486784751427 -1.8540811107553359 1.4622555304983267
Ni 2.5774722875244858 5.0960531930076325 6.4931425303362555 -1.693883900305728 -2.0566986951526838 0.22425675993367827
Ni 8.283653721617078 7.216199292898701 5.838121231890361 -0.6681492360892557 0.33088760712105597 0.9734757069117558
Ni 0.28284297747339765 9.059571862009616 2.62481265698237 -0.6333478121393544 -0.5688586313170332 -0.5157594374992085
Ni 3.8441112503039077 0.6591477333476595 11.893300076824556 0.8924810722352435 -0.321736279639091 0.3028921503493945
Ni 4.3342873907966135 2.249545614027191 6.708274974616182 -0.09223421214607341 -0.2404228281705795 0.011245491006832246
Ni 7.715212427571108 0.799820284479862 3.5541517221510444 0.003542980156251962 0.17724002486450766 -0.22699241369728648
Ni 7.898441538559559 2.4403720983327277 12.607450351310458 0.5543630088040195 1.7152680224084589 1.5874492282895563
Ni 5.078595199192475 2.453904626082938 8.979957212108186 0.9772315744097622 -0.4782215884547506 -1.3415692336591476
Ni 1.10972362192011 8.455087652276408 9.021906169920412 -1.0301626180808388 -1.2044343043456418 2.3854959954036143
Ni 3.2402656331362896 2.7532355001358253 10.512128598299961 -0.8923980256031341 -1.4589498631638618 1.8595963841466103
Ni 6.442769785298536 5.111961660744521 12.76499301545479 -1.713790666531984 -1.3088758571911847 1.5984471220619567
Ni 9.264034175803914 6.7957142616595085 1.214841592856409 0.9608423344184615 -0.1421773768334197 -0.0737772909924665
Ni 8.296951472688765 2.9713148612846036 10.216780475821581 2.154937461621624 -1.1971094885494546 1.72386039206316
Ni 1.4182107864354927 2.770787404622393 12.286125598013301 -0.7314711360763532 -0.4901733614999881 -0.5082073361835635
Ni 8.565939808809015 8.559206413668903 12.405168643306306 0.14555786326987835 -1.9165486331619381 -1.7941985754670908
Ni 0.7265633870329035 1.9759838282092639 6.787101713984479 -0.10546073813867644 0.22800645678409764 -0.8920951496507346
P 6.137118723059742 8.086140797507136 6.242753202688796 -0.845200284871409 -1.0721821570457342 0.7328718730786217
P -0.13357290437359096 7.168408152218048 3.924532592872751 1.2610474248539958 0.9792241793597589 -0.031939529021074026
P 3.8703874561644827 8.142139730869042 13.222254404724932 -0.43719012443473737 -0.07071227891389757 -0.17792059587130002
P 1.2490588850914315 3.7373629901119276 9.548867120404493 0.2438197696672704 0.04442069220722027 2.004289328313032
P 7.994840842762134 5.2879033036315395 7.259069514397461 -0.32483703005160186 2.739166918967773 -0.7330688195807762
P 6.368768176227294 3.601990757274117 0.93066132742213 2.5455708213427446 -0.34735655131035664 0.2763635079312466
P 8.724320156142324 1.0361258287359325 11.42108435223905 1.3551798824640469 0.480695761026856 -1.767366542875911
P 6.404933175787364 8.527558517403664 11.437770400335216 0.15477861053719794 0.28018750966302713 -0.2072293721377463
Ni 0.4947833980320906 4.358910768840369 7.684553410675819 0.7088798810393986 0.18471602152657868 -0.40529996059436
Ni 5.203261615489523 7.705351807073036 4.311502783699069 -1.060358682048245 1.2131979094708847 -1.11379057661514
Ni 2.9037836974735254 8.475175144891052 2.7712222110310223 -0.04820664161221375 -0.1811473303387138 0.7661059525414031
Ni 7.582018922310015 7.517295687574101 2.6395876229153377 -2.446894196005437 3.404366842620717 -0.8462297545771877
Ni 2.0418903374049457 4.9986584356881085 11.696460492228624 -0.8069810934892102 -0.981632274580619 -1.046938551987597
Ni 3.6308964619341784 3.092346934598076 3.4289227809322504 -2.345825673397186 1.3477905319785113 0.31550546823803083
Ni 0.8333576634538743 1.5624106223858623 9.104938229154458 0.7444991729049049 0.0606140141376311 1.1036748283373767
Ni 7.8835942614096055 8.243337870380678 9.384493394021783 0.3090625408261645 0.1445080818491253 0.65084648314475
Ni 0.3687496423593109 9.511460621768382 4.9187188548636 -0.6148132436702766 -0.7254275009854344 1.274189618662909
Ni 5.788428400113651 9.403087706961005 13.454486104055228 -0.23942472592336828 -1.1835173516873168 -0.28901410681572165
Ni 4.362272770876855 3.794676672873576 1.1872600286632318 0.11049290124594519 -0.5948026048763047 0.5633631554201007
Ni 6.360156567658978 2.8433991357567634 3.27942074847406 -1.3330506546651752 0.03594839307015099 -1.6606819596324625
Ni 3.074672946238675 6.973684375048989 11.315757899612223 0.9104854792324641 1.5837823209609305 -0.23465173001475717
Ni 1.6629138229290636 6.984211761314073 13.053661271875763 -0.7665736362064411 0.16253640010574588 1.5541760680587233
Ni 0.5888415091964095 2.18309442293733 0.7153401226926698 -0.5564970244278867 -0.592324061428825 0.4069943175776474
Ni 1.1945061760692433 7.163928613191782 6.988173852540869 -0.2736239975128965 -0.6321278236893243 -0.32127682350416925
Ni 7.788368840599658 1.1608673735701078 8.622455250863675 2.761982631310708 -0.19044906735561395 0.7820370219493628
Ni 5.492328053157274 6.607028940662125 11.08448878466388 0.5776808575943534 0.08743936186059134 -0.15626162284062764
Ni 3.839612929143359 5.6630764359153085 2.912820721383329 -1.6508765435062662 -1.8305814849714988 1.1733021017172114
Ni 8.024488441726337 5.559145495865635 3.3612845589557643 -0.3500932335152293 -2.760925650801103 -1.0447937377304524
Ni -0.11021544218044477 4.983604555061053 4.99186869414515 2.925295247460846 -0.3310498437305331 3.179236164722518
Ni 4.806423291311419 1.2181247099289096 4.299599606097826 1.2082742469170222 -1.4982432614468455 2.4040596173384143
Ni 7.112822425810348 7.09278188853141 0.17145553011375356 -1.5677021275696164 1.5948534911734273 0.7767860579630687
Ni 5.141102142083107 4.676281882871157 7.338967774526549 -0.10458244929878119 -0.5181834735596689 -0.357854622628203
P 0.7486755937231503 7.054982843288803 11.078866352766552 -0.19304742421040944 0.09815803382967611 -1.3040781786922249
P 7.298962767612516 4.862149883726235 10.874275381352422 1.209389334358072 0.44975099181888345 0.13198243857828884
P 2.7590955260318224 0.40566498818394836 9.967313350967371 0.9694879259086013 0.3358315813898926 -1.582583929777455
P 4.102684892964766 5.212605727294838 5.016678015318299 -1.355034615135434 2.38572739468813 -0.4664989007011837
P 1.8615912393644931 1.2363621623167715 2.4371960394256345 3.3413892133469165 -2.410040003291565 -2.9794413944859466
P 3.619955868714889 3.6498382443576167 12.56743970975614 0.45212283448516977 -0.784776789478029 0.2073414722355784
P 9.417174307672536 4.338043817653022 0.3118181760303023 0.7909466657341668 -1.0093742205805778 0.6551646509041297
P 9.34277827378137 -0.19821631503880557 7.123353568502289 -0.7453288678950518 -0.10588445593965636 0.4989171691308891
