# total energy = -340854.92614923324 ev
CRYSTAL
PRIMVEC
9.47496546050908 0.00000000000000 0.00000000000000

0.00000000000000 9.47496546050908 0.00000000000000

0.00000000000000 0.00000000000000 13.86756969563545

PRIMCOORD
 96 1
Ni 2.238678533391297 5.555646045269612 8.755803339462421 0.8957062640407607 -1.6360554193330341 1.1896309207842224
Ni 3.239604418231813 5.498341453674506 6.518242852005022 0.2226130536826682 0.5128702888768716 0.1815805612213905
Ni 8.856904064280089 5.207507386377583 5.648108444003078 0.5330987001086045 -1.7685608202943284 0.23329033089085627
Ni 6.767228838994718 8.761131112586416 6.419589510786727 -0.49272081051219013 -1.1967464487830808 -0.4136938410850101
Ni 6.18348568694728 7.83263186434527 1.1640326791549933 1.9519637794364384 -1.0613804384445398 1.3061905970495375
Ni 4.215999617285337 3.1289368207068726 2.051332882228506 0.8110555206689 -0.9610061136898351 -0.7024775770574806
Ni 5.524056510154188 4.199257353173473 0.3152984283251247 -0.8676210757687702 -0.5005418492185056 2.0739464264895378
Ni 9.594255357686633 1.7247469274537701 8.125216905274266 -0.9540538507417182 -0.047909422086769106 -0.42563738660013145
Ni 2.144800574805928 2.384877251696934 8.111280178459246 -1.2448569311370625 2.241276391329185 -0.7120603356499092
Ni 6.973754662903206 5.053122297844074 12.776163868246472 1.308996441929449 0.6838491633230158 -2.7871123364988
Ni 1.883187301239049 2.5081844532542608 3.7927112166973047 0.8517221451503266 -0.1524041967677504 0.9952498653640538
Ni 8.168917341344859 3.3966045972547816 10.65337269089694 -0.3873809142220942 0.007634119506490078 -0.5992269591962454
Ni 8.975578007687613 5.7111965545647285 9.484904780371963 0.3164331222586228 0.13699660396342858 -0.7294769884644599
Ni 7.832480264896606 1.2210293343700003 9.385224352888967 -1.1219689986608743 -0.6639315984634824 0.8105554411040299
Ni 4.04765790450917 8.07772079800774 1.635555286825236 -0.7875985751975404 2.003522111129705 1.660618710494695
Ni 3.113170478045785 1.7897546660341312 6.220714721553016 1.2097258917618843 -0.7082273350570641 -1.3518639307169364
Ni 0.9588475628706306 3.7927055317179796 9.971614810308704 0.8865618785373313 -0.27286809318347843 -0.18747995742496099
Ni 2.1476620143994665 8.932286890128413 13.900713418493403 0.24082289182247554 0.4300478569630013 0.12438637139858578
Ni 4.108070284801895 1.8709930205871144 -0.045660806441133774 -0.30732036132407714 1.3080693021294891 -0.07164096137575404
Ni 6.657736137196926 5.813042959170515 9.497149278341269 -1.2745891680941728 0.2575407187977887 -0.7444701194391823
Ni 4.5745228384108705 5.729208464059155 1.6886397287681498 0.691239542249816 1.6605194659126692 0.4202002747449602
Ni 4.281746403177936 8.503990022755135 8.170800016997958 0.303639055817748 1.0241493220072233 1.3809140540053573
Ni 3.229049306618561 6.293906935368142 11.862998904237722 -0.8451223804456219 -1.1319852452462957 -1.1515600820544296
Ni 4.649289791498997 8.690997417648093 11.017201892725726 1.2152229103207135 -1.1645791200219169 -0.2751124091329649
P 2.247224952309747 6.3498376569597275 0.09463406083558255 1.297675874710307 0.2035105285252624 0.8797312287687429
P 9.378500917340705 0.3685003598407534 13.028151524319723 0.35848582845429877 0.21381885242980597 -0.1209115254761079
P 8.340414217646352 9.072336355797605 2.541412209911814 0.14168578190898182 -0.010868567283387734 -0.821650779686243
P 2.909108145178092 8.561010365383995 6.427743666131757 0.7530977132071933 -0.0831283931900633 -0.5007508799055183
P 8.738552269700977 6.407615996831909 12.9948280705102 -3.809202976204782 -3.3270861664606826 2.411198028155409
P 6.109438831240309 6.564161377508885 3.1969320159224743 0.00751893408486447 -0.15092761222222395 -1.5721750757393054
P 7.674485214491778 3.287595118699606 1.1918729704056383 0.37734281325980173 1.017684025997854 0.6851133747474201
P 2.213986773190099 3.0799038740295117 12.896313063788812 -0.23432237169979647 -0.5222653569385263 -0.4115945353538201
Ni 5.530840585481916 1.927880713698394 11.062714889704411 -0.25418954293736873 -2.4206728004150633 0.30168424608422234
Ni 7.836725049459207 1.3216818933175556 6.640513492332107 1.1147272294967963 0.9863656755005464 -0.7520461320142274
Ni 2.424141508900988 8.387609021008657 10.9735744138898 -1.3118416246877278 0.7260594781424786 -0.6533126852970554
Ni 8.465389013138987 8.623033489818777 7.897068262503478 1.1934852615333058 -0.2694305282568392 0.5622400975592511
Ni 4.588754236654232 2.372086048215883 4.1690217906339315 0.7598036644724592 -0.30835163080206895 1.130696351231543
Ni 1.6530688131321796 0.20137618013667213 2.681184059090638 -1.0391337112311974 -0.03572702108796427 -0.9604157884040041
Ni 7.105958857104019 8.19842238404115 9.948608646477343 0.885487671636546 -1.3646551689443336 0.19417356739505268
Ni 0.3626097737635911 3.038915173096901 2.096707544710286 -0.7388478881563985 -0.514594727767146 0.08448902098301579
Ni 0.0766344687963591 4.6559506922746845 12.108066045479447 0.9571440596312677 0.017872766515362768 -0.21150511669496475
Ni 1.8724521652805082 8.213478104286622 8.3252154254212 0.8671672760608033 2.864236175365996 2.543785190197232
Ni 1.1100774878788138 6.667523776601314 7.240882366415248 -2.5649088595497243 -1.035287855122546 -3.2996982613660335
Ni 4.1253336720185425 3.580267329311584 7.778333679316488 0.32438117346110584 1.8612467752658395 -1.0405989829228144
Ni 8.843610687625338 2.564749997537129 4.334448056512973 1.1988611811332384 2.607952211793444 0.932033123496253
Ni 8.963469001725551 7.5482597235476625 5.53927614730353 0.46675523968636384 1.365845589708009 0.11550783796203333
Ni 3.4817276876797876 0.17149498130838395 4.159507977733693 0.5900427215938161 -0.9080370176919715 0.9371128520120053
Ni 7.615351954547158 5.813147183791472 0.8535977506423301 -0.03997396928977632 -0.10300302062680325 2.380842298681687
Ni 5.785679258686608 4.062675724892478 10.78955163314242 -1.0294702199995045 1.9303444013944497 1.1290547018630621
Ni 2.193189223826465 7.099970678881779 2.3365880898145828 0.48952184395891823 -1.1893617262832354 1.4406788327688156
Ni 0.8836911886987484 7.303985636921764 12.618115758034614 4.237045597986348 1.6343428075173012 -2.8827396334868225
Ni 0.547116725250143 1.4680511610029396 11.031152831989058 0.10794108135836894 0.11281743561406378 -0.15499612586464273
Ni 3.1601757820972605 1.4509204233038735 11.241121858375333 -0.8832706093805691 0.3564418014410764 2.132087039386012
Ni 1.551279258319642 6.192316354831975 4.846674168653027 0.44628643030905074 -1.679282091232153 -0.15089007411606917
Ni 6.966193640401074 6.295176580750705 5.107731261742618 -1.5095818263881162 0.6054498001775057 -1.094608090149418
Ni 6.7201193103222865 9.088178498183023 4.057789485162717 -0.07644532474293286 -0.6720421433857587 -0.7124709408247666
P 4.185736577345725 6.210404064050735 8.717224122267018 2.308406609318779 1.1951755047515353 -1.4653120579364636
P 3.488350688593309 4.044730140156841 5.01889493232189 0.2483089157868756 -1.1369721569379259 1.5218398178198627
P 5.826620584791511 0.2329098129554012 9.609837886016214 -0.9673490251887276 1.9744827864745609 -1.407102282364951
P 7.605412715694105 6.693968405427693 7.187242691491601 -0.2859125850722624 -0.14956955553243273 1.035877923298061
P 3.490321481425945 3.8057241343720265 9.938734784886526 0.013387477050499525 -0.5797603658312015 0.05759399636438468
P 8.050309722696126 3.6972642038182597 7.835745338022214 0.6331302968119096 -0.312642544867939 -0.15147859962968752
P 5.5423052937871535 6.066214038439901 11.511815938917204 -0.9238583009949444 1.577665152319599 -0.1648431938620516
P 6.39395309652104 2.987532434965244 12.825865747491065 0.334016896778657 -2.5759743733352667 -2.0370801495908077
Ni 9.240905467746767 0.4401083594173367 4.535291743586211 0.3003285033872763 -1.9572605090590034 0.053128504393863345
Ni 7.609107952255298 1.6720945439395494 2.6037887505612947 -0.5018595395886647 -0.39893699449080966 0.8355334512056062
Ni 7.7700970917712455 1.4495465533003535 11.888431606744268 0.022706954679212507 -0.7919437395401135 -0.32825634014579597
Ni 8.80370213276446 6.933741883421371 3.1467459659387114 -0.37799767323498124 -0.46675781078952516 0.06848878890001754
Ni 5.992394581905927 4.230373140011821 3.1043805525129176 0.9746818114047149 0.5026190434625085 0.16057696238652988
Ni 0.47652254698650215 5.241948886121004 1.3391347798450333 0.6969599896733609 -2.399144182314668 0.4377359696358784
Ni 6.0736613613555335 4.814173141852509 6.800780639473791 0.23378912490414577 0.05439091604605471 1.5307507471562476
Ni 5.186056064391584 7.029097936631217 6.744187617790852 -0.39380507258088304 -0.8704649729754687 -0.5228600530997318
Ni 6.244163366275166 3.041577638414068 8.894881621163606 0.6027138893035813 0.44317205304978513 -1.1776431522947266
Ni 4.425945903754313 7.385404015820036 13.403435959488204 0.6560426826337089 -0.24678219472970403 -0.6075953857655987
Ni 0.43022312786787 7.329833342919027 1.0214505551965543 -2.21274588798966 3.3866663400171615 -0.555455984757882
Ni 7.354458778361435 1.311628954878004 0.2839249224240473 0.6834658118416681 0.06125113350099774 -0.03648781051338878
Ni 3.1122135065260914 4.7175948180878065 3.161112856189316 -2.042824765384069 1.3436204597612216 -0.23404289278616466
Ni 1.0516548503498082 4.321257009486071 7.2516298198289935 -1.2562628589811589 -1.3583114861144931 -0.4533824179238837
Ni 0.036185840899614866 8.470657093980071 10.09639536900774 0.6453641198739402 0.010474931389394863 -0.00038052326787031243
Ni 3.0563491096932958 4.3664525951191155 0.5632004792568713 -1.570324909904444 0.35685369216751445 -1.1723250825159228
Ni 0.21094115785083548 2.68321549170274 13.655714497003578 -0.4754921053387295 -0.6402347690671748 -0.8887398600252564
Ni 5.720444120933251 1.2027331759093272 7.564080073512338 -1.0523563805690583 -0.24078303972347564 0.9956285888597111
Ni 4.198148782205116 6.929951897204765 4.124659054471986 -0.3328570721426009 0.11878496605140833 0.2752772168456033
Ni 3.8810880102892678 1.7962355424645302 9.119771823284665 3.5098556057838524 -2.293428390742392 1.1429103767992317
Ni 8.198990881973641 8.083851100713103 12.056271146346734 -1.070598614608698 2.5792317039303 -0.5660432733554251
Ni 5.5158417150296914 0.5583066595546768 1.6684068873507902 0.26560421253221356 0.2998225102851353 0.27760406520656705
Ni 6.925328114020503 3.329540791151911 5.374765163095799 -0.5840348248368394 -0.9433315792282077 -0.5089390721432654
Ni 6.240960827922134 8.978079398590575 13.055609974459045 -0.2279555489415042 0.8845186228550572 -0.5035744653972424
P 0.3534796969677835 4.652985028060189 3.6227502323100924 0.2364579299855605 0.005392631770481036 0.048076543792252686
P 0.9815590552736514 1.7734766752338018 5.831521036969585 -0.5694846949368063 0.45164846595191255 0.4928089993506222
P 1.3130975745369393 6.43569031973143 10.370252193047369 -0.5976166772863322 1.6137428718787625 1.8914842339941427
P 1.2193901653313175 8.048680028622984 4.072808253042578 -0.5555405740518884 1.5840224619961945 -0.061135433858739874
P 3.541344170867024 1.1416764979597795 2.169539709834834 -0.8242069704491934 -0.41248285149604447 0.3326141028938594
P 1.9599250471598109 0.7376355423727886 9.456766975203314 -0.7883742770213004 -1.6707876806078965 0.630289742039321
P 4.082222578804631 0.07600817357406468 12.845960254411517 -0.5761060569080658 -1.14145538952026 0.0021175605636350628
P 5.834247932052435 1.0124569179045446 5.498782987068741 -0.41649377242765045 1.23394285532772 -1.6924749357733433
