# total energy = -381181.3791473401 ev
CRYSTAL
PRIMVEC
9.06115952447723 0.00000000000000 0.00000000000000
0.00000000000000 9.06115952447723 0.00000000000000
0.00000000000000 0.00000000000000 13.26192288012464
PRIMCOORD
 96 1
Ni 3.4978341145671177 8.514019551135837 8.263331698845345 -0.2718067417984996 -0.049149208031141166 1.0947538716986631
Ni -0.005475658714935326 0.12829423969411682 5.533921970829806 0.5475130757617216 -1.417965193221384 -0.48979438089401445
Ni 1.381147244123808 0.7532406014967752 8.154172815884971 0.4862544860615561 -0.017340548160976587 -0.30020354777363784
Ni 4.61818306457663 5.925092228522605 2.3389525835791796 -0.6863395338450373 0.3088648229930616 -0.2648483082027955
Ni 0.690335313565788 5.186471807956738 8.756542392557508 0.17684047543324383 0.7459132796436122 1.3615315357136872
Ni 6.726125916055995 5.311941684219702 3.300415007028177 0.8831312555892274 -0.12161960728672602 0.06886314152030076
Ni 7.74500800144554 5.649850446088589 0.4691179765896371 0.5277667463727298 0.16173498725037308 0.16181006346268262
Ni 3.0764267674622077 4.886166858212594 0.5635397896609321 0.7477508470729832 -0.037607525940128776 1.2287127172770325
Ni 4.421157211362079 8.82015082646943 5.389857689058123 1.681215303699124 0.31796729951496205 0.6077285689093533
Ni 3.7184371049259055 3.4153503792004845 2.380263316075062 0.37691395325249927 0.02649778918021243 0.19535833173177322
Ni 6.770570903639575 7.755201805937188 6.409513597473079 1.3293742342548525 -0.4107820667548538 -0.3777328496093688
Ni 2.9795357884140468 4.5085067894060575 9.611856956363974 -0.08961811467946502 -1.2726736962390146 0.13482787844688393
Ni 7.5973201619705595 7.4313559636869995 12.205583975189851 -0.0745895024811167 -0.7560243999356852 0.7050024003618632
Ni 3.2025762306912817 6.829957743318023 12.545222512416476 0.8408474072193518 0.5005081677670928 -0.5803409209250199
Ni 4.999703187350669 3.3483612266611553 10.382600093643918 0.5209026722630449 0.516072340753937 -0.3124859646854166
Ni 1.8089427087101502 6.257926741044538 10.827484905138034 -0.36195398950855723 -1.478485362093628 -0.6333935777756252
Ni 0.05155256113313428 4.530869731170844 4.287526854810068 0.18013842945822525 -0.4762626649561668 0.7989731355830691
Ni 2.8334608353386335 0.8729802004615019 2.4711467463428116 -0.06252460089678263 0.08617926420124512 0.9108153517680571
Ni 3.7942427657055666 3.6417887563082685 6.9296069393326345 -0.5686598850426658 0.8573752296710461 0.36711676465641935
Ni 7.044969998235614 2.0364049968468727 0.4341817698358647 -1.0955524563405585 1.5011468082468857 -0.7394976059252554
Ni 0.5104278029695645 3.1889301244117974 10.333491327240916 0.694206852408256 0.247513930689406 0.8210853941010763
Ni 7.671494814031557 2.108658683083666 11.186909390353957 -0.5781241157793592 1.1858228598920417 -1.0324946086481253
Ni 8.294947896740684 4.041050629477548 2.0038237854596592 0.045160398586722224 -2.466200352533217 0.775643202607877
Ni 5.109560685712205 8.122758681847557 11.77238352893305 0.19419207933781393 0.32933671769416833 -0.7097687114022551
P 6.35606816011034 2.6716104034899244 2.713575351705182 -0.26347842443846237 -0.1546150883761402 0.7696826141490679
Ni 2.73774780703173 5.897510058858095 7.753715775771295 -0.47960535617615463 0.8827887846481441 0.16346045458191202
P 6.321363919041 7.330894887776876 2.103685918723652 0.40245940582177137 -0.3426254643832744 -0.2615909776077624
Ni 6.0239494791927095 2.9089584166936575 8.082425648466918 0.2899168211356491 -0.2652000351152594 1.0277419244544883
P 7.911851132205269 6.112948188274448 5.260408151521619 -0.8847801040465602 -0.6589745115685232 -0.046181640762384984
P 4.357774400322905 4.866495080833602 11.959761059460751 -0.325853130020942 0.081604243236053 -0.4271517663621288
P 2.236502583148241 6.778445051286901 1.8595338808152277 0.10735615538917638 -0.04808862797711073 -0.05003238196704286
Ni 1.0667521912823201 6.218093883670956 -0.029817557725033392 -0.6960500762645819 -2.668661356748043 1.7564699505680654
Ni 5.61426727254308 0.32890468762590924 7.5654765289705646 -0.1924774106395524 1.9115511799473468 -2.041732817871471
Ni 0.9368332856812235 6.8539516938014735 4.530949469374867 0.2889966233142249 0.08962839909211016 0.8046570733417239
Ni 3.68211091629745 1.9943340330649022 8.61204045677965 0.4669424159965055 -0.18904241681607442 0.9732476500613497
Ni 8.246207919531289 1.9683194440022194 8.598845596245662 -0.005227052726894224 0.10979330407575931 0.6105873785143872
Ni 6.639338129903999 6.162612403757752 10.539608241830106 -1.3645132440498307 -0.11926062013624623 0.6867722505070817
Ni 4.117100941565008 6.913347594639469 10.061410077257287 -0.5304463500874219 -1.5856777382114304 -0.22983759645556545
Ni 5.805349005094058 4.151805182634348 1.231448733345097 -0.11838053152413806 -0.7909618352428184 -0.004844729686811011
Ni 0.7658238337612642 7.986361047169547 12.126795380686948 -0.5207702604502387 2.2495993093725835 -1.4253769123044226
Ni 5.255880290095418 2.068345584254033 6.129010905805419 -0.0727647905675521 0.7189930582140004 -0.9342041630056428
Ni 4.552272190023529 4.274366426682363 4.730859489673589 0.7996223391312939 -0.01663092368846168 -0.6034361121815865
Ni 5.397805232097788 1.4403256771326487 11.847167090915681 -0.24712723677394863 -0.031323749813946054 -0.3531700726683401
Ni 4.4611441084479795 1.8373494438935396 3.9314704025981846 1.2027273489568642 0.8191485820896796 0.31162773045017944
Ni 4.18043844680644 8.304443991947124 0.9167863762969394 -0.7717927185135353 -0.6870614996127264 0.4522236217290921
Ni 7.617399691529217 7.862141610924224 3.87039909335974 0.016861551642029026 -1.174166763710352 -0.3051927734581131
Ni 8.903259781844882 7.293164219418459 10.022008531078196 0.2506722738127296 -1.567961808988906 -0.21475884774557208
Ni 6.522929413189166 3.9802593100691395 12.168609913653704 -0.12454526557395323 0.7926063128247769 -0.3282367997617702
Ni 6.631889856755436 0.7325711904515345 4.731164850750361 0.6414483297593018 0.7047396336187798 1.239514950098859
Ni 9.068499087364593 2.124760363600694 3.992886942015414 0.04288780050246162 -0.6405787826701549 -0.9995006702206077
Ni 2.489879787592617 8.527112926682886 10.660981567861361 1.557468622767066 0.6053011904147834 0.15609964334146664
Ni 1.6254814113391496 4.5731672239415175 6.1087601203313024 0.049314529964411845 0.599094290273123 -0.10262712534462325
Ni 8.567290108119296 7.854729582413854 1.3072797653714925 -1.5470859939811614 0.3874930143199262 -1.4621585999091464
Ni 2.4197735961687306 7.998956058941449 6.182032280901305 -1.147200005313521 -1.5475716753683284 0.11803420392831285
Ni 8.870277161089687 3.6206218876038356 13.06929370331766 0.9630537402474835 0.19983796476968166 -1.6344983592585594
Ni 8.353899800760821 8.508863751352951 8.121747456441987 -0.20893092820988535 0.8570481853489305 -0.6017620669132734
P 2.1676558929015446 0.5483061682286149 4.657441444434862 -0.5209718349380834 0.04359999607813782 -0.9060205014825752
Ni 5.120035386149844 8.933949929234402 3.095492353267429 0.9144408643357864 -1.2903466880387455 -1.2324361888752065
P 3.354767466461684 5.900228406722533 5.460888118755919 -0.396282330476782 0.5656789480374709 0.33978645227258253
Ni 7.442365272537978 0.7366813324225665 2.4508162226646713 -1.6905180691572885 -0.19487547855808374 1.420810890200295
P 7.767370943210326 1.4444031989293076 6.603667969226828 -1.6866490731201857 -0.04468782982567788 -0.6053549264708542
P 5.601916912078978 0.8490197762683802 9.560467496102705 -0.31094021746485156 1.3563651610213996 1.8167499784050452
P 1.485984860095679 7.574322939037404 8.656733720134849 0.3018598524301382 0.088524367394654 -0.2238487258619822
Ni 4.724171447811114 6.767861616934685 7.167724244982003 0.4115174022589816 1.1642001394159434 -2.3521307896796073
Ni 2.4437675466521807 2.469628096002545 0.6584599665073742 -0.3881697286719767 0.5291271170553661 0.4591748562359447
Ni 0.7529877951453824 8.722978951475277 2.9616526839298567 0.4267123648318651 0.5868784649332215 2.0230951481656256
Ni 8.457314814683636 4.134697713407477 7.242229629366507 -0.9509980946345299 -0.35825468628009915 -0.9588296748638067
Ni 2.180749268448593 3.873382933198939 11.905891559831161 -0.29600133676683216 1.4123095375975034 0.48861115921919074
Ni 4.840045556112608 1.5082843737436284 1.088671136229248 -0.16952928648381124 0.8994958129901799 0.4388207180596249
Ni 5.572268798037495 6.284584672435138 0.02441529440243792 -0.7253930482030733 -0.02513073362935672 -0.3899383905366252
Ni 1.1204123781263495 1.4091734106061757 12.368467379227049 0.10404534584838857 0.5211561830347475 -0.9521257804810698
Ni 3.0732916062585542 2.0789108962871534 10.976893458811205 -0.17156251486375615 -1.4486073435872728 -0.2081876222859576
Ni 7.508520798398879 6.147697735141529 8.314867949891294 -0.29260079572571546 -0.04102117960736806 -0.9160750575050997
Ni 2.4664566901606997 5.118866496568135 3.3768440755847493 -0.6698240526885174 0.20304747284591482 0.21326452258823272
Ni 6.224744774779283 4.835533098657639 6.636876212854772 0.06731893696163245 0.623297626992204 -1.4488688247787755
Ni 5.955936415624441 7.750082250792493 8.916402087653493 0.2539835975741497 -0.7200441251863341 1.1737183633190236
Ni 1.6660029168383896 8.673260369034685 0.7991797742898425 1.5709193489553333 0.03830583755873403 0.01823992004679439
Ni 0.6008029021866643 0.5878780642072109 10.2221314886263 -1.3906719047230696 0.892429907282334 0.5001831803275063
Ni 2.970882381045582 1.167983465754035 6.571733724631351 0.6728731239274863 1.6635448830025543 -0.9578997068503696
Ni 3.4033171593205673 7.505720900098507 3.7589731082804225 -1.910464374641071 -0.409072797373231 -0.5297518951235586
Ni 2.4376965697549333 2.8637069859102935 4.643423830613902 -0.6731461750832148 -0.40216809983359764 -0.5346081947745954
Ni 7.045713013318561 3.3429698367300174 4.890174609080732 -0.16208928526599825 -0.6770213417679051 -0.3204399294251707
Ni 0.26203423627666017 6.60767843844283 6.840167857896857 0.5225039553118938 0.44394955464575797 0.06510007493344273
Ni 0.7287301649190818 2.2820349098775976 6.387552065076275 0.09716275979594234 0.49437454406552916 -0.13947206208711463
Ni 7.417356472185138 4.224502865689 9.585890391446897 0.19845831081333562 -1.178954929127615 0.6122377696336165
Ni 0.028772806029133933 6.11933630575588 2.598766835766548 0.7407510187163824 0.16085078487320684 -1.0759794193046373
Ni 6.457725309080818 8.775905184395908 0.38052339522374484 -0.42490770752295853 0.3454575345154309 0.6182824331657997
Ni -0.049555481568726294 1.4716682280096327 1.2387801175354893 3.6805004939293453 0.6359227719553823 0.026266647006012826
P 8.58486875764267 5.451927538078772 11.396965190998722 0.3495928968400431 -0.8773154202383988 0.5580278592501163
Ni 5.088810630346986 5.175453437946211 8.58820870105211 0.2384255952348926 -1.144063002346436 1.9245684181426208
P 8.190019669173331 0.5791784449250507 12.43224344459061 0.3127955255060355 -1.4411686279210405 1.3741700504133043
Ni 5.517956207706 6.680240204104261 4.696073698168316 -0.8334840248757451 0.07279872912928108 0.4770134270792623
P 1.2505578127161494 3.163694795070253 8.354679966597915 1.1818931858203323 -0.5719604101708086 -0.7471834046052873
P 3.324077319072165 0.7863310500505933 12.800089371490566 0.4396018192000236 -0.5526881922047577 -0.5225913728193774
P 1.2878173007780627 3.1840824040535476 2.479647926230868 0.36418699260413406 0.10019023376835648 0.4595854614108021
Ni 7.427586521314978 8.87332171069786 10.474797392046147 -2.207077633960289 1.7342288797816776 -0.8214515191912433
