# total energy = -340863.8221276363 ev
CRYSTAL
PRIMVEC
9.30526295953521 0.00000000000000 0.00000000000000
0.00000000000000 9.30526295953521 0.00000000000000
0.00000000000000 0.00000000000000 13.61919293167534
PRIMCOORD
 96 1
Ni 4.767616723731042 4.045044427790589 5.586960965095849 1.4507213046064822 3.0967456622267697 1.4234922936871999
Ni 6.399694747502276 8.392565740295549 8.41557207296545 -0.7795841895334961 -0.0008212103497147147 -1.1948078369994712
Ni 5.247740387688693 5.27642851405227 12.809845819232496 -0.2800322150320855 1.5833598887115312 -1.0367857798243112
Ni 2.530119667372394 5.548467882926467 8.486159938346187 -0.09489478969737206 0.3118035939064114 0.6815454548905037
Ni 3.5512141111785263 0.29730129733732935 11.892238929282957 0.4488287371149302 0.7358389261267456 -0.5637164249944615
Ni 1.8574887188835505 8.465909824628246 13.490192691944719 -1.9091711097509443 -1.264406571134216 0.4840603066237147
Ni 5.080738829515777 7.740006244471718 12.266153249905798 -0.4059993006542298 0.7644036251383158 2.016477899959424
Ni 8.996300520248576 4.966330618798888 0.5028964345219008 0.7626606743052801 2.392281393756564 0.816552025007097
Ni 2.052527034997906 5.066455250544616 4.843924534384466 0.577423747278225 -0.28272184604910666 0.5899540185347517
Ni 3.7245153325198306 9.393290963015119 0.6457908473915035 1.7175761017163451 -0.40258436143540993 1.0328972434031822
Ni 6.3966798422340965 5.84658990447569 6.6402832573767165 0.7311435775336054 -1.1290714140336104 1.1322986627216562
Ni 4.736192849994487 6.7766509586565 10.14614909900602 0.47150329589431056 0.15116621059559127 -0.21788016698337315
Ni 9.513235805320178 4.256041270247316 3.2363016727592298 -0.2017117847536268 -1.0534544987292438 1.403027855185261
Ni 5.297700345666651 2.077353477144523 1.8258163946202668 -1.4575581250226577 1.0726711808670106 -0.27485118505177825
Ni 2.687006404475831 1.4041083812862356 2.2541125342810613 0.572765422570607 0.592368027292883 1.13702100789799
Ni 0.4856240050194454 0.943200085781644 1.1709836230031756 0.40303404737831877 0.5260245668706425 0.330639752776308
Ni 0.20488700665707615 2.1394474983005867 10.870744359160371 -0.5434774722397673 0.6303434780953918 -1.3117266963764185
Ni 2.5493908674044947 5.907799925630281 2.4329327072105067 -2.6537438162062617 1.0637689932813745 -1.5329901780097277
Ni 6.700859590109199 4.120258870021138 1.0096443174712697 -0.12486253970405593 1.9465582921501512 2.452343392045467
Ni 6.698458832210464 3.6852750377176253 7.652923869589819 1.5960071451618965 -0.9786557084507984 -0.6478205518342327
Ni 3.9264488486456717 7.494356601957269 7.992913992261415 0.7004872861003292 0.00835402839165013 -0.4818944093206475
Ni 8.369730624468037 8.41460990875332 1.4225653707906643 -1.617280966939008 0.8594030587343522 1.2101259554137804
Ni 4.443961060034024 4.924270829255144 1.289836027411678 -0.7281060762588623 -0.15482591883536562 0.8139971197957271
Ni 5.295374029873302 2.208138951046587 4.455573097948103 0.8875640945496006 -2.5496241654765126 -0.3361061752075179
P 7.257370159457249 2.881588762694689 5.401889516366517 0.2405670670579276 0.2909725160936731 1.8268096766338924
P 5.657823335740202 4.04587259621302 3.1900777779453913 0.8437234432155661 0.4471554631775654 -0.6914909961389898
P 5.173893819144633 1.9416920453396 11.092424574266472 0.12856415692535922 0.6190689336228371 0.3203489123732612
P 5.859598662392096 0.2569555372701241 0.419361225961701 0.9921236610302462 -0.3203818224937257 -0.9595410991085345
P 0.2899854994304063 6.122500262830019 4.392026525210673 -1.3850267906221503 1.5135264128581611 -0.46164825747710175
P 5.489974998618507 0.21095403824612957 6.466446983402942 0.6761093714765969 3.462759166516681 1.8992474228793295
P 1.8910714136763325 2.6602816886418403 4.117217910016073 -2.0684532645854508 0.021253252951821462 -0.42796783450552095
P 1.3542507812031863 5.071368429500168 11.741515067979261 0.6090274902264351 0.16447526899967158 0.9354364927508471
Ni 5.490514703882564 7.659059760126356 5.889047959283255 -0.3775659850142014 -1.5910667704374857 -1.7821138763884148
Ni 5.645084430455825 4.172051964844254 10.712734476791905 1.0149717692730134 0.004689692166185471 -0.6092018110207701
Ni 3.037544973480786 2.738110909824115 6.053417989030736 -1.8900549577467833 -0.6851187740640589 -1.2785581800442496
Ni 1.5305576025494976 8.022458202836942 8.721785951370256 0.8231808431775243 0.19772940306711106 -0.3995581730145764
Ni 8.297251929610466 8.140309360927988 6.674058571117187 -1.204884761619499 -1.204048638871449 0.5821116396721976
Ni 7.535578917815407 2.648957183359819 3.230567769591784 0.08504797881027933 0.10562271763783745 -0.567394645176997
Ni 1.378732928612388 9.620339384445952 10.88500374444728 1.2527535602763198 -2.639518159525183 -0.5873824011528336
Ni 7.4473464124052775 2.21812349843164 0.19018655189574707 -1.7073708790485693 -1.546401823429943 0.08807699544459024
Ni 7.971130371172498 1.0090627385229325 7.138432146627552 -1.1051053901363161 1.3916262982165386 0.43578913032215266
Ni 8.580429698503215 0.8751162667208664 12.558558117761288 0.3655393928669704 -2.159180553168694 -0.3074877401398769
Ni 6.7379503691183515 6.474825442364266 11.374464309473115 2.235975290831246 -0.44034512512395135 -0.7623279735562097
Ni 1.5163112446310303 8.310902750685836 2.6429953012446252 -1.030490947954535 0.830168587349267 -0.5101644599099343
Ni 7.397153822847986 6.480594705531771 4.645085018263779 0.5673900171913068 0.45592215362660193 0.5633970939818297
Ni 8.616459677510601 4.700395502566439 10.761246535820082 -0.9629277561925804 0.4332596790320796 1.9252721290778647
Ni 1.2944365495246046 3.8879808906868574 7.157771275080818 0.5314225979577623 0.837486718277235 0.3018721937253124
Ni 9.045906878225944 0.23430280460081182 9.207936634285316 -0.8961662343963147 1.2526525159220814 -0.5441130489412371
Ni 8.86103921476011 5.031690787328813 8.556816662674409 -0.19344311698693137 -2.919888217512662 -0.6146427795306834
Ni 6.02470194687764 9.288895215472804 10.600743773447464 0.29028551732897745 -1.6557156167661227 1.6527393077466181
Ni 0.29600135207200606 8.377509824480995 4.982213772509556 0.7303581055178325 0.2764876922139367 -2.2137342200448584
Ni 4.340774996704249 5.863032304503078 3.5920483975623347 3.43741091755988 0.30937775807373813 0.7844448600599071
Ni 3.543974616429625 4.855542155456449 10.757433238971624 -1.9199170354135386 -0.11840315723195735 -0.16513604251212205
Ni -0.09583211384384106 1.891266824202974 5.308761512000864 1.214923891023056 -0.003285869840123373 -1.1690847212017543
Ni 4.899993397635757 5.028526997849859 8.449006814073774 -1.1084807343664522 -0.35846448829806005 -0.2979013820030224
Ni 1.7580992029285207 2.0077687191338764 8.297997281190653 -1.7310759359749928 -1.0600786889139808 0.9303765617294363
P 3.593590279670166 2.869370952148022 0.6352154157949402 -3.169034284488852 0.15531082889158412 2.6324807930624274
P 6.86291074827387 5.648229609408433 8.895635252712474 -0.46364266219931116 1.148593800337254 0.8990888073597483
P 3.2899688475854667 3.4446223215272886 8.79015451148414 -1.962702506010181 3.689162797590033 1.6878621195916803
P 8.942171804368938 2.976772299695345 1.3833557833569305 0.5007321108524408 0.2979646311407901 2.8918721919157098
P 8.392686708716802 2.617561225412785 8.914578907480871 -0.3209896312810537 -0.2559314653291399 0.4154499045441684
P 3.627359079726416 6.836427969282388 0.09471827384198572 1.1630696253559258 -0.36582401398692477 2.5029982380878573
P 3.8556730169488307 6.323568389480734 5.602228110384438 -0.3214660566968399 -0.7865827323385163 1.3666421174673753
P 3.559039837507351 8.57345075112317 9.891960947003666 -0.8626033108392047 -0.2061659638702385 -0.15157553021886797
Ni 2.7213056045329638 6.930867085229172 11.933667821983546 0.1676608658165048 -0.4739394161396289 -2.2927025683199616
Ni 2.2309461510845776 7.708480012840256 6.293265799956574 -0.7663710332773318 -0.6505194388226345 -0.03700640202102014
Ni 1.7274290555090115 3.694840848259875 1.7068392996852406 1.5684523754720794 -0.9533748223968227 -1.1589915986318104
Ni 8.03152152916783 5.87287727294053 2.483936715716518 -0.1555507128165321 1.1462790361611483 -0.18835130428632077
Ni 6.183998747142985 7.508770454612857 2.912559470114699 -0.8385226157409171 -0.295801047830568 0.07697471488384164
Ni 7.313238959550311 2.6387493096586048 11.148249639622618 -0.36947240937278947 -0.46209742919937835 0.6563319317393536
Ni 6.626101105774145 0.426734716500299 2.4472190777606198 0.9180198399362963 -0.3056008075298092 0.30548459366691905
Ni 6.209885989291369 1.4970679603884498 9.030778381358639 0.8960443641064697 1.551676441565321 -1.2803417543072337
Ni 3.5810374796492566 3.7197696483014 3.5810719091229983 -0.745522986183729 -0.7396914671036164 -1.7144434696246345
Ni 1.3338629495902783 3.8065691431828266 10.057256850436898 1.6248739487949178 0.37271328490759037 -2.0502542250789206
Ni 8.397478919251101 7.429926959744682 13.070476004929795 1.1847262843937532 -0.6718115154321914 -2.2155422197878747
Ni 3.3771591635201763 0.4419050870518846 7.193126622508131 0.8592781031207137 0.13364259988953114 0.20436747720891899
Ni 2.284432803805251 0.6888221064105503 4.867009031265023 -0.03613274116681519 -0.5568523508847765 -0.4757520438683355
Ni 3.549427500649234 1.5514479183737688 9.679936803492595 0.9287274561617876 -1.4483913709217249 1.3410946080155743
Ni 8.934829951725131 4.6292846813953545 5.8956537656100485 -1.7234371884828124 0.34506672683491535 -0.6245371558262599
Ni 3.2395157106593206 7.8663903288927655 4.022238158278915 1.1336268946147767 0.6575280089299836 0.40628032222975835
Ni 4.553065270742078 2.5488604674036113 7.614790901105248 2.9819929572632065 -1.382775018473496 -1.2977810328296036
Ni 7.015982327476214 -0.15060940656666424 4.734426711044177 0.3699084684689436 0.6775646158658847 0.5899691880434033
Ni 2.6200457306800815 2.980764257596731 12.36299963743554 0.9752253426130109 -0.07091076807794884 -1.1405609027304486
Ni 0.4335396554590027 3.1624216052677445 13.029700341703977 -0.13620496130006865 -0.5676121605044417 -1.4178443513728034
Ni 8.438254582476917 7.3033474647969925 8.77051575355669 0.09855449793714639 -0.537850612971293 1.4875377021038834
Ni 5.188865987590624 3.0520984050839757 13.140941971362963 1.7884501030190878 -1.352821409534199 -2.9419418548785914
Ni 0.7002833990612207 7.079639632845408 10.831276085410417 -1.4707319434004542 -0.1748861799203504 0.04049101813551091
Ni 6.526907000345757 6.773422032335333 0.6498367758192956 -0.5187588864471647 0.021561271110543512 0.17639181793159942
P 1.2576993705160417 0.6282290242043554 6.813519341875808 -1.71283524459725 -1.4660355663660496 -0.9162187821718155
P 8.338418413889565 8.698997361858613 11.059111732105718 -0.6132320152260857 -1.5307597460173121 -0.3593453482411166
P 1.4477500655694573 1.1528848861309227 12.814244417134562 0.8407805585371584 0.4551796190336226 0.23295377348704394
P 0.7710434118106669 6.238536894602252 7.433097262907857 0.5070115161032493 1.3478532668956464 -1.2513556514875288
P 0.4678602576214347 6.914815506255066 1.3415779432873398 0.9903346874506234 -1.1291416051499135 -0.3824343688500962
P 4.508688470668158 0.1312879581134273 3.069916123008392 -0.6270689211091781 0.06195510154655782 0.08286871177077341
P 8.720660014526276 0.32024900684923824 3.252154119101425 0.5975518854866677 0.17772004982471976 0.5297755492726424
P 7.466766496648153 4.575444428674093 12.710329751698309 -1.2624448194221547 0.3143433296091296 -2.4522621451855704
