# total energy = -340894.2485505194 ev
CRYSTAL
PRIMVEC
9.02341821235793 0.00000000000000 0.00000000000000

0.00000000000000 9.02341821235793 0.00000000000000

0.00000000000000 0.00000000000000 13.20668465487970

PRIMCOORD
 96 1
Ni 6.408882705847186 2.0645670848018898 11.209093893632563 -0.7901118285376973 -0.8915169085497614 1.6142046420065295
Ni 4.660144277979273 0.31965639089218967 5.7259696701432246 -0.543139372174058 -0.46977551456992644 0.5778451510863597
Ni 2.5350210343052404 1.7527538489226142 4.644817099993843 0.907983538746217 -0.536506954459205 1.150578949088083
Ni 3.2541964803294943 4.503966957496623 4.857616369056841 0.6263245867439858 -0.40099439124047065 0.9794514648792164
Ni 5.183755183512397 4.373244699475351 2.825702327335063 0.39462474026870104 0.5892302529948497 0.07611288110417859
Ni 7.270384525569895 5.983825572807217 2.7270619300281442 -0.10930685135764401 -0.21080783351762405 -0.9146025867246314
Ni 4.831950158611911 4.394233169977006 11.325022257678139 0.8224861311033449 0.12353430781093563 0.16530599243108307
Ni 5.650166641706744 7.8542718640140485 12.450892180907939 -0.4409130818122794 0.4335155037966275 0.6567273674055593
Ni 2.242508889742835 6.62775473529179 0.40204290517476143 -0.7404214032911055 -0.23022326192975834 -0.7370090351754469
Ni 2.692127766852238 1.6806206446275878 0.2987671779896396 0.7021644166924359 -0.24446100279569513 1.0143269366001628
Ni 0.6183441628025452 -0.06909772644603367 4.643575477663221 0.1360244698581464 0.6620873461658919 0.31014446103643367
Ni 8.46219758827781 2.344500584532262 1.2377395538137934 1.4191103625694206 0.49673096011284773 0.8325972513954177
Ni 6.833254059111519 0.7653338389753147 4.801752387596933 0.7272452709204636 0.023425578012791916 -0.38111076494266627
Ni 1.0564527677830098 7.363912254181097 2.5993399585252734 -0.5417898001246991 -0.2650599099929693 -0.40998502477485516
Ni 7.570728997043494 3.8836159865085365 3.9000656777056633 0.10322542105025447 -0.9058053001479754 -0.33296043048968466
Ni 7.67845958574481 3.9681112736011843 12.523991793281525 0.26152387181525283 -0.2626605565228573 -0.3961581461940919
Ni 7.702516018400619 8.743385343124146 7.289284074781295 0.49770566532129124 -0.987118751616487 -1.8551337203895666
Ni 6.873381199404237 0.7508440341896062 0.4604442718045174 -0.2508368244150519 -1.1427815645308512 -1.065510144342197
Ni 1.7315127227141462 6.551687320704966 9.23956776465732 1.3080798436524503 0.5980511937205895 0.33480339723569436
Ni 0.5160501835067528 5.211402936572187 1.3227419570036867 -0.2663521464418316 -1.4909112465618066 0.3233884705305334
Ni 6.319632077415599 1.8713125393444743 6.931448699564276 -0.011947145059547167 0.2269990985655058 -0.4502233034696117
Ni 3.3532826344905757 4.167393462349702 0.31475396783821324 -0.5402941894157791 0.6549803028074656 0.12618125851547946
Ni 6.043262827834906 5.704668087033483 4.94629942448991 0.964014818609172 -0.8962377110641985 -0.9191832641167782
Ni 5.451895075785477 2.776090672276959 9.121566721474068 -1.4661787768121328 0.7647126717383024 -0.021171748981608698
P 0.35073574985558215 5.631524259911207 12.364467687025416 -0.1510782788674753 -0.1739274155515069 0.26019384014991964
P 4.205517403824119 6.042125877154248 12.684756619526446 -0.9078549835881526 0.5555613999874948 -0.5885334840381413
P 2.4726962854854073 8.631774684639636 1.3170869808801322 -0.16202320791475322 -0.2978669292206612 0.031356917044726644
P 6.321256292673681 7.771734658649199 5.827040073944596 0.23616096757043195 -0.31553143637995984 0.3009941619957332
P 4.872609680572555 1.0739762457340907 12.565566289837555 0.41094867423970516 -0.46397536294838154 0.4623949058351392
P 3.823736583993926 5.916574037704537 8.333034576904296 0.6322553504061239 1.0782070230835752 0.0714239602689415
P 4.648116061651369 1.162441836790938 3.654685552907358 -0.6708604643728318 -0.6755355012509979 0.5288484094726827
P 0.2129662022978562 5.498672475218228 3.586882686958739 -0.08927590084869787 0.7912497987968824 0.0750805831849223
Ni 1.570300334931442 1.1730263062227702 2.655639771079434 -1.5552057948748184 0.4839525774012569 -1.3822764815705226
Ni 1.480887284974047 6.609392079457366 5.026556412100774 1.7230772340402325 -0.4598898800250983 -0.9186785565662178
Ni 5.89275221391934 5.603551663799801 9.184575445385915 -0.10103612670841954 -0.23648338390685725 0.45175850916721555
Ni 8.466934882780548 2.4339136344896573 10.171867322796189 1.3971803952655486 0.23448357986800905 -0.7480604078936021
Ni 2.138541066389408 5.303811761338933 7.131134235101886 0.2991000302968139 0.3354680274028868 -0.44975253448078023
Ni 0.6801726236268536 8.886731363067952 8.932090281175311 -0.3051513786972164 0.9513655052762775 1.0708138159432978
Ni 1.4625426759758247 1.2305415731950615 11.564023728221235 -0.7301282488952135 -0.7562750824939105 -2.0734843992514547
Ni 4.206897986793488 6.902373441760995 1.6674626963535064 0.5644990687967568 -0.33780233196301823 0.27044380001270196
Ni 5.500025987933296 7.792280981663932 7.990070697058635 -0.08914194637399488 -0.18626279718840827 0.31173083168694704
Ni 5.1200678985593955 2.8764491283902043 4.926067116425073 0.2308362129234089 0.04040257218676268 -0.04854654145013575
Ni 0.7458342324602345 7.559224138965416 7.009923562100301 0.26683885627026305 -0.5208124265420837 -0.3767422035613254
Ni 4.9083153459960505 4.271785386353851 7.09741733102773 0.12592311975808637 0.1924632695721653 -0.3082590710882626
Ni 8.099483250893876 7.122111719343241 9.19582764775718 -0.3610553889536879 0.5314033146840526 0.6095162569373955
Ni 4.632740157208196 0.38825512231726833 10.353102675343798 -0.2250967393364704 -1.1664218296576103 0.0763674203171459
Ni 8.17176985329661 7.111437015730404 4.752848168517905 -0.7066535628120411 0.16449943736938766 0.5420152858719439
Ni 7.088138550195033 5.940576329851743 7.2128701609394135 -0.47094382384641476 0.7694820681024878 -1.031036793155676
Ni 2.7761628596217625 5.069933787593275 2.650278056044144 -1.1716637947828403 0.9063555162244906 -1.1735946932569659
Ni 2.495706001641564 5.151379159367969 11.367772505612658 -0.7330472223142215 0.27970748470281503 -0.30992180350266624
Ni 1.1502421755191248 3.569510802431746 3.748677987550733 -0.6487543765024117 -0.5298637381110745 0.1977024064839176
Ni 3.5449039412718086 2.759018365230901 2.5812994387170365 0.5423515861654402 -0.679172840893269 -0.13912702004287006
Ni 1.0355455080442588 3.319291418506167 8.128450227679952 -1.0171158121992097 -0.1564768241752273 0.25375888315785333
Ni 3.4364695259586573 2.2148882069373466 6.859327225712781 1.269637223405536 0.5844971091852386 0.5625563432480892
Ni 4.285040787543417 6.562461281916907 6.087093178916049 -1.4963668703597393 1.1816892973396422 0.8356113556313932
Ni 0.8277542360270127 7.558574452862183 11.559295457136598 0.5996110820085416 -0.2182421783084822 -0.06418296243581205
P 0.04575594850378024 5.665750084766227 8.069983892439872 0.8697862017408892 -0.896894627921907 -0.26076693904457027
P 8.509119362400169 1.6013860102875044 7.86303540767321 -0.14972433594274212 0.4517070871039897 0.8544171754839865
P 1.6562122986658607 3.2553605012644526 10.321711106114131 0.7782500441031048 -0.7842252878499333 -0.13793582794824633
P 4.200716945394677 6.1975542539345625 3.8280371450606023 -0.019836575109952934 0.15316807151696846 -0.3067529188563814
P 6.7370914924149865 4.017622768718373 10.371962521515558 1.5169701484323874 0.6678085649203853 0.3493941505656757
P 6.268036172717205 7.774910901820559 10.149706710283285 -0.4659702818912233 -0.16248986313852662 0.6022595753749821
P 2.6851797349148887 8.41563675087947 5.658034159948529 -2.1725065808536392 0.24780935044263772 1.3970304999512455
P 6.896860133301618 3.80212549764334 1.5727447788948548 0.20483413243269238 0.6209178139061177 0.4091676710798824
Ni 5.281352473686903 2.9911909129555725 0.3376490865844942 0.46495083948777344 -1.0269927049932892 -0.06537878251612611
Ni 1.3684103783518926 0.9981163697635772 6.8929511885805015 0.011409270278206157 -0.009557818891764186 -0.6095008303184277
Ni 6.739347346940099 0.7912644355705883 9.061370596984132 0.6796698351343456 -0.5386718233210078 1.199266386991457
Ni 2.6412356887656796 1.5047452024316461 9.063800603478583 -0.1410898001961957 -0.4556917827833507 0.9979958035403071
Ni 6.250882654908243 1.808509549365317 2.471406839038852 1.4884933811489331 1.0270104456051024 0.6655344241742279
Ni 4.242233692074865 6.742586754038162 10.532700277506178 -0.5242965284359422 1.1063667733472429 -0.3447229703422515
Ni 8.223546226357014 7.125107494152592 0.4016720426908328 0.1436768441970816 0.5993159193656259 0.825793855320339
Ni 7.463151806449886 3.6816538425841836 8.157518266748754 1.222382147073314 0.3129847586987061 0.5516301832538886
Ni 3.2773686180114594 8.570866612461574 12.363820707947612 -0.5163117104582527 -0.3384600201516752 -0.20469195042787328
Ni 9.197479835611373 4.995066487613811 10.208265084387987 -0.9107096794281284 -0.9958982975813301 0.4808240590746041
Ni 8.655452133735226 2.4172383578400187 5.7052879958569855 0.41862341717614354 0.12981936948869902 0.28022427643823355
Ni 3.6600337328154966 2.3482453030439507 11.333461860627494 -0.5114608101238546 0.9761213720647189 -0.5510951366860251
Ni 1.1655910097079965 3.4203988183217495 12.477371401323719 -1.0776069276057314 0.7222778996128594 0.700397297489684
Ni 3.154280171703171 8.399403621716754 7.822199929059606 -0.5559570927640167 -0.4989719336282246 0.18868066260128152
Ni 5.616743901062664 7.994676249657107 3.6192785626229877 -0.5055004787753616 -0.199818681495972 0.029639934353619925
Ni 2.9795146099335854 8.4003330337811 3.573186942965871 1.538399779061073 -0.18699581869969087 -0.5148204706247069
Ni 3.3466053050962397 3.87791318626905 9.034996950560126 -0.22954063404043692 0.8189704046406024 0.48214714876140197
Ni 7.22373345399055 6.362529407065156 11.625131217939318 0.763330446678795 -1.5689216017990142 -1.6741807654498457
Ni 0.5675089322500197 0.2017870896132042 0.39083762457761806 -0.46659326018720293 -0.49229066495330703 0.3297974593806707
Ni 4.63699018713351 0.24754484280060451 1.5268507720941376 -0.3350203983425069 0.47875792057419486 -0.39057576701030794
Ni 6.034573276204169 5.43863065117781 0.4523683126046114 -0.10022262966818869 1.0623613143005703 0.2760948276508922
Ni 8.014690191003913 -0.18662052846996174 10.964242541134944 -0.25687068931395757 0.8625868557789725 0.8634417475801001
Ni -0.06128434871285088 4.978409257800374 6.029842298094101 0.10862499479927099 -0.9961500085808198 -0.9623181476330394
Ni 7.900986099520097 8.580828466044474 2.681406141465279 0.5475225888434183 0.9159349323828098 -0.29175721677849753
P 8.533482591271394 1.617231132471901 3.612014711052123 -0.09064449906145033 -0.19834698204645196 -0.4913619824914506
P 1.7167774809561056 3.228741417868115 1.527458950474108 -0.4684711939362061 0.11449302354427378 -0.027920894779984173
P 4.738278055311103 0.9289428466054996 8.20994883762144 -0.7347968580154766 -0.014297647569594731 -1.0548796612115445
P 8.37707066191813 1.6339876198844434 12.250124737540085 0.41246511088423155 0.01671628431341637 0.7746546134423626
P 6.344590851881454 7.606615130828999 1.4953662616580348 0.10083995153721342 0.4236825768666059 -0.7634996252668076
P 1.8295972774660771 3.410788878044767 6.0653548623702465 -0.8426633773821681 -0.5861287312513905 -0.8420565970361047
P 6.887178005679831 3.874592568408083 6.058302158782932 -0.6946364837465069 0.5054922512452457 -0.6998100575276464
P 2.3622496479358546 8.50676425027595 10.267510140610137 0.6250143525729946 0.19184671903408895 -0.04335574127781565
