# total energy = -381174.8681170706 ev
CRYSTAL
PRIMVEC
9.22178338194539 0.00000000000000 0.00000000000000
0.00000000000000 9.22178338194539 0.00000000000000
0.00000000000000 0.00000000000000 13.49701213162643
PRIMCOORD
 96 1
Ni 4.782389181032512 7.674404992724564 10.543514816748413 -0.8609017547670657 -0.19556093466088256 0.19200767009198547
Ni 4.885737707059141 0.37237561175651385 12.074426759738596 1.2026311896986321 -1.733607444147595 -0.8474134904726437
Ni 0.5270396734240609 5.361065308158143 9.623099686518508 -0.769334743891346 0.07508084029523844 -0.6003543879324693
Ni 4.5786338778685645 4.208997135767615 0.7532924392537134 -0.66978137237604 -0.19557430439732124 0.6681770040033975
Ni 4.018382873880365 5.878462684909281 8.944145887222486 -0.6883825324169951 -1.5737745590159413 0.2713560274143262
Ni 3.748378279115161 7.630361755435086 2.7540653101717933 -0.48783005807879204 0.17233076048834836 -0.9705680463466574
Ni 4.347665092032664 1.969357943750924 13.371679000510746 -1.374745206190484 -0.030722883005153544 1.7170932485426558
Ni 3.4966789243038114 3.77312032384876 12.193349033490195 -0.9214242376321551 -0.07380763000976967 -0.5325525977971473
Ni 7.199289492642658 0.5998825401220476 0.39845758161116834 -0.24787311380103763 -1.2360555307953487 0.4222720696723244
Ni 5.842091971368725 3.510373272581633 12.22745579921782 0.737947230719 -0.25147882887442496 -1.1283232230136762
Ni 6.76308991830648 7.210540068332181 0.7343425966435484 -0.46953640197592683 1.8576528872669942 -1.1814836090867393
Ni 6.003722168180424 7.035021865792268 3.219900929666512 0.2992139301668589 1.4664171180751844 -0.5863485605716805
Ni 6.075919510043765 0.5753996275006417 3.109022817532921 -1.0700324576925828 -0.7703045640037831 0.6885334561725626
Ni 4.400976221590971 6.107716219041697 4.780479349700298 -0.8378381880793828 1.3258276545541745 -0.74007841812939
Ni 6.9077428119670214 4.947708091185039 0.6367798174920076 -0.30838531225348176 -0.7311039825449215 -2.369325813401655
Ni 2.2194527082590136 7.194318951415893 9.226976138273749 -1.366717193679685 1.0199995615049078 -0.21016120107256062
Ni 5.704604403372739 0.5424086975586178 9.454063475496763 1.719277657788484 -2.429721797991209 1.5146055048549527
Ni 0.3023241788791982 1.1917033972377171 0.8885040711184077 -0.42957785930511827 0.5961195239155153 -0.23796588198965468
Ni 3.308904971688999 7.614094529602037 12.361319206356443 -0.7244638515205846 1.6951028603144935 -0.08081877122028017
Ni 8.000164489636372 6.092232844793575 2.219003607409768 1.6895824447168968 -0.21809022611165021 2.0723086337757985
Ni 8.100709593523971 2.4401207620906535 12.711958152573796 0.5957981360203546 0.7213690146453448 0.20984264139087733
Ni 2.4947967155850663 0.26454345466411 0.7081610315286916 0.7747610571132398 -0.6054258889181058 -0.2835877935938277
Ni 1.1578317869855705 7.204951667620827 6.799753884557632 -2.549241842436429 -1.5224771942935458 0.8783685440932615
Ni 5.702603276385341 4.487900751467566 7.860916483198478 -1.059643144038459 2.176667139989232 -0.2991774205019686
P 8.211905857183211 8.49472873080779 3.689772923734432 -1.0807187337618354 0.8521476627235196 -0.6729217177772346
Ni 2.179863592328585 3.4956368627850276 9.949214222089372 -0.5879179619413294 0.1999842605395588 0.799860423284029
P 3.2851865449074795 0.9384916699566285 6.934414053777873 0.695380818111699 0.49872382217316047 -0.6623549980049819
Ni 3.1494511157483878 3.0755016350481528 3.993374319607892 -0.08697707751219215 0.5036680535523133 -1.3052585721535714
P 4.474787375540925 4.186357657638288 10.225120758199902 0.041926722140772955 0.08544418580743349 0.09613586119332476
P 5.409581110373375 6.467799193589904 6.542852521757381 0.3673309375497545 -0.425766455978828 0.8372188093278291
P 0.8062282422295904 3.4160159853232708 8.265489029350404 -0.056629832678902474 0.2653704992548527 -0.3702977334875623
Ni 7.5987587038875475 6.221623687006443 7.346666501105401 -0.13799367776937524 0.41234966835228987 0.4191263249544911
Ni 1.3298272682849945 4.458409488307652 2.81001018105545 -0.21230524399875694 0.7302745446650907 -0.997191819581773
Ni 2.6974454047467646 6.037381677415473 0.40892153918076013 0.15631535889669856 -0.9637466525494499 -0.09456131761735327
Ni 9.154307563281115 2.3399076424037286 6.183210348453404 0.4956996906348559 0.5644070233035828 -1.0504604490979264
Ni 0.2172984141947942 2.212490261828202 10.683479355752763 0.5255645965150885 -1.2243824653327946 -0.5078332406735964
Ni 4.7051567454589405 1.7615819430454756 5.147544136424356 0.18870071720593953 -0.30599007254842786 0.5972312689224553
Ni 1.4324196080767533 0.36460533710406123 3.019565063769513 -1.4625280674334233 -0.8056135237177222 -1.2361311212282906
Ni 8.675309692407989 1.7186729851083025 8.178797810592615 -0.6149453983727666 -0.30211670563595067 2.4928503510205777
Ni 4.369529940360419 4.132834427062884 5.986221989913204 -0.1977887955501368 -0.6636372071515151 -0.3421822061982688
Ni 5.001922955511847 5.828268518123974 12.198707811796083 -0.285070034566309 -0.7031236952819117 0.4328542160635448
Ni 6.331925437680531 5.606761282007295 9.948390716836032 -1.263868953463191 -0.762982319310757 -0.39562515650875735
Ni 6.711789137518925 3.005683513289644 4.569197226964393 0.7678962116726066 0.16910736845504423 -0.7824260298576653
Ni 7.667516320560568 0.8475077110484533 5.271730204113317 -1.4943922631318713 0.345269843984657 -0.126944104823433
Ni 2.2764802165082036 2.8373583017643433 6.187623893965704 -0.4145657021670021 1.1189883187659955 1.1808315773250375
Ni 7.816429678129766 3.8345742881069422 10.52154207355544 -0.39179729812223496 -1.232956837265367 -1.354954139606486
Ni 8.380406282592201 3.727804480456697 1.9994882764971367 -0.028525361133202486 -0.1316019153104185 -0.5174494236071218
Ni 4.195625549907117 8.71678005214224 4.7865943142410545 1.534622314296512 -0.5159347867348083 -0.20462613018694434
Ni 8.84042572332677 8.219513828448667 1.549119432040506 -0.3123250136275202 0.79862706509756 -0.19508039548003822
Ni 7.875273877699313 5.683209865995941 11.671892227707477 -1.0218106465717176 0.7483859095538209 1.5182492722551273
Ni 5.524004998205837 9.174466381688736 6.825992624729272 -1.0655769930243906 2.126690550960789 -0.17309309257566963
Ni 6.888432397627791 7.837768884806452 5.533586431108636 0.49059270842559377 -0.2381628284918092 -0.7929757803490537
Ni 0.5439478132000779 9.209241726709386 9.813974002696286 0.1473028709854431 -0.5099495156856508 -0.43004400030825934
Ni 6.651921319997298 5.465197685769697 4.897607064411587 1.9333451358939864 -0.5035839784789392 1.1927892639075457
Ni 8.643734306210508 0.05312023864291845 12.033976329243083 -0.16423487085409136 0.7266572596274776 0.24638135974685954
Ni 0.4373246319051302 8.868376948666889 5.276413947877833 -2.391002012823508 0.1866579757442979 0.010653365948788105
P 4.8796052211300145 6.260078523584568 1.2109750800868693 -0.5567389652353638 0.7312099119951665 0.7286925448899515
Ni 0.7452104683239608 4.233683849801102 11.86766607738021 0.0645945960519339 0.30504030704064883 -0.016904746175138628
P 1.297578691902812 7.953428491608091 13.297012987244054 -0.7743345110987826 -0.6542606510326217 -0.0712979762140385
Ni 3.6667931617994136 2.9834959025445684 8.281213092144014 1.0230946554904639 -0.2888904367536637 -1.1584876624121985
P 6.861108253555613 1.868056653628455 10.962381127096043 0.09282273765969175 -0.4107614979295635 0.17908170605893672
P 8.753252205299669 4.523091076739058 4.056567512206274 -0.9216723490872191 -0.2655489338142459 0.5138766186541989
P 5.020062203365366 2.5982743465786236 2.786876415338452 0.012739301943539349 0.14415301250255175 0.0964114834522146
Ni 6.1914223465284195 2.4757813983131016 8.747494123774638 0.5355934415060002 0.5563998367283902 0.35615563765922537
Ni 4.047597483539717 1.8877636046518247 10.40089163760366 1.0755819267559024 1.990364233591508 0.7078280427361164
Ni 7.985566406590048 1.6209313033597315 2.7556846553284164 0.8740853433368753 -1.4828780918446849 -0.3591088067502783
Ni 3.6567875268624195 0.7870681429589983 2.717475118187457 0.9860075208301794 0.9779525117361868 0.5795060837285503
Ni 7.1750362024267185 7.776287255198213 10.085750102043423 1.2307526305251963 0.5958757833358254 0.4709991025643824
Ni 2.2359320351091596 0.8709826827494781 5.041538814613997 1.3320304409307768 0.6755488709874365 -0.08993718858178058
Ni 3.2930435043234416 7.622753784169629 6.6958944717332995 2.0829835969911414 0.006749145798375473 1.300382475008193
Ni 5.365058340349589 7.544875823761414 8.369376107524792 1.4557120729528543 0.06194327447201591 -0.7491778093274968
Ni 2.562005072654939 5.618629717181408 11.108122191192129 0.31078595127517444 1.1014168855411355 -0.3451816551462249
Ni 0.5386858636193879 2.5305587914243866 3.9026743916269604 0.7221796834720982 -0.25773329442456905 0.5506752755397871
Ni 3.450533120410062 5.325321675885527 2.7638099686399236 0.42749860817858637 -0.7184652107349885 -0.3208052831843894
Ni 7.664851225171821 8.894197942052681 7.86986437958499 0.2628230502426506 -0.6021557028072663 -0.02709685621679204
Ni 1.8572302799731268 2.0110219609355684 12.635497580266794 -0.06137788888684913 0.18976361125281513 -0.5007789049299762
Ni 2.2437336638250094 2.5005049994799964 1.7361344318854435 -0.17634245275090274 0.4935764736442661 -0.8698882745363922
Ni 0.2637199494107703 7.202323459365489 11.381922471985046 1.6496609259316104 0.06773519856344462 -0.3454616482804889
Ni 5.030768693837117 8.954683619058896 1.0363560014237818 -0.3303062806962892 -0.30466801130289467 -0.5710610382849907
Ni 2.159013140169559 4.985000983060803 7.588721714887157 0.1314641041809736 0.25559567925627596 -0.20157628761702703
Ni 0.09848680184341795 5.989769609968745 0.1134740441471992 -0.1275244028069352 0.6907060383438491 0.3365635744599107
Ni 2.1530189809907148 7.63358937960831 4.6698852684939505 0.6572529008917262 -1.26832133280759 -1.667097890461135
Ni 1.1800009541639425 0.3481850296673686 7.337772091062331 0.5934802865204553 -0.005410886602926165 0.6140573393408586
Ni 5.981792767369206 4.650213360247319 2.852471882500048 -0.6395038044384213 -0.7892142564240924 -0.40331686872606026
Ni 3.6295924877571704 0.021947844377922316 8.793451803288006 -0.9775203092947746 -0.3971768172665934 -0.12563978418971267
Ni 2.316668748356517 5.175845789531853 4.904638674217539 -1.1512595200948754 0.00019668939183837094 0.7532774333181672
Ni 6.356252502163287 2.6383614388100636 0.9026143218254071 0.011902407864540792 -0.3044265847160499 1.6376435897557604
Ni 7.839493358293288 3.8947556462625395 7.850834307459661 1.5775684788407347 -0.017246188674957395 0.21976787092438926
P 6.273422444095011 7.532767622220148 12.141425782326378 0.6946336555330295 1.3292029987843108 -0.5605100022420217
Ni 9.078356955593481 6.661945398500996 4.386987698424218 0.49911308719177916 -0.49229940670405536 0.6256560999220515
P 8.944281447437763 7.322990494527301 8.74362097476677 1.2856181722148246 0.02028240439811991 0.2531690720926543
Ni 1.3826773086756976 6.917388797353285 2.2289096470865597 0.46344288748367923 -0.05078648652424801 0.7407921563669629
P 6.131277875506232 2.657625744232534 6.615965586707583 0.1841544925961538 -0.05561578959209132 -0.23099767820193767
P 2.5683681031678662 0.5365058340349589 10.617843312744418 -2.0732476006503 -1.2789551583723522 1.114356219310623
P 0.7715266714757578 3.973804773156468 0.46078669310946213 0.6845199641377953 -1.41134743079455 1.287807980777292
Ni 9.252952979798188 4.838937156547394 6.210866476726256 0.6105241293766195 0.2803821421723365 -0.630549937679243
