# total energy = -340862.3307473343 ev
CRYSTAL
PRIMVEC
9.28565995950300 0.00000000000000 0.00000000000000
0.00000000000000 9.28565995950300 0.00000000000000
0.00000000000000 0.00000000000000 13.59050195962739
PRIMCOORD
 96 1
Ni -0.057247021255860814 6.528357410277691 11.029372072781182 -1.167938266302137 -1.7495115169723612 -2.792211091177946
Ni 1.879946826879988 4.063655442918785 7.667869438673658 0.29186160356684576 -0.5727983326910716 0.867728290770596
Ni 7.815526286608354 5.441703071748371 1.8644806319109264 1.0165275437959074 -0.229122829776728 1.2541869502887368
Ni 5.382822702933037 4.650899140225098 9.20385499797261 -0.6775566454460847 -2.166822385984668 -0.7229934376226452
Ni 4.830539514787698 1.8902167666228926 10.071350122380714 1.0677547174019997 0.8936699503370222 0.8105065901439654
Ni 8.241357359546752 5.051798216590532 13.13619821134319 0.23161628562254302 1.6455885556344498 -0.21680827407543307
Ni 1.5081118657001709 3.8222190023624862 11.461155253653759 0.31408801906521394 0.8429662533345677 1.2586074479539355
Ni 2.0639886041895465 8.490890895451887 7.690253450196484 -0.9889138958436968 0.09650841404139507 0.04447108582918147
Ni 5.947335105039865 6.406167412920654 3.8611157027142524 -0.7327039800421897 0.27755238603302523 -0.5096864918322512
Ni 4.773005566643902 6.749931824513851 9.611760104659943 -0.8617551039062966 0.2091232467263495 1.5256064839511467
Ni 2.3669239696258257 3.24840236913234 2.815422266711064 -1.3522673368029423 -1.274200417296186 0.25286645325057094
Ni 8.579113949246949 8.923119787995043 10.392248596707272 -0.07763291729313082 -1.3883111178003769 1.351197243667215
Ni 0.24861796984848905 4.8228602741300275 9.249613800919319 -0.7622215298853325 -0.353205811002282 0.31368204187604687
Ni 2.700102729042792 1.5145468279441427 7.056827523856413 -2.3731318174113065 1.5165729129939687 0.5756735973563376
Ni 5.1464469469697605 5.396732621318996 6.676347613399341 0.6286735465921366 2.8134730858805157 -0.43291643676004793
Ni 4.58127526301687 7.211586972974969 1.3922379741416175 0.9678691593582558 -0.8709180013524871 1.2194734580669515
Ni 2.4892996801789375 0.4252804333120385 3.167524272242014 -1.5818683917676692 1.7447377497328018 3.674089962417311
Ni 0.24714990703352227 0.4823445270697662 0.735417756492076 -1.891795080366342 -0.06590251623008005 0.4549533619554294
Ni 8.188382670366579 8.13537083854719 6.160098356688283 0.5578373405058651 0.1517961308701063 0.9358890069072334
Ni 6.673547986968522 0.8070529076137876 1.5029601816410718 0.6769074418978599 0.29962736355519365 0.15692445323560716
Ni 5.361214972569801 4.408459848409999 11.810023992441058 -0.7381128097625869 -0.030169067384212562 -0.7850940636081318
Ni 6.904305918750552 7.0936776647874416 8.436644070878605 0.044061251985272505 -1.0094171580033713 -0.615943500619978
Ni 3.829842529061333 9.125324315880661 5.800195468356235 -0.6464817784181511 -0.040724217192239544 -0.07157539824514124
Ni 1.5526366044589666 8.14910432939688 5.309251491742252 -0.6314534233301189 1.2118838186451517 -0.23402798038782918
P 4.534930534936547 7.467574042443682 11.798567345375238 0.6713970536025922 -0.27006301963451557 0.0829324751291733
P 7.262351675121859 5.276260471025647 9.78831392590379 0.9745393722895797 2.8172533788585548 -2.0367397355322536
P 0.1280771056725906 3.9423475832431003 6.464362500042473 -0.6046656137133135 -0.5266017795303511 -0.5407400187039462
P 0.7497548152290063 5.109647877167653 2.2593802434771817 0.5579432699561101 -0.08680455649006986 -1.1504213404642962
P 3.2861114335952117 8.520605006823764 9.48895632518988 -0.8282238049180706 0.42076360344759794 1.1889418651369976
P 3.5040272978687095 5.631808384909753 4.645070531566308 1.7384346903329093 -0.764468159827664 0.5674486383433841
P 6.0982920764688 3.5907460747755695 5.631618957449757 0.028990473695079105 -0.4055771255151467 1.4685295364324966
P 3.423650626607784 2.7452403213486334 11.84898754954341 0.7288910340540027 0.18102700271076563 0.11163087150513033
Ni 2.1037497994690386 1.6382689591687927 0.35211779115261643 1.822877688569338 0.8448179618313257 -1.184643751982276
Ni 4.095913825076878 3.497258051871804 4.25606917110737 2.3565548868892314 0.09754225462254813 1.1538018269007548
Ni 2.907061514747911 7.469431174404425 3.0236420450175263 1.1030487647176035 0.3277264357842549 -0.2368096568980244
Ni 4.234483726327662 0.5895864692747893 1.8747960713868692 0.5499026590398207 -0.7801670586201596 -3.6720253665787985
Ni 4.455157431562863 3.726112423394074 0.269381633735568 -0.4974261864076595 -2.9099830425838076 -0.5036549409261907
Ni 8.053192749284346 0.7321213472617585 12.54067634832187 -1.5425053165890146 -0.9843010796620338 -0.3247791802304729
Ni 9.41259477322808 4.204026762171489 4.144572539580286 -1.9301256005154244 -0.20895921034465945 1.0501118075092561
Ni 3.267187258915248 5.206562308538989 10.91197719014678 0.32971004187318703 -0.704751974913954 -2.0909892409044377
Ni 1.9529135416175516 6.638522478188922 9.555332078598768 -0.9827298785201719 1.0217617956116531 -1.0382775338784893
Ni 8.788162008407904 7.360343243030424 12.943811411568035 -0.829389028870765 2.0094204788920105 2.6802459762618485
Ni 4.339550967006656 3.4517861758130293 7.0614211397613085 -1.371182685650206 -1.4896570624397312 0.01182450343875383
Ni 6.817670712781925 4.0797753483380275 3.785212862346756 -0.49920050469926275 1.1620285856859214 -2.5640097447742227
Ni 9.002679321193241 3.0184522897532324 13.015161492933773 1.5260605407694299 -2.0233643426666124 0.7013167239801599
Ni 0.022097084634891885 2.1638744466980695 8.36269771903175 0.2661937664870964 1.1070396310445516 -3.3960776060287317
Ni 3.6028174325203945 8.541089172350752 13.505125832438466 -1.1936665243061766 0.658468261356066 -0.8254580692474752
Ni 1.117863441129594 0.6374596169588035 9.598006185358686 2.4290571678240167 -1.05620223667771 0.3709147982462709
Ni 6.018593258373545 0.585149781020576 6.657823650656916 0.005186686407262035 -1.0708811788461234 -1.4022567813471913
Ni 7.463674065326123 5.5155704954868945 5.563611713613356 -0.025929832491884377 -0.07296996459982272 -0.5468129643709034
Ni 2.273343090124023 4.139370712958247 0.7146401641152914 -2.335515549720429 0.802531799468605 -1.02861712797059
Ni 6.422835172268315 2.349504071834063 8.215213584369403 0.6321548202725178 0.23942472592336828 0.5789944341994545
Ni 2.025768828437471 3.769123599604865 5.359808195109539 0.7162710312971471 -0.06164271251246158 -0.384363467552009
Ni 2.659942250391741 2.6197074864622594 9.514179891480682 -0.6660833546991625 0.2957928203004519 0.009627495787435032
Ni 7.562612770534669 3.9825452045333662 11.19601809501447 1.348058440927917 -1.121282771227127 0.5958613851581221
Ni 3.2158097032213133 0.4414662669158878 11.452307876992784 0.03582112346366734 1.1985894155290906 -0.9381988859873327
P 7.20753842530055 3.393592945823171 0.8980820878015305 0.8359641109851217 1.2047176399140156 0.9908561071717321
P 8.576653249398966 0.9424108991384681 2.732452110666962 -1.445230199584924 -1.367583398334722 -0.6737809804537364
P 0.8068449088341844 0.7240827515696855 6.467869693750335 3.7071823740959053 -2.5030607158946765 0.29378633139338434
P 3.307236309648655 5.388570526351534 8.497623927375558 1.4641663743677944 -0.46468087365583843 -0.5885728219165088
P 2.0259359703139377 8.858742308575913 1.4253719940192007 -0.04041979857794329 -0.7358093584403909 -1.808279221929873
P 4.762094916374541 2.6264674467993614 2.2851070925293446 -0.16082533095191012 0.7706681179907889 -0.3012157910882361
P 6.745028996137492 7.199320616374266 1.2408222911183788 1.1478741485624104 0.15708154763876173 0.59920407637811
P 7.267245217838414 1.848542725423836 10.453134668040208 -0.7007917047146254 -1.0563649875078194 -0.38353634366502337
Ni 1.9193737384065461 6.743506147929683 1.0141249783685111 -1.0191667811909675 -0.9503306362538602 -0.6277026980384351
Ni 8.988472261693564 7.992891674519045 2.353521976831129 -0.5640653236934479 -0.18573392126813174 -0.23368036724042335
Ni 4.855898651711634 0.9936677412549547 3.9016698933409817 0.9370956256208249 1.3922279363562797 2.1608497133410007
Ni 7.715454730903756 4.1936082518717255 7.7002559629370415 -0.9089525875277056 0.7748160787208914 0.16816788735991037
Ni 9.360687934925334 2.534994412073001 10.382817152044643 -0.6868085030616559 -0.2989748175728593 2.9417101984837593
Ni 6.718648436635148 2.5099881302216063 12.68374329461559 -0.16935650835137284 1.0104013762935116 -0.624299328783841
Ni 1.5912835205620133 6.122202650463357 4.023631463466848 -2.14349219589916 -1.4864146442430337 0.4934227216752212
Ni 7.234513267030331 0.12423191394787372 8.7129927351649 -0.35263245499731527 0.7077329119191489 -0.9177354759266582
Ni 6.004126200399363 8.41303063799777 13.28016308093993 0.9824254599058758 -0.07892721062452213 -0.993524655142831
Ni 8.287404946513357 1.161998182176634 6.576946482332572 -4.908059557217908 2.01909811119109 -0.38723898932759115
Ni 2.455574163771858 6.348540608178821 6.58602507192266 1.1937050908535958 -0.914421838172393 0.11389087118390064
Ni 3.958690344497632 4.86377289122518 2.2105358157776993 0.5860153456019778 1.5237128664728599 0.8537764565761942
Ni 0.03853270248746097 6.106129173343133 6.743376148692431 1.5184701300166819 0.5506835030699031 1.2555961719314375
Ni 5.944967261789919 5.326588747161762 0.401800713932374 0.3159073316621398 0.5995632594897417 -0.06826895957972759
Ni 0.3633014398202064 1.4302980365450697 4.43020500653833 1.7942949918356388 1.0109474786049686 0.4278649903790696
Ni 5.47697929334267 8.9165083982148 10.441011310600484 -0.325245321233614 0.7848071284953323 -0.014248539499214171
Ni 6.782496633445468 8.825527503458037 4.209508087153621 0.527875246926136 -0.13726502713346683 -0.05743304530648818
Ni 7.338224801377983 2.0322687903000687 4.331551371085759 -0.16241118738179125 -1.7576817114879792 0.4897735549584081
Ni 4.646395595220298 8.183544841608846 7.887696291734759 0.8312718477157748 0.8289532268849273 -1.3973138355196193
Ni 6.7882723138433745 7.124654625892623 11.077264720350785 0.665894378616808 -0.9961160700190909 0.47302821717926924
Ni 9.216695208349181 2.96575617036717 2.1921204952549793 -0.6185675685063863 -0.3525712627420767 -1.3782994992006454
Ni 3.56740192602904 5.917165996337607 12.946121683727199 0.6515391383364004 0.6849861051409365 1.97387317791502
Ni 1.709350684966203 7.916433551695285 11.597427882669107 0.8017386141433482 -0.3236486661704555 0.37485090007588345
Ni 5.093917969460167 1.3213586757279283 13.227608103582886 -2.9841881651423123 -1.1244087184506184 -0.03622684354251826
P 9.036284124022874 7.2222561960894325 4.401161319804281 -0.8182114149873909 -0.3154224216059213 0.38088193676131177
P 4.493423635613957 1.474999202840136 7.8996153646588025 1.9743267205126709 -1.1745758262233126 1.8293985204069911
P 6.271228204653121 7.270680911965787 6.15293632728168 -1.2653918178656207 0.6081353174294688 0.16016070078471772
P 4.582714540286446 8.122677341595518 4.10329871031877 1.0752929347605737 0.4396663538893718 -0.5289563958054567
P -0.2372133224775708 7.506053816670262 8.59267658395625 1.1330607376986617 0.2196619414741443 0.510057759128741
P 0.740619583114115 0.4746207152450391 12.035530883604089 1.461242001632148 0.806498754536153 -0.26721603710402364
P 2.8647003347233797 1.7675160579766507 4.9242197508494 -0.053655066321294693 0.3292079054257879 -0.8240845859387161
P 1.3739062245571307 5.872938398692529 12.47242489163263 -0.10568390989307605 -0.7984828262102119 0.5985589865949433
