# total energy = -381165.23737361503 ev
CRYSTAL
PRIMVEC
9.32532371414354 0.00000000000000 0.00000000000000

0.00000000000000 9.32532371414354 0.00000000000000

0.00000000000000 0.00000000000000 13.64855387381510

PRIMCOORD
 96 1
Ni 0.40753902874754566 9.042859695732556 9.765131198713513 0.7660797272891581 -0.09979814053626038 -0.2371701255612367
Ni 4.1700236729126425 2.1270224199599204 10.433773697328023 -1.640460233268949 -0.8237362014603621 -0.8587222306172437
Ni 9.301730683093247 3.6184680742658326 8.315750214788963 0.8763335159411038 0.14064937022466747 0.04447622803550405
Ni 3.3777068656318874 7.758874518941532 1.0516251523254236 0.20857508753236334 -0.7898418627057623 -0.8039145387487444
Ni 3.542550613599284 0.390116526381336 12.047291569679556 0.7151605718417877 0.5271131719491309 -0.2744326094571209
Ni 8.561113470694613 3.0366051734244177 6.020581949720997 0.8729627996966578 -0.04857148115080022 -0.17082589380804775
Ni 0.05987230861853678 3.5241890511312293 12.673077677926145 1.5459724492020086 0.47368950491235196 0.21044196553777308
Ni 6.969625743175246 4.079409502012648 12.720438199666372 0.11863738472995054 0.9645912599379324 -0.3839873151595129
Ni 2.49606278212894 5.906184473123428 7.773328770757421 0.35243422294358007 -0.07983172471666251 -1.8804976530756519
Ni 4.095309179010126 3.926660698951837 11.69210211087966 -0.14280266912224437 1.5845369397387679 0.8042886342587116
Ni 7.661881826595043 0.8838467249732137 5.642544515195868 -0.33850552867762995 -0.24119750155307493 -0.7140927926989057
Ni 7.167527763844143 4.506462703244019 7.3045829795624 -0.3024977431244532 0.6178193774864522 1.5904026544909253
Ni 1.5245319029786693 1.2417974121361337 2.5565375066618685 1.5211206802656514 -1.27030108224178 0.9778740930897675
Ni 5.629324936244768 8.568760236171405 10.335531411598742 -0.3478589448680719 -0.24599466583140217 0.9153800883206042
Ni 6.729097667635105 5.159188739278298 2.675949209840989 -0.7506932175307587 0.45157956038719 -0.38694485512594
Ni 8.445899095736351 5.910903086942033 0.7262916500505258 -1.2750707357162816 -0.5001572121855774 -0.08903318871027247
Ni 3.5355566207851448 0.6801079841678231 1.4284027356116322 -0.969853022557504 0.9539708041096088 -1.6877477055010028
Ni 8.32548119012437 7.394459517353597 8.824417716967094 -0.9440987964115354 -0.6977750293754886 0.26681185968706955
Ni 6.505914694274031 7.046615616073296 7.135491546625882 -0.32308019526149523 -0.7950066947361535 0.01468074194062633
Ni 2.3804753942205914 9.124549531801708 7.881903515204126 -0.6388389171609126 -0.8869166907735888 -0.11179567921776876
Ni 2.181454334701432 3.642518084222721 3.5502206923854573 0.04497887870353544 -0.1663020377957652 -0.07304684058434516
Ni 5.635843337547547 7.3133292007095765 1.4104281740792932 -0.750943642978668 -0.011966171222940681 1.1369862980053127
Ni 8.75333636919843 4.761034716354953 10.509099932468684 -0.8101242671038822 -2.6497902308751526 0.32562661583243274
Ni 4.759738496353399 7.730376329554851 4.961945086466305 -1.862220966253651 0.1911664051376127 0.9966457172703159
P 3.2644041820428242 0.027099390823853327 5.595702481456262 -1.404127516007343 0.0464912015830038 0.9476073237854262
Ni 0.502125787565971 0.8140019151340889 11.940437347465132 0.3103288091330978 -0.1243514043955923 -0.017817230687078994
P 4.177847619540727 6.284317025950829 6.346495487133282 -0.07765425744936948 -1.1258660197224353 1.5818231403520306
Ni 7.69095818605436 6.543812810002917 11.177100848809044 -1.1430543585762636 0.3091622996288224 -0.4306512948749551
P 8.991141450202932 4.038909620956903 1.6484719833718515 -0.6646219396622876 -1.2434297117722326 0.24785228786543118
P 5.869815710489902 3.106302643148258 5.981738246163641 0.3805278958560027 -0.38167897874131046 1.9617581398190407
P 3.818011351915115 3.4970150577173587 0.12840784300285463 -0.7031892584125243 0.04503004365644503 -0.024389484587957994
Ni 5.163552990794321 1.824975183626607 13.331565831506898 0.8325252605069017 0.27750250663169623 -0.3215529599836914
Ni 3.768736341208563 3.533607628120938 5.982639072438102 -0.9225177278066499 1.1722872872994519 -0.04822026845896857
Ni 8.542108460887658 1.9917492736107063 9.911006305636588 0.5347202948724274 -0.5652279765429814 1.7258666238599116
Ni 2.4644312839615243 8.060763224771058 3.0541507700641564 -0.867124852858642 0.43915933234596627 1.1728027934832899
Ni 6.411980708118259 2.756127410929911 4.0010460089259015 0.6170747860109437 -0.3470552180198539 0.2829136503449386
Ni 6.617333662465153 7.77354325320372 3.756040845452336 0.9710850951923922 0.12858601130223016 0.20488478316496972
Ni 3.5503745602273686 1.937419937430469 4.065194911017191 -0.1819844815280285 -1.453378282613355 0.5572909810840918
Ni 3.049362216317409 4.390203892025513 9.14878977836314 -0.4407549589678603 -2.4706442472371837 1.991464408634222
Ni 3.1318074036104875 1.9644540509880573 7.694358199094407 0.4356549187371336 0.304016750872141 0.5732266784777418
Ni 1.111457362051826 4.666904898400384 5.294437639785756 2.3933946814254003 -1.037163474878704 0.12835152669392091
Ni 8.646803870653454 8.094520896753972 6.323579436544659 0.5716786172643316 0.5887846808169989 0.4612474224942573
Ni 6.3626310948216895 1.6428889120414176 10.842316130911305 0.07022942574020809 -2.9016701518427377 0.02798105859395826
Ni 0.445984540980684 7.313161344882037 11.557609494128503 1.136073042162424 -0.7222097653790853 -1.9359671468978659
Ni 2.3195064275287973 2.1973073850801486 12.47389156017657 -0.2707592743705917 1.7189341584061362 0.2893817745677855
Ni 5.192592048958629 0.24128995449069432 2.6787197635277633 2.0627567284213053 -0.01987179922326255 1.356324023370819
Ni 5.37767174946827 6.031880511979145 11.145640936598669 -0.4120473066205226 -0.4582438597812431 -0.9391489086054278
Ni 2.9873394880416178 6.1447169293806 10.799909221148237 0.8458487170886853 -0.28329031695806695 1.3293899179841364
Ni 9.178310023233061 8.818324550427416 3.869255870998129 -1.7905897750699098 2.280445605329479 -1.7828852073368002
Ni 1.5651343625956884 1.857763021939294 9.800480703460927 0.8180157540368169 0.7198453789119668 0.3009180573421592
Ni 7.097867595415312 0.3372969601165777 0.6684308137653354 -0.9827681879572753 0.8304820048246278 -0.7843024209447718
Ni 1.9760547537357769 7.378037622225996 6.026355257655975 0.4829488187270909 1.3598148101328968 0.14174054640631717
Ni 6.778782992586754 9.276804092703653 8.470620529003398 1.7419936113287613 -0.17849986541353774 -0.3437827179161692
Ni 6.3144191710228865 3.697957133929469 10.406899979338974 0.32856332986325354 2.7282654415639205 -0.715531067807329
Ni 1.1165956154392807 0.5351495565695883 5.400664267711661 0.7758146951887348 0.9530020124384361 0.8173454674426698
Ni 8.61471543162218 4.761137294916226 3.9944268941265997 -0.40107949475510923 -0.8825733262032284 -0.8078974346558925
P 1.0185305108612897 7.341566281031196 8.226146908983708 0.06248346324620207 2.3867422091058894 -1.9656322780624662
Ni 1.0803853833095414 5.9387858049610704 9.716132217590028 -0.4571285152298772 -0.3378069599487086 -0.6594565934112643
P 4.647209814635766 6.574166738816283 3.2339159685674264 0.8651312194673809 -1.049637696086315 -2.430151686439776
Ni 9.202546539664993 1.694010336850903 0.9942287171630924 -1.0400634221343183 0.9531243969489133 -0.6823131862944637
P 7.35421142003916 1.0098299838004998 3.143343761624317 0.4083274345667742 -1.274204273950928 -0.3995224346806345
P 7.884710437653534 6.524621293720918 5.051125022573213 0.23955019575763908 0.8978839884183698 0.12066727067578573
P 0.5172337445768881 7.6900256536791405 1.860762046057997 1.9893123952882257 -0.2486886677237975 0.42570140706884746
Ni 5.0775455298279075 3.6996077162336056 8.309512505731126 0.17950413830833603 -0.7839568646798949 -0.6322736052385692
Ni 9.267021828087609 2.358933896353041 3.5569498460050353 -1.8523283897302871 0.571431534250532 0.5475205319608893
Ni 6.411505116606897 6.867989039600168 13.03124378006774 0.48584336666606653 0.9823012756231856 -0.2337724127335974
Ni 1.8246114960002717 3.18159530712341 1.253503491042253 -0.30980661808104065 0.06428554945194735 -1.1023967329559015
Ni 9.216086909753168 8.16659632403462 13.381710894919529 -2.6297873053906646 -0.3584940559844148 1.4721416792637871
Ni 5.213107761213439 0.5971051425143635 5.17265170917933 1.9022427580622272 2.2424272171041766 -0.604422644464572
Ni 1.1671948221186434 5.466896447129189 2.3319100406515805 -1.1376028485433891 1.0727655403530298 0.18753035104692217
Ni 3.194809290880258 8.434857912413763 10.261965797582496 -1.0259853467746975 0.04292122484355834 -0.9294676767619219
Ni 7.89275819205167 2.0266166591201307 12.473686403054023 -1.5782721897759786 -2.183777525781768 0.5017476966011488
Ni 0.5743019283431424 6.8685765349965555 4.270960044673932 0.48358722364203816 -1.8152883062578542 -0.23536572536264627
Ni 3.00867582878662 5.900766460023407 4.339298814727078 -0.965700433841711 -0.2614210276888014 0.4600927400645237
Ni 7.8132877830355385 7.890678644854933 1.8246888961874148 0.22732254334319563 0.10942692187527606 0.4141365850493835
Ni 1.4864472807747406 0.057019692082743004 0.4105427155281248 1.7321856240994038 0.9996400240119494 1.0216628081399437
Ni 4.900131245442562 8.82107552093431 7.267145534826874 -1.6828525821922307 0.65543693072891 0.11358645256960438
Ni 6.842157892806612 2.7637555257591995 1.6990674599217135 1.0508939370909194 0.06370396591686447 -1.2285836478983359
Ni 4.4228238745106605 2.7282819942058834 2.076313174460282 0.37372912776661443 0.5420232562917439 -0.5418638478957442
Ni 7.152821728286946 2.310115826510346 8.227211860956206 -1.373895713705995 0.10090500044719397 -1.2005966757671065
Ni 8.958642696926562 0.8400727227480761 7.728207259250092 0.9453033582425977 0.1842704493487278 -0.181447635187952
Ni 6.316937008435977 5.150292380418712 5.239666283259665 -1.1723273965087682 0.4973439111064983 -0.6035016753121994
Ni 4.369212588259342 6.9612982290645435 8.797216680114342 1.0282851985524677 -0.7710694671942655 0.12696004566303296
Ni 4.6154104606408115 4.236643785798261 3.8680818127377283 -0.2235347941659892 0.44835899656736333 -0.8215376511471464
Ni 3.196702331601952 5.718046066423069 13.418670883078944 2.1223376733087322 0.6412912353561472 -3.514320583533741
Ni 9.128326287921343 5.692354799485797 6.65641329671344 -0.5476323749484053 0.9014395669801121 1.719417525800458
Ni 2.470520720371702 7.807394178424157 12.550309790728612 -0.34044876844692984 -0.6787905178531858 -0.3279555210759255
Ni 3.269766243200331 5.032187155097273 1.7158008208626365 1.662720587329046 -0.08140395429978885 3.304148840938219
P 5.112776602963667 1.2558973016494392 8.786161508806124 0.1236060415891355 0.028963220001569475 -0.5110008397683007
Ni 1.078762776976661 5.472818027711827 13.314587214551292 -0.5311937697764078 0.6934306363638638 -0.748328316843008
P 4.953127060326237 8.894251336417716 13.345664788487829 0.8476212356080757 -0.7966779117909893 1.3436364006008215
Ni 7.893317711476802 8.86454085494325 11.431933038452664 -0.5952317219939234 0.8444387241150361 -0.25316958631328657
P 1.5186382983672877 4.089583430226283 11.00768116447645 0.7887339743535642 -0.765361875286527 0.1873110359472645
P 6.608110917274241 5.911733040755978 9.237122975073351 -0.5036230592469907 -0.2903431100397903 -0.15098700470524964
P 1.5785535034750846 3.2488495420241774 6.83037814384285 -0.4754447970405618 -0.1446335516833961 0.3533891306576817
Ni 5.483085209162984 4.9692039184750065 0.5735120734213323 -0.04802820705282051 -0.3875855740337325 0.09899004281266822
