# total energy = -340859.57652208186 ev
CRYSTAL
PRIMVEC
9.41434595142817 0.00000000000000 0.00000000000000

0.00000000000000 9.41434595142817 0.00000000000000

0.00000000000000 0.00000000000000 13.77884691658199

PRIMCOORD
 96 1
Ni 2.723560781162493 5.749435029722696 9.165895416199662 0.6355113954495765 -1.1332795385776868 0.1681300921434395
Ni 8.846613532208853 5.27012244982672 4.9801163564925695 1.7000000405057947 4.099050634665392 -0.5303252511285255
Ni 1.2209559012293334 0.7715451659755036 4.645110632403116 -0.31793181829133627 -0.4575404059563153 -0.03075476468435349
Ni 7.3373809529406175 7.359824752961672 5.455444785310983 -0.8124647423116007 -1.9317950177980474 -1.170639467283384
Ni 2.645271082766898 5.341784448887239 2.3873095391440184 -2.06352214583242 1.4859119935750023 0.30656137167086556
Ni 0.518212656106967 1.5779855455240124 2.4631204403309126 -0.09170353645358399 -1.7515498875586288 -1.0647904925673533
Ni 9.14980253375168 7.508044210818845 11.495967616682602 1.8926821109569858 -0.639885356147556 -0.29551539826934914
Ni 3.9122631342072056 7.287258976719099 10.850070073442424 -1.0933577626820847 -0.20022491579545518 -0.48547647024495105
Ni 6.123871799117599 7.50288514940461 1.1033631926290808 1.4892240886673707 0.710606376812202 -0.053262458868566336
Ni 5.7624362410603975 6.591228160042626 12.795988016954231 -1.5425017170445887 0.4109121645748149 0.3924071637920919
Ni 2.2712297158891452 1.9770973148581712 12.433287170842151 -0.7349117863267859 -0.4899969838231239 0.2371217888218045
Ni 2.8499295427743347 4.3339410900558235 0.14189490045191075 0.9017902654513114 -0.18264936880553706 0.3405035329442652
Ni 4.96008921899895 5.523537805936945 7.474858642415229 0.3303268495215795 0.029457643139484752 0.5442552309460561
Ni 6.250861907542103 2.030457825982057 5.8218520593040575 -0.10998587970253962 1.2144855179340568 -1.475698286266794
Ni 3.783691415714103 6.702524554274556 4.758731428575147 -0.6498640646268228 -0.04151406008338657 0.4539624587970698
Ni 0.20962641020505046 3.0777849504545407 12.748229982924528 -0.48387364453420534 -0.5444999999670106 -0.5465268005890523
Ni 2.623957004223412 5.380486823839655 6.753370493676283 -1.1989516839645158 -0.8921658549876699 -0.3211564958762211
Ni 1.9892794781246335 8.270653279906771 6.096588083999721 1.162993520702352 -0.33328078994358085 -0.8087836939155878
Ni 1.4281844775982417 8.78967556973933 12.615084775316395 -0.8949074222885491 -0.7210450556470227 2.088304237873107
Ni 9.135502142714774 8.64785786692172 6.092565334105007 -0.033524871230322904 -0.38807614051690587 -0.6306113870447979
Ni 6.688534836643982 4.8686194366983715 5.865682428330077 -0.025501486705214148 -0.031101863611127076 0.19194982027085652
Ni 5.965145931519026 9.052627657989374 4.199364901909436 0.43537106894812755 0.35087330621436347 -0.6376024736506504
Ni 6.580731164646873 5.519772067678379 11.064592884818175 1.707914153146549 -1.501555099428898 -0.5397025785783673
Ni 0.5570223545997522 7.182194879305096 7.97297826060905 0.2798357827505632 -0.017735983827182358 0.37424180573697485
P 8.3219332206428 0.9561303581956522 4.74896216209786 0.0728123559760359 -0.02721666962410797 0.841281666543293
P 3.591977680970488 6.132495339729715 12.60592179269874 1.7757020593247999 -0.9384765651287514 0.42864737707104883
P 2.199096999546306 0.8530103231576348 6.792144417655614 0.4709700490986598 0.917463453212194 -0.3989333949463839
P 5.829052150854436 2.9356565742305984 11.12108649017319 -0.10186093660256006 -1.5208149760997742 1.5098137398932645
P 4.842824129627192 2.39323022112105 3.983767913695429 1.593149106887811 -0.8720788544298077 0.3709248255485999
P 5.960711774719564 3.609742551205275 7.549788360849618 -1.1961391542163853 -0.09264738842409205 -0.6472955325686981
P 4.26507515165229 0.16182883592363193 11.418033780552442 1.4129903657146117 2.1057836256047926 -1.7599558522341368
P 7.834063000554231 4.318012017222087 13.15153678467873 -0.5475562702948311 -1.0802505358761654 0.4614785646684569
Ni 4.49365546394727 0.22342784092269624 6.16337439344996 -0.9886925238615102 -0.2002051183011133 0.36339457860982577
Ni 6.935153035197495 9.293474862661634 6.551703912715278 -0.2714598999820422 0.05901864462605319 0.9853873707476772
Ni 8.354064382334018 8.130341872392588 3.3212531089547626 -1.0149465724620328 1.8192534615531897 -0.6412953491212052
Ni 8.628059498027307 3.2922437442798964 5.527343084447226 -0.18288873850985277 -4.536149227827588 1.087405915974024
Ni 2.3830627278229204 2.65306616096213 5.674197462185669 -0.5855782580645593 0.8744514684270424 0.1255060868253258
Ni 4.252648215399021 8.343529729555677 12.939549256585558 -0.7794294091231867 -0.29431289332081567 3.803727554912507
Ni 3.6381362176748655 1.9724183850719024 10.063146573853501 1.0754621133485867 -0.8894037188615005 0.6934213803924832
Ni 7.906129816477545 6.463437832238177 13.509814771206123 -0.41916026351622004 -1.3821438126474004 -0.666242505984846
Ni 9.284465333878014 7.81354914139069 0.6882385627849333 0.6366683918721551 0.5255152313343917 -0.39431466522744996
Ni 6.018280498347397 4.483083153786345 3.365386619910596 0.7373383934904075 -2.52642175921812 1.8990502192668586
Ni 1.8404292591091505 9.352097993001866 8.668051638333282 -0.19757847931154357 -0.37704867905815065 -0.9517383152346641
Ni 8.004076668582856 5.903133636746084 2.639241194380369 -0.0254876027481432 0.6475084199104526 -1.3312981907504426
Ni 2.9531955001698718 1.0438061592007242 2.7024726469145217 0.7407530755989113 0.6767650027827248 2.0366597742239376
Ni 3.256158557417184 3.537402719258215 3.4484729274130403 -0.7664509945856477 -0.9527243332970172 -0.25024058559194967
Ni 8.178703365978226 8.356267339215279 9.353880128632733 -0.46022515187733004 0.23166359392071073 -0.10678048539136449
Ni 4.492704615036982 8.763823776594272 8.975099580156574 -2.764580216834555 4.293061708340652 3.095647544066585
Ni 4.4561392965463025 2.0317475913356158 13.067637077712435 0.33910228172136436 -0.4065947681463836 -1.7607238407484127
Ni 5.743918223173896 1.4973705037537526 8.095168935623013 0.2450644407076489 0.4792330604384005 -0.12349728392541313
Ni 2.3051872606357677 9.476574471138779 10.84229853111131 -0.2731948803952779 0.3739566703963882 -1.250018163623028
Ni 2.407078723566928 7.4062845487267355 1.1445358918791164 0.5972230413923393 -0.7205894561668429 -0.21962028960293145
Ni 6.612711696807748 2.183450357081963 2.578670235925893 0.7465280304094756 -0.9386801964991254 0.006086572513712098
Ni 4.289797223319779 4.155765184351755 5.440880792595978 1.191932058113573 0.08409307109617775 0.6714158226556695
Ni 0.015791623387298146 1.1070705619446395 7.299537166311154 -0.5403854635780048 1.1555339791005133 0.8175095038243598
Ni 0.48521725748540834 2.413913538506226 9.848389345271153 0.15064453376416634 -1.115194141830886 0.3765696825392031
P 7.129182698970128 7.897214431150388 11.618736332519255 -1.6100340555686077 -0.44667903776177914 -1.6180366141581102
P 0.7025803769426835 5.833599279801655 1.3889351291637688 -0.029879046947619507 -0.5088244009422721 -0.28348494946737635
P 1.8798282956394012 2.637372446769555 0.882550656926959 -1.0476085814714282 -1.6277823806909644 0.5523138395844746
P 8.153661206558759 3.9472280139379943 3.3759551643332624 -0.42898753401928696 -1.9734887979924078 -0.4190515058524976
P 0.9315391459326491 8.512281875267684 2.23800178293012 1.471413799958827 2.036962393066021 2.815445379115538
P 2.4253990401948533 3.5524750866381263 9.342512306264686 -0.5576740754551234 0.9827710161707527 2.072434874941018
P 5.354955118446574 7.918669724878571 7.494108154958456 6.312343653407774 -0.8125177070367231 -2.9016516398999768
P 9.03328117768599 5.3144922608582785 11.653404660362181 0.6034669654195219 -0.03456719645190821 0.2724970829973049
Ni 3.541535616996991 7.3022748580251315 7.509388579377154 -3.9129349045778095 0.03569385385718369 0.05001129892112032
Ni 0.6362290102613083 7.223815701407901 4.3541292128599975 1.8498418758630075 -0.6353013363212994 -0.18215031768193146
Ni 7.6012556470640105 9.151384143820279 13.329766352152982 -1.9834178841806618 -0.4331380658525508 1.1526579431042987
Ni 7.977226954799278 3.397656172482816 8.118813064713986 0.22946967159318543 -0.45828551165245585 0.15995758363497614
Ni 5.2640501968847815 4.1973954208002064 12.849243087406878 1.0022630634570933 0.5244536228390968 0.5011846250088272
Ni 6.496011468174775 4.268784403836978 1.0165243269519753 0.9750754472987077 0.20217021244728406 0.7041346530449293
Ni 0.8609739181399382 3.5420439916618975 3.447122910247344 0.26411117292645486 1.1954128175733219 1.1570157058523622
Ni 8.86464200412174 3.4091699172083825 1.2612050531714556 0.30114508575130067 0.6518746672989483 0.5613101295458139
Ni 6.980991484149895 2.2716345327519414 13.336765918141094 0.14895994697289186 -0.16561915279612766 -0.38408090331458367
Ni 0.25626037136457197 5.065934707101604 9.689395168821656 0.15261605566824038 0.22155298784927002 -0.7969643326831565
Ni 2.460891123281842 0.23905094752292355 0.7353752500019735 -0.290074686869752 0.8889326927623529 -1.14898126558366
Ni 5.876519281603666 7.161586876685091 9.713287836637697 1.4235360024409418 -0.1817872779155579 -0.48382659334635386
Ni 4.49980303165438 7.695050772739252 2.527137049291977 -1.4285288276698431 1.1082017696734525 1.2055290800717173
Ni 6.138727636547643 0.725342381846588 10.172384992127123 0.05635729574380616 -0.23675206418721162 2.127914653175877
Ni 3.4945486178757292 4.079151239481221 11.54861640327562 -2.138323507214027 0.15814032792057928 -0.9670134962261798
Ni 4.97096278822056 4.198920544794926 9.79670458767233 -0.08517499130644686 1.1637563670103055 -2.4289916046934037
Ni 3.730603920613963 2.9633065073941225 7.8382486186286275 0.547993872052882 2.2625707819315873e-05 -1.7934691535002336
Ni 4.560111329865321 2.866423476346856 1.5391250095647369 -0.6463766202988546 2.014930867187278 -0.06414156767491534
Ni 7.855245278258667 3.3939563346437747 10.566873376314328 0.004322024414121588 -0.2107479268139661 0.39037110719866963
Ni 1.6171303947218103 6.127195063130783 13.016393852924427 -3.249955128504635 0.486822185639568 -0.17297919270562467
Ni 4.9196357757563005 0.7768529740509529 1.0472998228701091 1.4584698382036494 -3.131998057671161 1.099386485374668
Ni 7.36984161672946 6.420724946040387 7.826467506486702 -0.1067249495630807 0.43178592270003063 -0.09852827268490127
Ni 4.807586233872657 5.4989004633802745 1.9275091320348043 -0.9319958425004143 0.687230678200739 -2.0167383527096625
Ni 0.9466783551666506 3.6084057141234838 7.8668531664406975 0.2614246272332272 0.08295355817509584 -2.3211101729283765
P 8.018085214904724 1.1361326469551254 9.129216184126662 0.78644235010591 0.8293995703937264 -0.6202724670126349
P 1.7773531432781635 7.438378053035367 10.014052644176571 -1.2522629937931464 0.8853449754110945 -0.1891043804022614
P 2.1677848859263267 5.044808915471047 4.69311626372332 -0.35239025707952215 -0.24865215805890725 -0.763410407987111
P 9.155592356324226 0.697827073825808 12.491722955704018 1.9724690984786417 2.1220900760743002 -0.5808176034511222
P 5.829381652952061 6.455463881475662 3.9272743083404156 0.5512704859216248 1.5633261099891076 0.5075203374188678
P 9.122877505202931 5.33534503646509 7.203525903670745 0.005989899034847748 -0.8096326721794445 -0.21338536443681316
P 7.226687076830058 9.335114513455732 1.8790760894222527 -1.2955418590864398 0.6060776635694917 -0.6712638704588375
P 3.6045270037171604 8.85752475881305 4.208638032371156 -0.18446842429214683 0.6201182008229578 0.21120404051477817
