# total energy = -340863.95713814185 ev
CRYSTAL
PRIMVEC
9.37110925798170 0.00000000000000 0.00000000000000
0.00000000000000 9.37110925798170 0.00000000000000
0.00000000000000 0.00000000000000 13.71556564529964
PRIMCOORD
 96 1
Ni 8.69992226675663 0.6129998644657987 12.28165767117311 -0.41424457138215753 0.451323735622642 -0.9519067224917284
Ni 6.434222334460715 2.7596510994195524 1.2627991377378547 -2.166612583966707 1.4984052409460065 0.930077799542095
Ni 7.2301668673921 6.215313223020606 5.214355996515314 0.16435365582014275 0.5287563639795088 0.43023091950808484
Ni 3.596191277503274 6.76305455708201 3.3372853347901534 0.118930233380021 0.7348107419725474 -0.0616797363979841
Ni 4.684673727036796 5.610126989424617 5.298378298916135 -0.30824621557245624 0.2543510082158974 0.7031614904983825
Ni 8.55249597646657 4.246227639838661 8.08927642492755 0.8936228991491707 -0.1911916019485933 -0.0037255284807032616
Ni 7.994914977721427 2.6497748437844804 13.444202808225665 2.2311218193936866 0.23582338172535514 -0.9095750516030529
Ni 3.778956020671787 7.878488316739752 5.942488371779146 -0.14213315385904554 0.04839896012867794 -0.26133618128447894
Ni 8.457697835570672 0.20069448644412777 9.827257335127081 -0.3066127937340913 0.6826060349445341 -1.2894511728076696
Ni 2.632906847183787 5.092251380455661 1.6951071483951812 1.3933242547442521 0.18732363435275481 0.29450264073411864
Ni 8.165703443303446 7.743966043849222 7.427307829219016 -1.6911878415308035 -0.6969440488337609 -0.3013883121103584
Ni 0.542594720876349 8.218209768277717 11.153895280222105 0.3022612016336149 -1.2306179047195451 -0.20525913578525296
Ni 1.6446202974583835 0.30656365577561306 1.6541516526486977 0.7507945189953135 0.6682921894250232 0.07335871539780914
Ni 0.31272422297855523 7.296017651899363 3.946352144715224 0.16959587805568854 -0.5171177512993159 -1.2578867677378271
Ni 2.8134412663573194 7.094913647982208 12.007484317314516 1.833992567535577 1.564618603548286 -0.42166863176037056
Ni -0.009008447295692534 0.623264977508243 3.3603410748105342 -0.2783160036719271 0.09070749108890185 0.49088709973756106
Ni 5.970952178931894 5.234036262993713 3.4903099257297994 -0.08468133949947997 -0.026619145249425123 -1.604903676320578
Ni 8.84149161378256 6.3962037443445965 13.882347145706833 -0.9542847358056017 1.0761236581919853 -1.5457575049777248
Ni 9.100509072695429 2.6356432110767885 1.7849573436215411 0.4168321296036757 -1.148709499979512 0.5871150064240599
Ni 7.54305883322574 5.1996442921467425 1.7033087431868073 0.1355272185067537 -1.1090849436093544 0.3628587607110138
Ni 0.7447323581407583 1.9182192023216302 7.971295096925845 0.7490772791938906 1.5589588341593474 0.9415549469437591
Ni 1.308656660718684 3.3733369290804465 12.14003116038092 0.5614553968744267 -0.9721801280287836 1.188773200769617
Ni 4.118986718814098 2.6457358957095365 7.843438494025355 0.6364737593628458 1.5984432654072147 -0.058420863141054234
Ni 5.124712902802774 2.717631045665381 9.921579423674471 -0.5938921772468934 0.12487410966828172 0.5510344586514188
P 5.55835161096971 8.55059364129438 7.507790663666458 -0.3444036393296197 0.8505607778523739 -0.6825073045831407
P 7.440726320514868 2.4107740741711 3.314914622853945 -0.8328253082458237 -0.21950818950509937 0.2241138065979108
P 3.2872726619800194 8.208060856989633 1.5007025504612674 0.8030527049690814 -0.8376314713852154 0.4859798922439308
P 1.3157131059633076 3.8596787555153274 8.970130704303138 0.28432981396617485 0.6668847675545353 -0.5457868370992343
P 9.453012717213031 5.920816744590944 2.363178210429477 0.16102536277785817 0.3158062873079013 -0.7014794748102693
P 1.0500140461747187 2.7694157952295093 3.5130498593693784 0.9783366345484827 0.058880833496608276 0.5394547242336193
P 7.2102813736217275 2.1838901487825515 9.485314930703359 1.2426090156431502 0.8209473258613152 0.5389960394296459
P 7.992000562753195 4.042078025424159 6.024959755603625 -0.7572631574387926 -1.1961712930059012 -0.8449364896870609
Ni 8.99423132300184 8.73557933734865 1.0556751332560959 -0.5796359244381952 0.22528314431566362 0.10307321174310635
Ni 0.275051426792751 2.172438653312525 5.571893800907301 0.2773438695666449 0.550807173131961 -0.4813969008589387
Ni 8.919149995910308 3.3440896971966882 10.29591868979167 -0.31132202628430256 0.5056470316555549 0.7957898527590811
Ni 1.021956945162232 6.55985142469899 7.877658973573551 -0.02216702301534247 -0.32693530734152726 -0.04674959745071304
Ni 1.5845983428875827 8.963419115877905 8.759281683905392 -0.016745337779138905 -0.36001872015905734 1.3190594825924058
Ni 4.548642705561426 8.943458653233751 12.69437350377873 0.3712613829524122 -0.2432564409646327 0.8362093942267084
Ni 3.30474040957096 1.6070421494757277 12.14313112331176 0.8534758946166398 1.598523483825847 -1.2699568115284838
Ni 1.0103929963815343 1.4901750463605903 10.631976974734517 1.4364591382605132 -0.6094836039272471 -0.21764825347822514
Ni 3.485021808795482 5.17584167472132 8.144261408291198 -1.0230280639185865 -0.3011268309188556 0.25241728152829435
Ni 6.7495789020199 2.477402660743839 7.285708494643573 -0.027831420389971426 0.9664095440935937 0.0722549408106691
Ni 1.364948913818887 5.683886990115759 11.468037352026043 -3.2311901891923056 -1.260912956158661 -2.0742482740006727
Ni 5.471453315148472 9.065095650943196 3.5236382756800024 -1.07622495965654 0.3899221925867091 0.63857743596941
Ni 4.2941046368569635 9.216176673830073 10.312678918636303 -1.338656945108359 0.15782099690794757 0.7323980187659966
Ni 1.556569355202764 5.107929246185084 3.97915946099265 -0.9292650738328125 0.3404382269239685 -1.4135994600535202
Ni 9.391350818528274 8.634558779928943 5.620913136139838 -1.7151016720339236 0.8357959608383735 0.16365611553248588
Ni 5.594102392653959 3.4313440951683862 5.1556947270036355 1.431381980847922 0.10322233572646095 1.368998533514694
Ni 6.455532236832925 4.600830412822127 13.268890908221893 1.291465117913905 1.1097727137049984 0.3459231612979397
Ni 6.51054064796963 5.5081412077549805 8.800304651638278 -0.8320210671769735 -1.4346539667309743 0.9033213573838572
Ni 3.1735729937821233 3.6860789571665245 4.677268676529092 1.0011634026350111 -0.7487677183732717 -1.0241308100644622
Ni 0.08493598555002481 5.535204971189871 5.868644031104999 1.0849235158718025 0.49803116698151007 0.36903377917347413
Ni 6.731717567841611 7.827762502517778 9.631934368489352 -0.10746851259732458 -0.2749162339617588 -0.25660458013676457
Ni 4.9034703851662345 2.302116062734967 3.27154606648264 0.7831595655895802 -0.11211835266451015 -0.25249004374775874
Ni 1.9604173071510318 0.14500666988878302 6.077490445461873 0.8185286891174935 1.2427092886664404 1.228134219065743
Ni 6.795216203933999 8.598976678210702 0.10879951518539467 -1.1002269789980923 1.2651565619263632 1.8568363049029697
P 5.203758209095467 4.730564048899905 10.916067773483395 0.22734671171291168 0.3877120723092678 0.26081219046020887
P 8.43389521814525 6.300768368021562 8.983805026880766 1.051541340866931 0.17713512385552718 0.24245040012356955
P 2.2726720375575344 7.016374381587534 9.595601640922382 0.5501865088288267 0.16281407924716476 1.1632308335241386
P 3.046416412740563 1.5617703208213112 9.649120045692692 -0.024466360572480444 0.29149393581478183 1.2916407242598207
P 5.927179727753095 1.3889764378656524 13.231981857437729 -0.5408726876270684 -0.151469600768623 0.369429471949996
P 2.563457556735043 5.753907918227083 5.730829687544567 -0.05110453198529909 0.28154865167661186 1.3084984192471079
P 5.472306086087729 4.430726038213357 7.274351647376695 -0.908003850461191 -1.831526879603904 -1.0514397822920603
P 7.951676679768316 8.062012119755295 12.218744729407133 1.747787849413035 -1.6420604878765332 -1.6325738885423369
Ni 2.952246136162581 3.7765289033831313 10.429055912739097 0.3608813252696688 -0.15818069424021144 -0.20795416611891285
Ni 4.356010184381508 3.4706652694664473 13.45687629633832 0.536578688237405 -0.9130028463376791 0.653323741040649
Ni 7.042444807444829 7.716958507069667 2.712732766874724 1.605369817323719 -1.29134324762406 -0.32677512761457916
Ni 4.444857670921049 5.693932819202394 12.907239186881181 -0.40810374859174237 -0.051488397687279065 -0.7836267350339858
Ni 4.107244718958171 0.7527980718486565 1.6693900133555795 0.630031860392244 0.46921038609507576 -0.8286128128263729
Ni 2.210438501210198 9.155658050470475 12.501587296407562 -1.7601299159181558 0.8978559633939118 0.9235469404021128
Ni 4.440134631872855 6.890511013618694 10.169515545931608 0.2942571003822158 -1.4825327926901242 -0.2355595865410072
Ni 5.924715126027548 0.6326932504971082 8.93399008447523 0.09054731136195372 0.13512895462707053 -0.8582092955365671
Ni 5.714839763878032 6.349029580517991 1.0320327617983795 -0.7666615679345571 0.7808800255267841 0.9542495116922921
Ni 2.756811653325103 1.2960900032511677 3.937642635803732 -0.250069350121408 -0.7373327370634527 -0.06728499839990348
Ni 8.621570422546409 4.300027177885651 3.7769927732896504 -0.5580952221529419 -0.6264587983290051 0.5645959993859373
Ni 6.560573000109131 2.9614110809822907 11.736067006678292 -0.07282289749899716 -0.555961720749707 -1.6372522678546124
Ni 5.262009024023195 6.5434051280133145 7.3476065452807395 -0.5312325934341431 1.2751625240991395 -0.9381670043081327
Ni 7.102925946367537 0.7007284405641606 1.9908415503531491 0.1777503888420229 -0.7317141053250946 0.4774793109720873
Ni 6.221957339459434 6.941236827840668 12.414932649426111 -0.9093953314920791 0.13090360369181325 -0.9108212653053281
Ni 7.5590834299964 1.2950404390182355 5.223641828643996 -0.5623056606898639 -0.691399464866448 -0.6332295413939353
Ni 5.149883702174697 1.0156876730923077 5.521599057709566 -0.8114514705557381 -0.4384142266498256 1.11063531881561
Ni 0.6670102524702967 4.531090617987482 0.8094942197563538 -0.6267202795205078 -0.6699196977261171 -1.4914866594493024
Ni 6.511205996724436 0.2861768076618306 11.335503628512548 -0.2804729021139299 0.1857228655245382 0.3489940869137796
Ni 3.539046253463814 0.4124937373170453 7.9069689918891 1.4722589215679418 -1.068634806014108 -1.1993036679872957
Ni 1.9106098616328733 3.6644316948623015 6.658687576558909 -1.4861305373437115 2.640465611040117 1.8416755380021315
Ni 7.409707948988037 5.762182607670645 10.840344525410115 1.6484183117737612 -1.335818190107983 1.3762043072345138
Ni 2.434885938200869 2.520444165403275 0.5896648653905839 -1.1841187327167415 -0.034291317082702236 0.5632698243753461
Ni 1.6256156879549355 7.4986585177290275 0.3894998466175335 0.08541590367265935 -1.1134686744993467 -0.10782743859864011
P 8.886135578119061 4.447828312544615 12.35906865601738 -1.9171978367101625 1.06712711112033 0.03511509853557823
P 9.280959151885959 0.13827446502326185 7.620230854784835 -0.9011829708846159 -1.0523211564557489 -0.35184029811332307
P 0.666828452951378 1.4274073567875658 -0.18629015445805786 1.8349765287154012 0.7334339162296788 1.848222852202346
P 7.309090349264901 8.423549513563492 4.973223299553791 -0.7822385964372077 0.01109868101632282 -1.1560086047440865
P 4.533180375344124 4.174295005445927 2.231824309567111 0.22580147871297887 -0.19159500803459908 -0.4034418243396987
P 2.975786362529771 2.036089014123587 6.19880507701406 1.0165203447070557 -1.934516016273636 -1.7721696206915092
P 2.2640974726188485 8.414337713197668 4.271726428033377 -0.13497186022391597 -0.15383655833890278 -0.6084577337658941
P 2.4260396110947275 5.197620132554659 13.190301037837417 -0.07821167261473627 -0.7588770388931317 1.2253803104696896
