# total energy = -340889.6367704881 ev
CRYSTAL
PRIMVEC
9.09835106692343 0.00000000000000 0.00000000000000
0.00000000000000 9.09835106692343 0.00000000000000
0.00000000000000 0.00000000000000 13.31635646186070
PRIMCOORD
 96 1
Ni 6.451085822803917 1.9335179044615725 11.38065073832089 0.17031578694084862 -0.02371919799381076 1.0680167128141347
Ni 4.4660985457131925 0.09824399604907022 5.8261992358577235 1.6366298037792653 0.4493249600250584 0.4007100272308325
Ni 2.6967876833606788 1.5316528311617592 4.929955234782624 -0.9366986472927222 -0.2944735872683961 0.2208806443725938
Ni 3.5925931439088687 4.438921770736477 5.085290474655394 -0.9501460310468798 1.3685475620202043 0.3555267458259748
Ni 4.933025928306106 4.790573043870072 2.5422658360834625 0.3690731170518418 -1.3496684657275144 1.0753631258768772
Ni 6.959619965346118 5.994912691306577 2.6341082322418004 2.309471046027552 -1.2116956138937456 0.6282804249187761
Ni 4.986824478837515 4.3517868614790265 11.146869514568227 -0.03652072063385323 0.8371874418692613 1.6380583086956755
Ni 5.492674607781413 7.768408795202206 12.598432289791743 -0.10182828359241172 0.10850749538480023 -0.1323840448920817
Ni 1.9715308156944873 6.735609460926397 0.1731170574203069 0.36903892137979666 1.1347599797779555 -0.6195150200213201
Ni 3.178991197585968 1.683731771146961 0.5938666684307562 -0.1566197775109948 -1.051751657105524 -0.6798333572954034
Ni 0.4983876613054972 8.840622186792759 4.828577766586925 -0.18270156219971115 0.26990772500357385 0.057731807493829605
Ni 8.922097921615821 2.742179357401132 1.6922023360961815 -1.0489458122256128 -0.38351346084688787 -0.9147509393770377
Ni 6.813673314056699 0.8644852964437894 4.957453181556017 -0.33108558206447497 -0.46272374992946763 -0.656230887385115
Ni 0.9823034852229919 7.542660505706974 2.3847333444005563 0.2882327485650068 -0.6084003981653975 0.16279685285598416
Ni 7.522134625443341 3.6464735796009036 3.692026294457255 0.6350802214494289 0.3716254511600503 0.9059981328850719
Ni 8.20504776671461 3.8150114368719703 12.434747493040456 -1.316560627429952 -0.7308134478876962 1.4124378356452514
Ni 8.023999676570098 9.03845673486564 7.11736626828177 -1.3657838832321383 0.43327536276136347 -0.939547172485111
Ni 6.763759759479445 0.8007013054915753 0.6482538822835556 -0.34734729533897596 -0.521022999890993 -0.8934465214723065
Ni 1.8786457484908425 6.508578303914686 9.255267713996085 0.1640114419893756 0.32749966448542955 0.20518328824199503
Ni 0.7603746835534114 5.19275655946121 1.181827597110128 -1.4684588310955613 -1.5814796409696827 0.8488389100652607
Ni 6.482575216240279 2.1747697843686984 7.067922188625439 0.10387333904689852 0.01687877803320964 -0.5038300330514742
Ni 3.7260204639736596 4.048311357847175 0.41765162243342513 -1.4972937530493828 2.264279794202894 -0.11188412516651698
Ni 5.930851200643352 5.794294047772404 4.777162984064856 -0.44521325184953003 -0.06034147720253478 0.5491377558493382
Ni 5.361849416154298 2.9256294122573463 9.10772248240422 0.20709284655988205 0.11513014290764044 0.590986059343692
P 0.11633788704210467 5.7679634194554925 12.415025907021196 0.4103357232460546 -0.016108732636404516 0.7595642947681434
P 3.9236821433741094 6.100872089156871 12.782370926106362 0.6782315600259223 -0.5630474239518948 -1.4159232230906904
P 2.6853874493312766 8.723280751615423 1.2463694807156933 -2.348448198621697 -1.2071956691408627 0.32146348559367866
P 6.48722447369361 7.869937296027506 5.891621839857579 -0.7226813056988651 0.7525397838211942 -0.05143620429310496
P 4.866189440532771 0.8732051562153608 12.680927039947042 0.577753876924134 0.15880521519808782 -0.14959500945372947
P 4.091856066597948 6.232370558771357 8.324667429027588 -0.753215212621664 -0.8438514841529983 1.0486889590198003
P 4.556472467990967 0.8856935530459733 3.638054875253413 0.7330719049045697 1.187489706071503 1.4987888495376704
P 0.04466289611087987 5.571548214166798 3.458004874233422 0.7825461003752974 -0.411536171312059 -0.5636948277279066
Ni 1.4354650624795247 1.0992991830554604 2.61085830563467 0.47233119111224464 -0.6463174849261449 -0.6697525760206336
Ni 1.589800393557537 6.63451768095777 4.850482956889549 1.5934581534877978 0.527637162773401 -0.14988065901494835
Ni 5.988489255373011 5.5246462138303505 9.340905034649193 0.06501831385291383 0.32595648836802577 -0.7580753689274428
Ni 8.66677089243217 2.36518917622932 10.371457986018493 0.6009074322224619 -0.5201521672502655 -0.4689000539435086
Ni 2.1847779706674553 5.333553543982358 7.006360924866667 0.5510514279322832 0.22188543148802434 0.39658983441487183
Ni 0.37066227792564327 9.269855100444081 9.194877408034268 1.3420708558859147 1.0266823728417223 0.9369688702349735
Ni 1.4826946034584765 1.0964877925406276 11.64681845293633 -0.5683238418594858 0.8466907533740063 -1.0653440510779781
Ni 3.9614584974763263 6.611962868380844 1.627365665912362 -0.23040169648915163 1.5949020850231759 0.029668730709026325
Ni 5.834545153395768 7.849529694329222 8.373391829105527 -1.1569015488720011 0.5152099927536417 -0.6215307648997683
Ni 4.999962497942429 2.7310429755559698 4.891337283196193 1.9176624350514073 -0.8214024111208628 1.153112257032898
Ni 0.7052104705097813 7.6873970762893595 7.259331481094519 1.563179299998598 -0.8464632107442326 -0.9958450757458915
Ni 5.172549121488902 4.603656517214016 7.099055836530636 -0.7539358928377725 -0.6121709209514231 0.4250141511938358
Ni 8.170874359679946 7.4756056575053025 9.135313232359657 -0.930261890528443 -1.309884243851041 0.79212860185741
Ni 4.784604525495541 0.5706631434146474 10.212527077759114 -0.5295114969779784 -1.8589399815095342 1.2379051824095777
Ni 8.194366302428483 6.79239227064507 4.993274299989505 -0.43433928524950355 1.4432692192038112 -0.6200891473572353
Ni 7.093756956803003 6.177953320359661 7.137540952189828 0.7705166800145892 -0.7936157279258977 -0.12253003491613736
Ni 2.430670009676732 5.100344606518961 2.9244184217151967 -0.5347236373065372 0.3839253515733259 -0.12451826899075975
Ni 2.4733776701188823 5.141978661521789 11.37543101424853 -0.11167972246519475 0.868858033499665 0.306848049673349
Ni 0.965526125645803 3.1730772693185205 3.8201301692462253 0.45624688395587226 0.8760872042582525 0.03359737633947117
Ni 3.478818262394364 2.9478475858405866 3.1914113567827256 -0.321340329752253 -0.5534248132604662 -1.7170135443446557
Ni 1.1030295070395424 3.655581029132773 8.387306847401272 -0.008077377691495767 -0.5869077755092602 -0.9753873221121718
Ni 3.603593050486321 2.5339817873334454 7.1019327351739685 0.06524405671047473 0.753926893976708 -0.24455999026740466
Ni 4.095595488933212 6.785013507837532 6.289102417723419 0.12188237402980945 0.6354607447172991 -0.632781141002607
Ni 0.7000426070391504 7.565506465521681 11.439642627706235 0.7483000347082338 -0.4272715797694448 -0.766855429112918
P 0.07529067569043026 5.829850404186533 8.08752982352437 0.11125806154674389 -1.820586578542316 0.08065859149333206
P 8.64865607523142 1.8817937779993608 7.989414114226947 -0.9321997309811042 0.37201163085487543 0.39265244703367863
P 1.7548717790287613 3.2013367480857378 10.427346427816106 0.5614916494290008 -0.4399954550940164 0.5492285157909315
P 3.9125002697730435 6.457372783469773 4.106271494208631 -0.16304573564199662 -1.4153097578764076 -1.4707676817343962
P 7.007813931550223 3.8511773828152056 10.562933696451193 -0.23002297299349417 0.9596002344812442 -0.9392481531874534
P 6.342342329492333 7.9832754566853374 10.51147888118393 0.5933190783522427 -0.43939535961617227 -0.19739850209025359
P 2.428550093851632 8.56694378327766 5.856653236929723 -1.051281402337325 -0.6022911999438659 0.9657549412287303
P 6.893766099500297 3.785014173029242 1.6026099621848278 0.5604120432115768 2.026641470755987 -0.7853534879171055
Ni 5.520551955799041 2.841360483621813 0.274903041584019 0.7235937902108054 -0.6158766519377845 -1.288074089954485
Ni 1.3682282472542393 1.0007185480127045 7.1548250899277805 0.7823365554676527 0.9079570563836556 -0.8187413193489318
Ni 6.935463842961391 0.8175450830323832 9.192161550206832 0.4119691450844195 0.20255176415641887 -0.1748599546681053
Ni 2.746319107188345 1.6018921022766714 9.251431849138307 -0.5772895356932057 -0.2115089733497067 0.14534086216306583
Ni 5.90544860414687 2.2244558801664365 2.589858401274524 -0.2943357761389512 -1.2750108290126236 0.4530268343566779
Ni 4.09188336165149 6.920215006382557 10.490692788076528 0.5059594206896512 0.4053665521662373 0.02592520450619406
Ni 7.932761410930158 7.510825374925746 0.2112145833192022 0.23504176636432422 -1.566312446310941 -1.3180906909212333
Ni 7.763805029504779 3.952869653961757 8.387041175546797 -0.36398541811628926 0.14795541696777742 -0.3812339207840918
Ni 3.0929116970654777 8.570392058375141 12.216931146104546 0.7003836706429292 -0.11511625895056948 0.553634358168111
Ni 0.07908559796789527 4.768627820822253 10.394854396079632 0.4752337094710203 0.9812895465292197 -0.4459652995242061
Ni 8.70287314991714 2.2392861925909577 5.618263698304041 -0.009341332005583911 0.5387150178541175 1.013110033473926
Ni 3.8317251079908945 2.3602032797823025 11.433877002563033 -1.1926324266147073 0.38943419720669703 0.563493510350378
Ni 1.4901643497778216 3.404075307445011 12.632562024740741 -0.53827253100006 -0.40760932545382705 0.8706891731711327
Ni 3.3492486432301845 8.505939338611148 8.113576583284443 -0.5545656117331288 -0.7970664054786595 -0.04779217978261446
Ni 5.905530489307497 8.000735192601077 3.656445372494938 -0.8213787569717789 0.4250496324174615 -0.06637251388796313
Ni 3.0613040250637673 8.447236776793348 3.6669248533848546 -0.15998740843164705 -0.7216682910533183 -0.49379296053044636
Ni 3.4031290789222193 4.276616284024182 9.285681682322888 -0.12579919258571237 0.2410764025941784 -0.807284483662242
Ni 7.238757379569629 6.049138864343479 11.327984932511477 0.11730709595430118 0.4721085335784772 0.7706799450653308
Ni 0.6085095548209558 8.932215288128745 0.1843034801969629 0.9667823540519801 0.6096720657889694 0.9433071537481754
Ni 4.7177407426686635 0.07898733577514383 1.647926119910481 0.911810882912107 -0.8863060537727833 -0.24636541890725958
Ni 6.050321649996968 5.473167742850017 0.32386035945218367 -0.2526643645420939 -0.4592609881918477 -0.45092418619137825
Ni 8.149484136054149 9.11472821281335 11.293229231001249 -0.9262967352331078 0.49495458493871536 0.593253772331946
Ni 0.23244831530469212 4.940341002655379 5.692729153542383 -0.974134423541677 -1.7677082424860457 0.6845461893900404
Ni 7.993338233091178 8.700143644562933 2.23341957574965 0.22480929000303865 0.2960460739618385 1.4362200256665136
P 8.581928767672252 1.2352103529925793 3.628920130668002 -0.2794858556103122 1.0777095146218665 -0.46152741562852134
P 2.0049217645276127 3.14661926408508 1.5233378480177284 -0.9134288781315043 1.3591118705286012 1.2025697403330773
P 4.789726897210269 1.0151576313364565 8.155815678640788 0.8881999283613865 0.5369694959179203 -1.4398967031871526
P 8.445353418098945 1.5568188705275428 12.988787948847985 1.1542371146659605 0.7926492502475704 -1.3446622707621745
P 6.190126914239421 7.403510322749529 1.3898950607559302 -0.6908065684774555 1.832513154776573 0.23095036990377002
P 1.77997412993628 3.3022920527866533 5.989350869229822 -0.011541682091012381 -0.06654812023387893 0.08610033133419365
P 6.791073009723871 4.1006814672432155 5.798421059867964 1.069210733122236 -0.9647187866547321 0.29384366699388104
P 2.306659483083953 8.599570470611608 10.166265601345787 -0.0444407468118783 -0.015450787337431455 -0.17178491528720738
