# total energy = -340897.50403762644 ev
CRYSTAL
PRIMVEC
9.00066859276390 0.00000000000000 0.00000000000000

0.00000000000000 9.00066859276390 0.00000000000000

0.00000000000000 0.00000000000000 13.17338828704202

PRIMCOORD
 96 1
Ni 6.410195293589255 1.994899226016376 11.310908228852993 0.5855489474885206 0.3753090706592246 0.06404720818889614
Ni 4.537381138799902 0.3951725623126065 5.8232040786696135 -0.047652054660324385 -1.0913111645657012 0.41545710363301996
Ni 2.6822262961417356 1.6653937429324717 4.74292041088338 0.48524738495328046 -0.7411248571160333 -0.5504544177782327
Ni 3.6812195238443675 4.053847211016201 5.078380736427016 -1.332812313402124 1.5389098859282724 -0.7348284825843603
Ni 5.185042261645882 4.3570077366036815 2.7001754298073894 0.1316566798077539 0.5125327030317947 0.07251127979584931
Ni 7.30471775885219 6.002681014256117 2.597897230280616 -0.7816706397488795 -0.12285013725971747 -0.5523801740460358
Ni 5.263762110728125 4.615029908298244 11.57279528771837 -0.9901940481077012 -0.10971257143649492 -0.1682697030450973
Ni 5.477095961968386 7.883838788997361 12.290955948856881 0.26111815173640196 0.2999541507669931 0.19803793544646536
Ni 1.8034279992239506 6.3428702911727015 0.4315757671620384 0.09131915653097177 0.6194273454035204 -0.6419579224058687
Ni 2.7851759455589202 1.6597143209371714 0.2930986779669637 0.22652524425288084 -0.9758627190866934 -0.2206163349676136
Ni 0.5378367626205395 0.050535154888767524 4.7178778501583025 -0.17723179733439154 -0.28713900128019576 -0.03136617301610727
Ni 8.481564201494807 2.204668812422819 1.2231449827402796 0.3976794679346248 0.8643182366477825 1.2380483928556614
Ni 6.782804979423544 0.5218488746803626 4.59415375714785 0.01854639554361967 0.050069148742249256 0.5116531286403189
Ni 0.6694175394023035 7.233927498958314 2.5146023412614302 0.5815686226845339 0.05411220846337133 0.303109151456207
Ni 7.4242376394791165 3.8324847632310783 3.9726593785566022 0.6829245946262175 -0.5432437589624063 -0.6932172348014771
Ni 7.6425668618879845 3.948863410456484 12.532555500309568 0.27021754293450884 -0.15135878622237162 -0.3016143120782354
Ni 8.008084020729727 8.723169153348756 6.790973986401252 -0.4199768458802444 0.4836687276122509 0.16078882128701988
Ni 6.649100044811525 0.7455676975500644 0.4588477935420059 0.4821263228257955 -0.6741987847174454 -0.9838529363810217
Ni 1.929302352004098 6.414965648038557 9.162789718259447 -0.4030147641046091 0.410158574238242 -0.45762910901537956
Ni 0.2044879939708772 4.85816497384348 1.4052708151464608 -0.960478009100507 -1.2223613211377078 -0.3836978089435521
Ni 6.4213921255419555 1.8873052315127024 6.985294824926978 0.3426144086396809 0.21541730726517738 -0.23150649951755617
Ni 3.3906059305254264 4.208424696511106 0.6469923731562015 0.03460730566122427 0.7162044397252697 -0.8130686944441868
Ni 5.927498428001375 5.6105848805298715 4.877183386959279 0.05238545558025171 -0.3943725150485789 -0.03126692843408163
Ni 5.258604727521617 2.880556032538628 9.1397498063362 0.014306389320343104 -0.37950639657002383 0.34994436664219086
P 0.12640359210395635 5.677666864889573 12.330107057882486 -0.09457185914031455 -0.42283976925033634 0.8806622252234446
P 3.870809610863389 6.1055676589918955 12.661286665358032 0.1833286542607488 -0.025278829171446787 -0.2258647278507465
P 2.294333474732138 8.362098324880515 1.4343582764177945 -0.08036291462978418 0.23658957046741833 -0.33551533570105446
P 6.322177753665262 7.60180283301839 5.831279478692092 -0.4412393548034465 0.4104606788596931 -0.8060464974900827
P 4.744792549988011 1.0959484317174866 12.482128353446068 -0.15631021669037595 -0.2423660679398794 0.8052983064701487
P 3.977962572597222 6.233386156226852 8.033171584798668 0.43199983848304957 0.557547320069272 1.909364713818989
P 4.59324828986936 0.959318279754481 3.6743871161793398 0.4892984150942025 -0.32440945559588 -0.06718241138376817
P 0.10864527261627453 5.444567545025415 3.6711333744181656 0.9620942045476916 -0.15271735713279505 0.289480762039495
Ni 1.4042303378363867 1.0303695590427528 2.623467230195748 0.029960808028148402 0.7448958941226913 -0.656444803168134
Ni 1.7917451311575487 6.474784092699039 4.937491468000974 0.03656340094633057 -0.6407340773010965 -1.2897982717344432
Ni 5.819607411428216 5.690222797826885 9.25994383705417 0.49058653777800665 0.3473172134319889 -0.5532049839401764
Ni 8.668364081194428 2.398804237171835 10.028070810815041 -0.07781597983821438 -0.10387025372310497 0.6210324851071111
Ni 2.4675063419105454 5.209245059974507 7.001089198488551 -1.9090644089697506 -0.8513436787649855 -0.5729340869379874
Ni 0.603744159705461 0.03777760697095698 9.045019567641848 0.46383703759830436 0.24212438424271848 -0.04937957887439238
Ni 1.396003726578535 1.03838015425007 11.22803457113235 0.5207409498741999 0.8455985487510922 -0.13164382429194746
Ni 3.8279304248323114 6.744930165229846 1.6863779021081338 1.404147570612001 -0.11978435385020014 -0.2643510568514028
Ni 5.647262605776857 7.860338042832973 7.873181097104121 -0.6144064951501611 0.07092516625565204 0.0638497474661094
Ni 5.364254577570481 2.638978082690995 4.92109044936415 0.41730495547503615 -0.5699852887223087 -0.6361174044646916
Ni 0.9087885252669768 7.38930604397395 7.006899130181049 -0.12093286563234658 -0.22561610217505013 0.31527124074003765
Ni 4.931340410962007 4.387799024473605 7.302878922222016 0.9289745391755873 0.589934735261042 -0.9233859893442162
Ni 8.208132884862122 7.213477979507724 9.023520570212414 -0.6326543856167556 -0.7593061560107504 0.19102190913994843
Ni 4.53427590807347 0.5505736090001738 10.392683402445172 0.4226677624488463 -1.5155750678570736 -0.12857855510306243
Ni 8.05086419940431 7.196682731578674 4.644014761945575 0.494526239152045 -0.3156095979160629 0.03574861835451908
Ni 7.147602084763506 5.932313785794538 7.091722332757766 0.08394369000250705 0.3107237305786713 -0.28544515851754065
Ni 2.2748470268401815 5.135061547953487 2.6299612127149388 0.1337989229617373 0.09194162060631908 0.5674656076242486
Ni 2.235064070866763 5.340564817361876 11.303215357253338 0.01989879580645605 -0.5757772128137374 0.6953432800055444
Ni 1.2478977219308895 3.422585306673289 3.8733712011959764 -1.3061797984162602 -0.3057794991995185 -0.06691990175100088
Ni 3.6970697015523286 2.6235959397591917 2.581773432241978 -1.1069375582490484 -0.33265215522064645 -0.013488778515054188
Ni 1.2172684460988668 3.241959885751445 8.213185860310874 -0.49039293370996184 0.5161214488243175 -0.43991780777854556
Ni 3.6095201964044925 2.5130587265669866 7.002670615991838 0.5563754112483579 0.04893297825527702 -0.20678174307736646
Ni 4.0630188924951405 6.854414300175697 6.01926384640214 0.29099925556655043 0.6164865176076415 -1.344765371998942
Ni 0.6894674291594044 7.431033144402178 11.196958862129222 -0.20423763649927407 -0.15508611447528775 0.36352647620199974
P 0.25084683854931306 5.461578809004999 7.967292089786938 0.17216003923843898 0.6473626383612077 0.42251606736233044
P 8.667761036386684 1.576278121418261 7.857742249959051 -1.0343409178282443 0.3365792581891945 0.6549180821109625
P 1.8633634525784732 3.295873891697321 10.304106020923545 -0.01104443073961969 -0.37277679115567414 0.6741707596929872
P 4.005738636428436 5.860110420903415 3.825973679441221 -0.6380750424116947 0.8528475170040215 -0.04082423310521356
P 6.781751901177189 3.9927596720588276 10.263900933584708 1.3059450566976347 -0.3147986719789933 0.21720499529321946
P 6.23072195827026 7.846044980822614 9.98910421549927 0.4066078807725062 -0.704592052297322 1.7526073822888655
P 2.366707852329933 8.436758872346465 5.671696721292929 0.7663967443089446 0.2987045946306081 0.4781233723139895
P 6.970054892561777 3.933544272206087 1.5322234480455255 0.564647421449163 0.6009619396094812 0.28557474211686945
Ni 5.40400153086881 3.010138660852949 0.3666548433745573 -0.25429135862255564 -0.377953193150291 -0.2992409267500524
Ni 1.5978617251341558 1.1587640990791346 6.820574485792606 -0.9074135251753598 -0.5230935092667767 0.8116059938557314
Ni 6.899354639355623 0.7565827159935641 9.077702796087703 0.13432188534474288 -0.2609073212771765 0.29472349849567303
Ni 2.9814265274694187 1.6720002338113154 9.127775316601575 -1.353602510674598 0.0876162537580878 0.4371564429833245
Ni 6.188499821059558 1.9070346974615107 2.499874546949371 1.1364515085477653 0.6047771995905133 0.6887661410086588
Ni 4.0640809714102675 6.733868343308731 10.509017946393595 0.03227814330741537 0.9960528208813231 -0.21476758949632044
Ni 8.191328636264302 7.426145781258836 0.4148633253856939 -0.5392984011614131 -1.285717159686534 -0.5285982411350896
Ni 7.685545055275558 3.8698375386359842 8.247212888604427 -0.19725169209974416 -0.6096322136899694 -0.5263672949220419
Ni 3.0499486188326834 8.33226110790045 12.4176574630972 -0.10382140276304055 0.04317345006368049 0.08646517087278012
Ni -0.024570925681410335 4.886418073119625 10.265995389208014 -0.09239156365954411 -0.23425398035570624 -0.6104199996985874
Ni 8.456227318900877 2.1817441090598564 5.711454475393785 0.5623632534006767 0.8553710547568237 0.31895974533521837
Ni 3.7266819018130852 2.8148691518386273 11.503358728407843 -0.583588224217724 -0.006881300500865568 -0.7442040102619893
Ni 1.1776475021633497 3.387599707155489 12.434269097383295 -0.6991845081285056 -0.05469816287382838 0.2181416481748759
Ni 3.0694890707372746 8.418775536139476 8.007747395717645 0.42745464231452834 -0.23417221927517737 -0.13227323034583024
Ni 5.533881181252616 7.703591396163952 3.5637175931561824 -0.025206324062298523 0.003788777618470894 -0.33994431800668545
Ni 3.1386682109209145 8.221435873307534 3.504279876784766 -0.6441919539427099 0.26643365041204436 0.9985604177945255
Ni 3.401208718339156 4.4594803505759355 9.216866636310103 0.40333718044103445 -0.7744157579586792 0.7662867010936416
Ni 7.132138935812752 6.221208251377975 11.379502325566436 0.5519055484024624 0.2436940427226835 -0.24514234513343586
Ni 0.6654086415311361 0.16011289678984886 0.1589176079768919 0.3747452277359546 -0.23519191878894333 0.7560351985689624
Ni 4.458616286373798 0.3019778377108046 1.527691611318689 -0.10251142570236538 -0.8431282328337285 -0.05151179472604677
Ni 5.934581954325148 5.717350813506496 0.3849892056636642 0.024938929333524793 0.0522512439952326 0.810729504788049
Ni 7.80997030038337 8.790791177834796 11.329957244242618 -0.35327703055984966 0.6816202739924971 -0.0336156311719163
Ni -0.012268811603476473 4.785358564144617 5.83710201132087 0.33970983339837624 -0.4564394595826527 0.1324812325915783
Ni 8.014312483520136 8.845605250657899 2.4311886434144507 -0.736637510768641 0.4740710566214868 0.13271288898641015
P 8.447010634078076 1.6777966645006548 3.628913037341218 -0.3015117250621001 -0.05721990085441759 -1.1235029188068975
P 1.704888677505177 3.0144769832011815 1.47905559754087 -0.44487952265919506 1.187105069038575 1.2867700264310806
P 4.83310711198149 0.9422890144373528 8.045278384364241 -0.6501288882524352 0.1681033526705621 0.8107719279902101
P 8.490276848866362 1.7135833235391864 12.325062183035632 -0.7907818580215283 -0.19139369065707038 -1.3761554562744494
P 6.2366443983224125 7.680765700157484 1.3865647252370592 0.0220207272454653 0.3713002066101477 0.3142713387206136
P 1.761691898126951 3.255055858815093 6.0472568263507664 0.19816057706725873 0.15720573192145185 -0.9482580699955474
P 6.707775404537931 3.89400433428952 6.110331712973055 0.9536910680856607 0.4970502911254795 -0.05186120764566552
P 2.349651585006488 8.332396117932035 10.219361124165147 1.4149932550772533 0.6732870715364534 -0.341037036850232
