# total energy = -340897.09065180673 ev
CRYSTAL
PRIMVEC
9.03605949034816 0.00000000000000 0.00000000000000
0.00000000000000 9.03605949034816 0.00000000000000
0.00000000000000 0.00000000000000 13.22518644302089
PRIMCOORD
 96 1
Ni 6.236462444633535 2.0021558730861457 11.403153020320486 0.4012890396627541 0.12841014784599822 0.4013936835614184
Ni 4.638444337818602 0.5278061817651086 5.857686186883136 -0.05111918727331842 -0.7802395637293078 -0.2094613467920586
Ni 2.6637309777825555 1.7409956780996594 4.8176050026188095 0.2937246249175135 -0.9009963087951064 -0.167979168387872
Ni 3.4392417581617756 4.399657426438321 4.826015766908249 -1.385294185350924 0.2985115047831956 -0.33316560452195526
Ni 4.846580934985536 4.690618546034365 2.564271069602628 0.7802141098080112 -0.6341939621897336 -0.6335517006200444
Ni 7.070572071614629 6.010452521548557 2.883632524567938 0.4535500538499995 -0.0892645879947882 -1.6454972814722242
Ni 5.015501033424309 4.380338330981913 11.635413185841008 0.8529202792234859 0.40328832948096993 -0.470304390490203
Ni 5.6417090007884525 7.8267727925970565 12.626204472118612 -0.7112591799048524 0.012934962894113207 -0.8496333809420981
Ni 1.838675482535474 6.598835543365216 0.3171096689093061 0.30760601088529604 -0.5905016635081055 0.16091223423876158
Ni 2.8232987545200254 1.6620295531260623 0.5715922158404674 0.25478089666446446 -0.9795077720384485 -1.63410780868836
Ni 0.6078891637070932 -0.044903794649707514 4.881958915589339 0.27436704632650816 0.3520377588361099 -0.0026693193020470157
Ni 8.627087556618859 2.211467158003002 1.3307712220719272 0.6656195276888665 0.44930439119976817 -0.24343641818592268
Ni 7.015144881937544 0.5404304606529233 4.881271271452654 -0.2023887562159934 0.5310765274722532 -1.3010378492040044
Ni 0.8934449124415736 7.501872233087884 2.573885437032758 0.8981112739378274 -0.7673629648769559 0.026890396632940784
Ni 7.542164022910206 3.9682397961900744 3.948895399766745 0.6728862365536089 -0.7857198701175887 -0.2813913001631412
Ni 7.607982681144292 3.9025566788502095 12.646584400973795 0.37188127592459824 -0.5987011685997624 -0.12142754588057798
Ni 7.908422627276244 8.657493897222606 7.004416368356911 0.7336108081271753 0.47722811419322975 0.833791528813835
Ni 6.965473662235077 0.649091788338585 0.26500323114065427 -0.47246591691789597 -0.0463454200337589 0.42680286766314235
Ni 1.84323869264094 6.263624839835575 9.159817487268063 0.591974134288574 1.2514088733229674 -0.02837829403237693
Ni -0.09908942973572114 4.648130993725651 1.5445562601040628 0.37426828809953605 0.8962441388221017 -0.1075991246379179
Ni 6.468562671898876 1.9244457603990037 6.737571588266763 0.24972225119463445 0.4617644713399919 1.6014149464410292
Ni 3.4583982045451176 4.1144432407572795 0.232972207018168 -0.46307933349667346 0.7952892589735787 0.7941168359320324
Ni 5.664443726779249 5.515836690354512 4.8577567335171015 0.6955191434617763 1.261151040311396 0.3528250306240956
Ni 5.231598399111867 2.881183752412332 9.296870114263376 0.06823527812831474 -0.2492987905039707 -0.45273681392008486
P 0.28038260460501657 5.481861106202924 12.538309816639646 -0.22528520119819265 -0.5833095166350406 -0.5706504331101333
P 4.0680250025161335 6.095707744014045 12.622449085742707 -0.39403544342413427 -0.026598319313818706 0.5220020759748106
P 2.5281268311434917 8.549160578500961 1.3616655098948738 -0.4536485271010768 0.2656062694147426 1.1600434369350925
P 6.402554256412879 7.729192384817004 5.862909932946442 -1.7950318700016634 -0.9502486180630151 -0.2839927423417302
P 4.689226992853689 0.8770345245751644 12.58088230790874 0.5644831279571569 1.1059584821652308 -0.18646334323498853
P 4.0455613583137815 6.221444513553764 8.202221069591332 -0.8154320524700408 -0.561314500421188 0.24136899413393273
P 4.732708511720028 1.1611155883805122 3.631715249592443 0.47922071914322634 -0.17514971799438223 0.731878655927417
P 0.15177327171375768 5.636468086211878 3.5862214002498902 0.4586958597169971 -0.33285270126722677 0.2126091483924209
Ni 1.6237618406574519 1.1711365784933074 2.60902486566273 -1.131164034896581 -0.29272060913303133 0.19386477790538223
Ni 1.7721610477110492 6.6765095118139 4.771528327431102 0.6368511973069225 -0.5503816555587682 -0.41907361733968473
Ni 5.866797245792721 5.6654286572772605 9.44296874053905 0.4114952907717946 -0.476448812825044 -0.9283289351717883
Ni 8.478543772611426 2.3768541571323936 10.27029680477925 0.3087210983263457 0.002001089590428812 -0.2078217543061066
Ni 2.457202799227052 5.3116940315373125 6.932497466276884 -0.2335225015063204 -0.5795631622187308 0.1308537242904843
Ni 0.5035055066430701 8.985385392464273 9.079739023355886 0.2666804763155278 -0.10864093563887096 0.5198775734326401
Ni 1.3121804330204707 1.0554659793644576 11.2317678848188 0.7474615979673385 -0.46522954707045683 0.3525131558106316
Ni 4.099325913021746 6.939883541406008 1.5745514599953383 0.22813526905247808 0.1636201200882279 -0.6866069285738111
Ni 5.576034919508204 7.733141142868665 7.944541564768459 0.2805137826541943 0.7279528385104496 0.34462295442927743
Ni 5.177038671157801 2.9547101694978286 4.875729456090907 0.6125357604900096 -1.008926334409882 -1.0910566253527338
Ni 0.9492561346522869 7.375394506659752 7.002352532340894 -0.27017100596728955 0.4829616742428973 0.06838517344261771
Ni 5.035543013649899 4.526361054356822 7.129685070008584 0.3155905717526694 0.9387308472314027 0.6335121056313606
Ni 8.141787902887655 7.096451346351371 9.103861688103514 -0.423301025157471 0.06458508297023716 0.3175551516782079
Ni 4.52890922316819 0.4412832001356676 10.314177717480563 -0.24843669961399148 -1.2259297552152564 0.6842808515437957
Ni 8.071406034548103 7.270006943372526 4.62568090361272 0.560242607513248 -0.3078250688746376 0.2206081074374975
Ni 7.127074552385873 5.887164524164445 7.210464732146869 0.3419569775613401 0.2319325313113812 -1.1807683281872696
Ni 2.2980416451722476 5.329043265997697 2.420222725253549 -0.45332816764718054 -0.7066219382431572 0.4844212895075592
Ni 2.4343596405208787 5.1850988363341886 11.24307470621478 -0.7386871942088181 -0.22788792892836235 1.4754807709393492
Ni 0.9587349611881952 3.329173515994092 3.789597801211756 0.5511522151762056 0.8478945438741204 -0.6375603075588052
Ni 3.5806018747754567 2.747883800975038 2.581595906702053 0.19810221302549755 0.14547944462345913 0.5915329329860974
Ni 1.1182214133891326 3.391459074918798 8.215512209678717 -0.5225252954681324 0.4857127546254732 -0.33672709662096845
Ni 3.810343690481339 2.72208585077483 6.881342525585668 -1.1714717333766922 -1.412093307821639 0.9249908719374909
Ni 3.9491646743432653 7.099469390262708 5.992821362028192 1.482182351329241 -0.7841851786406173 -0.3583451891113764
Ni 0.6599693969028622 7.228766367290652 11.224268858944493 0.5621004866575932 0.2548433744712837 -0.09030639899574125
P 0.1925475871195089 5.542303308966214 7.906809690635005 -0.2462348068666663 -0.5360598396194574 0.436329576206655
P 8.477269688205741 1.572048471482043 7.996252223125983 -0.7668549148922859 0.46288804342147377 0.08030249370549396
P 1.7224988640681964 3.107112350960776 10.357886945049197 -0.3396267867662667 0.6385643233432873 0.04889004083248354
P 3.959393493827201 6.239263623114118 3.721540911011088 -1.5520587646054043 0.8976626164361832 0.40535806752580505
P 6.879405194404259 3.992519688374999 10.418087885020771 -0.04156393948471552 -0.0795365620737469 0.26773719971481635
P 6.376196070516555 7.849137040143647 10.36026704315173 -0.9655852484200853 -0.8575310385226199 -0.5047479168800533
P 2.5163980257635026 8.629084525793726 5.876029387901147 -1.1227153899085953 0.9641402884434427 -0.6336794844471603
P 6.8093847684492985 3.958282058494582 1.701169245347499 0.058947682178801704 -0.23105347114053754 -0.16266624081539083
Ni 5.314621714852502 2.6467251135875314 0.5819619978543935 0.21518770775287457 0.49742592929734325 -0.19469730110900663
Ni 1.410890348252371 1.1354170348360664 7.173037373222433 0.5384782192529629 0.003922989203490018 -1.247475599706832
Ni 6.711189908615441 0.6329109163863915 9.20767878422969 0.41293819386590824 0.514668775538191 -0.7292882694924214
Ni 2.6917246904691563 1.551220354069966 9.187709092481017 0.1855179486025837 0.06997025854155046 -0.3432805814687701
Ni 6.648606159723447 1.9876529974044177 2.652364518393118 -0.6325240306864784 -0.5868339848485313 0.5596093448046234
Ni 4.1989394342151245 6.88835992948251 10.555947432139686 -0.41639144252183125 0.7085003862127927 -0.22636609296719723
Ni 8.227151558068519 7.256425745771506 0.10717760669691428 0.0961893401390795 0.03251237080540852 0.6639411115451792
Ni 7.626307810043074 3.6841822261397255 8.30347282839287 -0.4029119199781577 0.06578270282276413 -0.718834164038633
Ni 3.044004510611124 8.416258213686719 12.494666552306201 0.6185878802213605 -0.05608501591902599 -1.3022915191054474
Ni -0.0035032803126517497 4.8609482697730435 10.158014728005943 0.5311580314424659 -0.42694504966796143 0.20557846679788463
Ni 8.818308650186918 2.362830192610249 5.757215143632314 -0.7227432692850521 -0.0417832545843732 0.5310405320279951
Ni 3.562629152201651 2.5326629330701134 11.376292429509578 0.04630891036886863 -0.24096198850350117 0.5126717997128203
Ni 1.20595251618907 3.2501441386031913 12.588195190954984 -0.9192053756039654 0.4751509199492268 -0.3422477693288815
Ni 3.119645365646481 8.476772704926926 8.000947359701826 0.06214767717333813 -0.9836302788472544 0.5405322735685143
Ni 5.601119020998844 7.7675414218221475 3.5232165709798475 -0.05208643628259417 0.987828376089002 0.5407904123259074
Ni 3.1608859417283552 8.525630679264065 3.612446756069878 0.4498227255970834 -0.4443709584538928 0.17138742273847257
Ni 3.279990243510823 4.2678845690759255 9.210072436421646 0.7905504587370127 -0.07232873147139801 -0.5144358335917786
Ni 7.34556647387135 6.112117228274492 11.39090644872457 -0.5093913291893356 -0.3052807051862291 0.09414351335364432
Ni 0.6766662278590599 9.077444767819692 0.25866353171492185 0.39676595498141987 0.1532565174657167 -0.16422432933113007
Ni 4.800325345817457 0.3966053069763296 1.5751460327179911 -0.0823552624694646 -0.9530588338183005 0.11115444608934405
Ni 6.174213029947287 5.693458514202321 0.49930916055796437 -0.526521561111719 -0.41339482178735254 -0.3394411531180218
Ni 7.975461153558327 8.91569930071506 11.316316487422412 0.2934132643246818 -0.32098988839136977 -0.2703175588474828
Ni 0.22860327219441995 4.814873401797259 5.777316761851362 -0.48720065202490925 0.5574519321419884 0.08685135056760526
Ni 8.29005156904703 8.92750943063158 2.2580950328272102 -1.5732037741141358 0.6518049904032774 0.5552415547542309
P 8.680571993478766 1.5465577473087375 3.700949538360918 -0.766121636270687 -0.014730878452271404 -0.4734619622825781
P 1.6853335508725902 3.246330921445752 1.551036922059786 0.32365843636246844 0.42510388269416466 0.4842073737245402
P 4.658377885328815 0.9919424802725264 8.133251537369569 1.1714935877535633 1.050793664067629 -0.4055143905980113
P 8.561639376828978 1.6393761516717986 12.381088704584137 -0.46283379314477063 0.7604369271810839 0.5448483844453649
P 6.553429343800928 7.668307415132589 1.4375114834834861 -0.41527146998477515 0.6622539536507432 0.9621451123902849
P 1.8513259659961718 3.2671138585597554 6.058034604268087 -0.1335811505239764 0.4202025887378054 -0.08646979885847043
P 6.776267609961114 4.0081339993893454 5.927833117672703 1.316640588738268 -0.6872365917380099 1.578110981607766
P 2.3671765372849594 8.310897758578339 10.190336713248024 -0.1555787378409901 0.41362159308617796 0.3300990497814896
