# total energy = -340890.1833233782 ev
CRYSTAL
PRIMVEC
9.06334920026986 0.00000000000000 0.00000000000000
0.00000000000000 9.06334920026986 0.00000000000000
0.00000000000000 0.00000000000000 13.26512769196997
PRIMCOORD
 96 1
Ni 6.302245240971662 1.9348438050242402 11.436940763904035 1.2941233814723583 0.06443390210435354 0.45744784624250895
Ni 4.663201966510361 0.3823564225545162 6.1724898009555975 0.09356038715666466 -1.326467859241335 -0.5343120036904153
Ni 2.9438936707951027 1.4899602420983462 4.764873712436824 -0.8519556013173715 -0.2582174331498392 0.3008607217416625
Ni 3.355007194290978 4.760723604799947 5.029420189330821 1.3977000152144445 -1.0929481859484917 -1.3470423409585768
Ni 5.255537158928195 4.187693346355795 2.8816103345194484 -1.4515183465864807 0.34094010626105153 -0.13912213494686362
Ni 6.990833202779403 5.924856440159388 2.7264874861940234 1.0680678777670443 2.143536933094166 -1.0548359524578028
Ni 5.059152506655077 4.44181153356429 11.616723172959786 0.29203618147149707 0.522716585543332 0.36970509420888586
Ni 5.400958598180649 7.861068810925424 12.545428260002998 0.6027018051187233 0.392789229721859 0.37907136591513424
Ni 1.9228167405251435 6.326208736477022 0.40633441941872894 -0.34356700236093735 0.2131917603687683 -0.28439229177299413
Ni 2.3707546521595493 1.443184296446622 0.1772328889023258 2.094952339317244 0.8456234884517565 0.4216776306214351
Ni 0.556413513867932 8.987652190203661 4.707674915109169 1.016560968137004 0.046379872816120125 0.06641853663455012
Ni 8.658589167770575 2.440759962024676 1.4206682178218244 0.7435090410774937 0.5988749751734654 -0.31461149566885166
Ni 6.7807810197868905 0.9328814783930112 4.682430768350063 0.6946981902223777 -1.0389889581232172 2.2155679308194878
Ni 0.7047886986518525 7.44507920551507 2.3706640186667154 0.4973043161178145 -0.7551507390814801 0.5063132044846442
Ni 7.508767360929653 3.958136835705364 3.8818007763657696 1.7153520974818328 -1.0066244257495824 0.16591020167398524
Ni 7.8325192606826555 3.9370192318749986 12.637448445277549 0.19523440455939925 -1.6793078022637657 0.573023047107368
Ni 8.157830056512404 8.858680729900613 6.971169360174098 -0.19886145978902525 -0.8013724890531811 -1.1768597371614826
Ni 6.9374319488015 0.8135262316796693 0.3443021379182258 -0.8808303753701927 -1.877027435138864 1.238555671509383
Ni 1.8181894363973572 6.621547036226506 9.433509156842595 0.6689434498557769 -0.08445019732528036 -2.1698079509755535
Ni 0.056198203566766455 4.886250992375297 1.4591511988792205 0.013871615775769659 -0.025686349022510605 -0.6132137603936406
Ni 6.228841175125254 2.164336872229687 7.058135821888215 1.0371819868214653 -0.9576469674096154 0.19929057690664387
Ni 3.495661311820354 4.145204364915128 0.4199040659658635 1.05893711911037 0.653865472476732 -0.7486273361406656
Ni 6.0766856673552185 5.621506139643361 4.876141732584571 -0.0517377946939238 0.2860982187205073 0.636968182500761
Ni 5.148417433747468 2.9720263069708346 9.657914966095259 -0.23407863112010655 0.008185364024269774 -1.7853604083501704
P 0.3587463976712103 5.875017082449869 12.275536219701639 -0.5611332376483175 -1.5879909597256394 -0.8536607569339364
P 3.7447130867794187 6.138343632530317 12.49803238126029 1.6352185252540352 0.03130780897434608 0.7426112118535726
P 2.3702199145518277 8.544708184024419 1.357858300952804 -0.6691378252547703 0.0042004112345927665 -0.01037517258673697
P 6.525357710281582 7.9132283860515 5.949290323492558 -1.4761204614058772 -0.11217003183805198 0.5455389827544863
P 4.594637729181298 1.224884465606197 12.485801391402314 -1.3659489480550928 -1.0817965402070466 0.30935204704212527
P 3.935043421731213 6.05722665644372 8.442882361160137 0.6186259325481475 0.31318993273097673 -0.4903993614678651
P 4.8729188055793875 0.9677028663399061 3.6420208077236422 -0.725078602286448 0.5127327348577427 -0.47583740449329015
P 0.16213516166600683 5.526866646425903 3.470356440621049 0.464620195621232 0.7094642927879588 1.518794860345952
Ni 1.4886732465001007 1.1973228204353208 2.530017638437641 -0.5126494311153171 -0.9249150243942329 0.20222292006209042
Ni 1.888031605975382 6.657211315656759 4.7163231629954065 -0.7496413792274768 -0.8325831103280307 -0.5954317538198713
Ni 6.327967026238005 5.651614585962879 9.287871103542267 -0.5435384073846897 0.20022902956051322 1.0649804970909722
Ni 8.512406407178315 2.0952107072450517 10.192712391922237 -0.40758412864284643 2.1037501401145318 -1.0301261084159485
Ni 2.3831442506299827 5.321935255778521 6.994025314397024 -0.5983710389538534 0.12936685533231268 0.8156693652918274
Ni 0.784268833857865 0.1328569181408508 9.09902897054281 -0.38297738583775975 0.8455304145173181 -0.7432457601137781
Ni 1.1553051331573914 1.1953288835929685 11.334309209288458 1.6651793332821836 -0.5846382627487932 0.7382686186141608
Ni 3.949417893694715 7.062723689295482 1.5304770387349413 -0.231352233327879 0.06475888954394009 0.8698149980962955
Ni 5.421623034546844 7.742139541628403 8.25671935420886 0.7458885970532638 0.39231074742354366 -0.1914901070256186
Ni 5.097898324841692 2.7578321733557987 4.960110038355733 0.24558328932559637 0.8123012201505431 -0.6186716981844184
Ni 0.9119179515004635 7.32072098999728 6.976356314968999 -0.1091811244130571 0.5256142188061013 -0.0841023270675584
Ni 5.266222847733345 4.680929877708729 6.964444355005801 -0.637935945730669 -0.28330188692229274 1.2218293598936376
Ni 8.467832855402461 7.422982759962095 9.147937522280923 -1.1538604480528323 -1.1745015213419516 0.8059187136629669
Ni 4.739297847093945 0.21140534104052797 10.488829233375167 -0.24396915076094114 0.7441176211957701 -0.2800530409676919
Ni 8.104881969998674 7.202444281848665 4.624276694007934 0.411214269196266 -0.33444344279311433 -0.10104075469410986
Ni 7.423580941014801 6.486639082142817 7.311141936139635 -0.20649506507488305 -1.3065469519476918 -1.5872347982859052
Ni 2.4490982433654214 5.124626141878494 2.5060215148748615 0.04219308842828217 0.8450524464396348 1.279285030907945
Ni 2.430300856951611 5.20263438916088 11.07184549005979 -0.9489101017572497 -0.7974818957495234 1.4785439832457052
Ni 1.09469851649917 3.2229541952315666 3.7637814673368037 -0.595463121278439 0.9835084085574093 -0.18031377869382492
Ni 3.429317595065729 2.562616693140242 2.6487411697059287 1.7932184709420085 0.17772364936914553 0.13608797610623016
Ni 0.9870984338064221 3.316587656678566 7.8327929738310145 -0.27455576529854653 -0.3042782320636437 0.10654317256957781
Ni 3.7674349034329495 2.549184809502215 6.978664750031486 -0.681759884894155 1.1244192599735796 -0.07383205548980189
Ni 4.338915329149637 6.7580954565304925 6.121657100164615 -0.4392673186787403 1.232076748653259 0.12447224624417275
Ni 0.6981071975601162 7.7133815343521155 11.162923087008865 0.390263892196844 -0.42833704491948166 1.332856793486814
P 0.2853124227721664 5.501126734460993 8.010067554140045 0.019475078005476137 0.16025968825642722 -0.29222849998796124
P 8.504140632631836 1.5137696606658873 7.940133844734257 0.5037169045123776 2.581039189452684 0.9904125918764104
P 1.5970074604848052 3.1497313963708264 10.324062981412183 -0.5550798323653859 0.3294542171086391 -0.7605099465108643
P 4.263453883015893 6.165017069471419 3.593695935679382 -0.26128373077998873 0.039430952302112736 0.015066407414819212
P 6.909598403152121 3.8069964230550726 10.44167172071861 0.7410526091172013 1.1760696371600197 0.3787381509454316
P 6.548224540523648 7.634711662572041 10.525520390279231 -0.3416083359726697 -0.7412428707511363 -0.7747579717894463
P 2.5618553718004344 8.354024378450571 5.7797087140552925 0.09841462992517244 1.2200699540003699 0.24126255046305548
P 6.886033695015232 4.20167809430011 1.464390721099965 0.7371422183192015 -1.527508071849234 -0.6202706672404221
Ni 5.484957719339375 2.632640129703935 0.5431556465361471 -0.5414200754901062 1.526189095927494 0.5316856218111619
Ni 1.7397370850000842 1.004345987492768 7.0084840755088615 -0.45832844907524933 0.5140609667508631 -0.81002810784565
Ni 7.08098633810157 0.3909421333306988 9.328833816963606 -1.3459303388413206 0.387166741328759 -1.1333618138788482
Ni 3.1834923724515614 1.7545737877770409 9.148600053113542 -2.350003201813643 -1.2928067195434638 1.038118639703122
Ni 6.663093429341697 2.035909212883643 2.6810683239300266 -1.7559655001278212 0.5507665497020128 -1.5964648015246052
Ni 4.3929328908788134 6.959374317416657 10.49341891345229 -1.0150643289868198 -1.2848584112306647 -0.37794419428922654
Ni 8.155328572110182 6.991730474358462 0.32990228857673004 0.3175019298427693 1.2239888294388017 1.0232118977946185
Ni 7.499540871359133 3.79256757099587 8.220267469725878 1.0889933150658018 0.05320332349585676 -0.1308938334998004
Ni 2.8903202131808143 8.32926330820827 12.364956130066778 0.5505798876125034 0.007452085402671036 -0.08936151858396868
Ni 8.922495772205163 4.947102319464171 10.037629422333659 0.1786839563998858 -0.48327277772541277 1.2764177366624792
Ni 8.805823276879714 2.021969781685745 5.738521229571725 0.04825549257227818 1.4515913659162614 0.4293204918786735
Ni 3.382269748935502 2.881093723610294 11.470077275219142 0.22021987086014333 -1.2313645530775825 0.43461285062586436
Ni 1.206050825795253 3.417208960423081 12.714253986110023 -0.7723393350456246 0.6776517762630524 -0.8677907685774151
Ni 3.0758288463138297 8.3499639979716 7.989175627706835 0.37879240122213476 -0.33392690816801196 0.3897093052449546
Ni 5.680309149794183 7.975955826442041 3.9881211141396986 -0.7172812177292164 -0.8813011443590242 -1.5731089004074843
Ni 3.0732729818159057 8.440606554155071 3.515192829526122 0.8909893181810654 -0.29265324623020567 -0.20048716831790633
Ni 3.102067242489327 4.126461358597018 8.993915870893433 0.37172186752859854 0.06514815456255878 -0.1481428503882352
Ni 7.08310716183389 5.830162566846228 11.866280682808867 -0.7184808944642722 1.9644719392057781 -1.9473010838534461
Ni 0.5051566483304856 0.11850963622519889 0.43552837379554915 -1.5489135341082034 -1.0470604222774418 -0.4884329817701137
Ni 4.447349239976459 0.3328188743761342 1.3406932237449372 0.9923365483720007 0.9256408468166638 0.18303966226542023
Ni 5.555552146907923 5.760266017172503 0.7227214415440248 0.7369506711336856 -1.2242788498753947 -1.6476827191593173
Ni 7.934916980886721 8.998528209343764 11.499804154533829 -0.1779499064473387 -0.3310449586345266 0.6639495961856113
Ni 0.13883057165355212 4.96473053382042 5.754545231104808 -0.3940994638928503 -0.6681718617970751 -0.20107800782436983
Ni 7.9984782494113364 8.934214682828625 2.5782364692952857 -0.8108313204732358 -1.287232053669164 -0.7219318291273503
P 8.578559793597988 1.572672367658826 3.571768068423078 0.8709218580072291 1.1712976696926731 0.7666692812440409
P 1.8891463979372427 3.3451553336199025 1.4871932015621183 -1.977826763246129 -1.167554657710473 0.174693347183254
P 4.893719192184834 0.9502015388736245 8.277983784297616 0.8886856097485533 -0.41203342266345167 0.2813604469252058
P 8.433401191474752 1.773887785100006 12.5560804144158 1.0357185149020613 0.7445930181702919 -0.4989145980277278
P 6.40666408806593 7.799610239434562 1.343810109563505 -0.8174621955261921 0.3396666388652666 0.44126095207000127
P 1.9553360377540498 3.2709265029887025 5.753483912903721 -0.2229231287239193 -0.7186148489389753 1.3326017400532146
P 7.004817950723719 3.860297980190859 5.959013484603808 -0.08534776943888527 0.4500047597009025 0.08141912380844044
P 2.48257825561837 8.655226665186428 10.16818515609145 1.2287278867856837 0.15429112937781814 0.8675418857914028
