# total energy = -340869.46161415195 ev
CRYSTAL
PRIMVEC
9.20829221093921 0.00000000000000 0.00000000000000
0.00000000000000 9.20829221093921 0.00000000000000
0.00000000000000 0.00000000000000 13.47726643915032
PRIMCOORD
 96 1
Ni 1.7621908360482565 2.855169052512424 11.549585851953289 0.18216908673500884 0.12944475975809966 -0.3030163346320846
Ni 0.002551617707420034 7.2706831808903285 9.026035018485677 0.12009442889145124 -0.9316253465348731 0.16064638217188462
Ni 0.008330741753529068 1.2832767785051005 11.767756072156686 -1.2768921051957363 0.1898191470810989 -0.8230165496855181
Ni 7.568663509335339 0.08433414209096492 5.3358654159383105 0.16056204998819443 -0.699259327230499 -1.0089839271206944
Ni 3.2012350816725097 2.930198215558467 4.4789675475769695 -0.5514018692931665 -1.6492834879875338 -0.7493495590186707
Ni 8.201346834638175 4.115646100077171 4.185082146575083 -1.5217074060070566 -1.632198507480789 -0.2468351594548265
Ni 1.6512585425755422 1.5988541529222493 2.901911263427743 1.5002826604743775 -0.502955857976637 -0.24243111684985988
Ni 4.385292514102364 6.256251695008236 10.791921142105164 -0.23847650307748608 -2.666415241026343 1.5622423900066256
Ni 5.518612257727149 4.431775972013068 4.0168319188490065 -1.5823491880588298 2.707189337619912 -0.683827566056461
Ni 5.169535117089884 3.0882953805483426 5.645613020703465 -0.17521579534562728 -2.0965783049564406 3.116370635546549
Ni 1.8859963217078102 5.7289848962826095 10.168341134252907 0.355968975569716 -1.2165190034243176 2.8237896373151754
Ni 1.3686468534437186 4.405624422792307 4.098247953211781 0.6848606353066656 -0.01681681444702265 -0.5777731601978437
Ni 3.5677435190262887 0.042565329673580315 1.5003024080154903 1.1009857115409878 0.98266560094114 0.9084962167165773
Ni 3.5375587379186637 8.23260898590736 11.058999363497373 0.1743285076446675 1.0524237434718842 1.0311782038295467
Ni 7.011036971954485 5.730605555670938 5.637176383592175 -0.11430481879286766 -0.0707575303295362 1.0375062029301034
Ni 8.772205687593056 3.8189365159252824 12.964901249976492 -1.087807779398133 -0.4340325526423621 -0.03405657536407684
Ni 3.81649631855081 7.507907198856966 7.706583464940521 0.598080504296628 -0.4020665412587269 0.27875334831966186
Ni 9.174736963169236 3.52666532850734 2.1128849527570583 -0.4366108548924997 0.2928831028528246 -0.49545235051074027
Ni 8.995147644700044 3.5533233337869534 10.576675475434342 -0.2511165604389998 0.4519099471434152 -0.19138083514126394
Ni 6.975879713178124 2.3794042308261347 11.81049175523188 -0.2769767160352133 0.8821601499252097 -0.25788781772456226
Ni 5.347338026915122 7.736650379910813 9.446782137254994 0.5317810097384454 2.0613369652556437 0.10894586847379947
Ni 0.8819923056628965 4.636430261249482 8.505987520671697 2.179416677709911 -1.8935442018469646 1.089407519785085
Ni 4.978684057530203 2.743923677112419 8.282345733374294 2.1709677756116097 -1.0750268255833808 -0.800190810040254
Ni 4.945626289325086 5.140796037822984 1.5826079633834507 -1.8470224041363414 1.6393484882620093 0.019008422781702745
P 4.178557150878664 1.028639880405908 6.077424823114917 -0.1596192264589509 0.5376968610022482 -0.8672300109779386
P 0.7670129678653497 2.249327898328785 4.9030701679434845 0.19065526982914904 1.1423843290924325 0.03778287517572848
P 9.179792315465784 8.72668910034016 13.030858403764686 -0.18147823131557134 -0.022083976383232937 0.5465399132151749
P 1.3176513324632346 2.535392696952787 9.172115362442774 0.5381802283965699 0.3567289936641921 1.7148404479527368
P 7.079482206235442 6.463327765035165 9.678456317645802 1.3040465541233413 0.09070851953016636 0.025431038478594913
P 2.6790696767033273 2.055382852664113 0.6366603866086264 2.0975411830903425 -0.17624809326488355 -0.4180397767585317
P 4.9210125248648415 6.327919831481892 6.137991442778521 0.20612868287439987 -0.23239687254230945 -0.3300543125864832
P -0.1594526255692053 5.975822371075469 4.3946803677750985 0.6827304763375404 1.2217653394249217 0.42139172394990004
Ni 1.5954747097659046 6.26563494453498 6.8727588137913145 -1.3058604674036283 -0.319098842016244 0.5216110111839791
Ni 4.1796345210402235 2.3375249189050002 2.1373191555237097 -1.0059214861452868 1.1343881982608335 1.9452696552457143
Ni 3.3080788935064853 6.912941037500692 1.2419840347830373 2.5469314491356974 -1.124090158768935 3.612488130445114
Ni 6.741869389112207 5.126523185255316 13.380499091871075 -1.4935468844124407 -0.5158566251987051 -1.2256078530994634
Ni -0.001239436100392409 8.11914441214038 3.7081349801986714 0.16745903421834388 -0.7453422376314905 0.11423102813213874
Ni 5.497018813036063 0.03886359629796555 7.481419546978965 -0.5671539899211007 1.6590045719300395 1.5837357839937114
Ni 4.886858969914207 3.1267492078532366 0.2441836450444712 1.1373480522201056 0.6712859819460245 -1.1735525271651208
Ni 7.861220153804635 2.9080798982245697 8.68503354991412 -0.21413304123611507 -0.6994426468858986 -1.0881703049438745
Ni 0.36969542720775983 4.260013701726147 6.336889628698773 0.1791866070679172 -0.6964054027214716 -1.5557814648726302
Ni 3.3196813414002033 4.864280237981353 5.6050062947338475 0.6605326000842624 1.9588918740148393 -0.5356559193128194
Ni 2.2881316407288868 6.728020117975578 12.982839002751861 -2.244491041611741 -0.09897924417939083 -4.170076073944334
Ni 1.157666467617635 1.8868434845698911 7.201159655618614 -2.0010127144442893 -0.35212697611580646 -1.5940641625029128
Ni 8.242425025157123 8.824149662647391 1.6610865526048795 0.8036299176287902 0.025453407076098094 -1.1117144108124015
Ni 6.535585232195485 6.960188783645666 11.73377931641205 -0.07402128868247251 -0.5660173052134962 0.5345611435867439
Ni 0.1298267877847142 0.44079172874951134 9.234690310587029 -0.5290479270779986 0.7559452099583174 -1.3734794521041829
Ni 8.038700773410604 8.472411325628155 10.98363501862329 0.9746602141381601 -0.18495359145868148 0.14560568578867827
Ni 1.9997923939860376 0.5905609144734517 10.371821366261981 1.3625095833562406 1.3475200519259438 -1.4617369389906953
Ni 6.53875288463631 4.390964821961514 10.161157745679978 1.319013974066451 -0.47504061962360766 1.1346098273533363
Ni 6.138698639602519 1.0174794305271888 1.9991100595503832 0.1881805830364114 0.3244958446620992 0.9444392104700897
Ni 5.278644168750729 8.336681101855612 5.448508610060749 0.865711003230251 -0.3293727131384263 -0.6511267333893302
Ni 7.681234878780341 0.8085957727847557 7.43777960963142 0.7057853012744749 -0.8526148321679251 1.9979279048713785
Ni 7.056848224550712 7.519251814575267 7.752743711802758 1.1372953446052996 -0.09870362192050099 -1.4811585380504166
Ni 3.368374789385902 4.565415913506345 12.170105944380877 -0.45556348473560254 0.9804259129773438 1.1605440307205948
Ni 8.177718357419698 5.216506614475484 7.949362845458173 -3.740632426224235 1.101428198395045 -0.24145795430331318
P 6.486505035946663 3.9333955852260076 7.178531198909074 0.18145611982838425 0.9157225592616874 1.023079228871496
P 5.135372353847271 3.671889301310376 11.62831951086254 1.6027154104200076 0.3986726850858295 -0.9068617664369479
P 2.9912768162561107 5.649572586254496 8.445865661510686 0.23399687003957764 -0.8060614098884182 -1.062966294874421
P 9.11185353724368 8.185333614886448 6.548657323489073 -0.8154531355159634 0.010609657195046243 0.6169161489458923
P 4.792280602996447 6.648276309436215 12.962623118540854 -0.9918493243229369 -1.1988447260730062 0.7678998112170323
P 6.275635149624328 2.397848439660354 3.9315069645410863 0.7831271696897482 -0.805923084538341 -0.6097363433680015
P 2.4165596889619696 8.245123054707012 3.526354088238445 0.40476002893049 0.47184345284254864 -1.1590738739329716
P 4.7214872542608095 0.05805367678249586 13.192114012903408 0.15953669404747362 0.15909883517910664 0.5338862290069063
Ni 5.946365045034196 7.66451262054622 1.1880731685619572 -0.282956587767732 0.14750727368676533 -0.1777460179666487
Ni 8.619007333936082 1.4542471356818156 3.296458029028809 -1.829333728607327 0.06549782459249366 0.7953746195985334
Ni 6.577390877780786 3.7927941749965006 2.1141925302180966 0.8499943638259426 -1.8993296981804904 0.1525936870707372
Ni 2.998956531766715 7.381661515822939 5.548226124732067 0.5619068825895485 0.7147903329865625 -2.1642505114924337
Ni 6.909386636796744 0.6059470495413988 13.335889521378123 1.2341230896593263 -0.6563486439099018 -0.07215081113263704
Ni 5.715982788008063 9.366858767022038 11.37044589813268 0.6878551991586154 0.9009672553293838 -1.8455887570136085
Ni 3.156068409514822 1.066062379009138 7.94281298737341 0.884213947130445 -0.18115890030293963 0.6590781270259229
Ni 0.8735252811880762 6.030096044000527 2.2037486946904323 -0.25512671003965737 0.41511283291972384 0.25838686884816786
Ni 2.978072125558022 3.4983774555474176 7.4264589354722625 -1.0485148953357815 0.5254658661536951 -0.4091625288735598
Ni 4.4020516055044006 0.7709964749755261 3.840226086981057 -0.22934137354543727 -0.4705275622446025 0.9344201356711906
Ni 1.5746087201411707 8.355024019478062 1.1735111756261432 -3.217365881714704 0.21785368462081192 0.886417382539667
Ni 1.712162185725582 8.540248812638488 7.63446688464748 -0.8404504288912493 0.5456192011731184 0.02529271312851773
Ni 8.891038695583873 5.952774016251678 11.458466119502894 0.22604239107919133 0.05503934826333102 -0.9634232077717602
Ni 4.641448780378115 7.384488461460535 3.3983597505575798 -0.4994277902187206 -0.4388402584436507 -0.5360138168728705
Ni 5.113152745301603 5.419107454600549 8.821504120361784 0.05164497786980138 0.1331530618476223 -3.046996358717785
Ni 7.038873638607428 6.249354684315859 3.172656226686047 -0.9633345047126958 2.0014531444158177 1.9447598054888315
Ni 8.503903684196818 6.668746342505846 0.17906997080156778 1.1183529991748418 1.9900346181662307 -0.7085083566325926
Ni 1.4525988514175492 0.09478831597488395 5.265972638158233 0.2676040165710617 0.8197353078310851 0.016285881644217112
Ni 3.9216365963686446 1.976550665030685 11.840142455404715 -0.07927456666161185 -1.9724883817523513 -0.6089362160642093
Ni 0.6760322806238406 1.853058261298422 0.5001290414338995 -1.9714262590364242 -0.7773547859823451 0.8326720704974111
Ni 3.613803395505953 3.738069295764464 9.701609646998154 -1.2879162242203819 0.35767284563470014 2.1194477533554466
Ni 2.1722452861713943 4.043655673384245 1.4169867030174186 0.8047509186071109 0.2968143195864308 -0.14916409256389795
Ni 2.088320913073501 0.4705602950596791 12.604397539822312 0.6437556377362397 -0.7565008253514713 1.585938448071985
Ni 7.7554721287161765 2.6495571009101795 6.094136952227861 0.1662866111767975 -0.7126000102034631 -1.3352571753981908
P 7.505899791205512 1.1776116280444549 10.006102079530814 -0.5302388620623062 0.20399518147116477 0.5361464857959929
P 4.4013517753139855 0.6962012025457537 9.699588426908733 -0.5094923735435741 0.04393963880574368 -0.15291893162063985
P 1.2725491183494009 4.83009905815478 12.633939582149793 1.043127662881939 0.552474533532055 -0.36253608726427244
P 1.5017066725423094 7.652560257557295 10.680571713005794 -1.231379722586234 1.6508814286022728 0.21135933514571986
P 6.905399446369776 8.632948687992503 3.3188443076592993 -1.0270474694906249 -0.938067502615791 0.6477871274931359
P 3.367067211924864 5.017671965769886 3.1360118287550542 -0.07890407069607056 0.04347864000892512 0.1743166805701256
P 7.918679895754477 5.371279586060889 1.637663420297538 2.1030626271292037 -1.2207726364943492 -0.4516466661796996
P 7.5677426801374255 2.547694975036919 0.777495687454404 0.1858593911024025 -1.724066594536695 -0.8833672828594336
