# total energy = -340859.5476169254 ev
CRYSTAL
PRIMVEC
9.32669724126249 0.00000000000000 0.00000000000000

0.00000000000000 9.32669724126249 0.00000000000000

0.00000000000000 0.00000000000000 13.65056416958819

PRIMCOORD
 96 1
Ni 8.286154693216952 8.192029667425565 2.108930334114806 -1.6596074956213611 -0.40837757107841927 -0.4178821681347449
Ni 6.502414571573212 7.691829582386139 11.949417316346866 0.40523722567722464 -1.9771819305732787 -0.19335929902387344
Ni 7.950132454888365 8.884424996864826 11.057298232715976 4.455873216484655 1.1000431451220605 0.5659144610870448
Ni 2.7001906923222507 0.25378128981260506 6.979478852116195 2.6929827071022268 -1.6372610096053608 1.0169260647859066
Ni 4.695768082178416 4.2477508666695885 5.375032354957779 0.31125106383705103 -1.036941588675885 -0.0402696461533242
Ni 9.098929700409824 7.06800412904857 12.697686089306586 0.028113727517080613 -0.24607179892624073 -0.008907072681642725
Ni 1.6228359455683332 1.510467900509412 1.645752572686052 1.7907137022422839 0.4278073976682568 -1.2842156354403431
Ni 3.1776243100651285 2.542588166973176 7.51242403753721 0.7835251764591151 -2.2387582528930214 3.3170300677762614
Ni 7.3486071339989945 6.783940919523373 6.120694316115209 -0.5515913595961532 -1.3008673850644112 1.757425372502799
Ni 5.9447153997319715 0.9063236431116956 7.089761447733285 -1.2344869007566481 -0.2873377475545632 -0.0008155539227598858
Ni 0.5711818449767967 6.577242661339789 6.708706185769032 0.5353556144635813 0.2827763534361259 0.5953991008097229
Ni 3.1160774367796185 6.59969202093946 8.04192953711678 0.6575622046020289 1.7912058113873541 -1.6813469441809816
Ni 6.380328108274632 5.248104403263608 8.95997030962817 -0.8286452087262052 1.4276515672712125 -0.4031479472483637
Ni 5.853640203848807 6.334729886802765 3.7752268222101613 -0.8432837845749863 -10.156049291375115 3.0886862822574033
Ni 3.089459043635681 8.367324936921118 3.373313335148816 0.25943562182765645 0.8355565911340578 -1.1869202067212785
Ni 0.8769790564442913 8.537816957478647 10.345857788070015 -0.49977103249075217 -0.9304071578570557 0.6522783304952702
Ni 6.184141037572905 2.0499613598709865 0.8907918946524804 -2.1507928433256316 0.02547166190854323 -1.8081156997688153
Ni 0.5916362240952163 6.897847869581857 3.6325376853113864 -0.8873445223396267 -0.09042749795463782 -0.20317808488650818
Ni 0.6283852754847551 0.9857479291436313 7.082485691429297 -0.7125496165815018 1.8175238804565923 -0.5694309588807355
Ni 3.81039406579409 2.8423575341908713 0.6779473431676161 -0.18864698114986866 1.6952728102334547 0.8150456156648996
Ni 2.742403322795083 8.671813612804138 11.784996042845187 -0.30635002699100783 -3.098427163694251 -0.09435871468824394
Ni 8.129951172412934 4.159995974906691 9.566519922173686 2.909439768485828 -1.269325091481756 0.5755566121624991
Ni 5.719830082462655 2.466165212025234 3.523142058575861 -1.702605596449442 -0.5016762199332652 0.16796605576174942
Ni 4.338620875219478 0.7868962211184198 1.8725433341457343 -0.24950447875687348 -0.29670710458460514 -0.39533642162374494
P 7.01730420433573 4.262067346513998 5.6743213972816715 -1.3325755148009695 0.8544043199681802 1.37755670749735
P 4.992086571518306 8.840598847816697 12.705835757116386 -1.0842072065310682 1.1822891357071703 0.5623090031239735
P 7.532529598189062 5.6425583980907135 -0.006169610043698254 0.738016907614671 1.021457376997357 0.8590395047473464
P 7.567066357058018 1.926625119178824 2.303627931310897 1.556716832202706 -0.3100976669588982 0.8148679524364546
P 3.752699118355969 4.674978874638879 7.532967952946513 0.9444168418725865 -0.7269063995238062 -1.4688046444707543
P 2.412788525282853 6.5316817466557895 12.378194488682382 -2.5772311285605034 -0.8072063221261389 1.4438456605325714
P 4.220983246374177 3.9066455784939627 2.7776302572396 -1.5743168046726566 -0.32892868362247224 -0.06806738509188277
P 1.6389151711395136 8.22402023802252 8.394482413149753 -0.43899298197143105 0.007768588201825331 -0.5577681778308266
Ni 1.9578135938366121 1.0342560800692167 9.297330928971528 0.5651796398035492 0.3940009906417731 -0.18489934118197834
Ni 8.710015763581142 8.814810530702825 8.356848258218042 0.9034925928543989 -0.15548463546528704 0.13134429077365767
Ni 7.662832881515605 3.522059229057988 3.8863833293330647 1.291659236202582 1.305505912277687 -1.6937777137451666
Ni 6.979857516013056 5.128023179812943 11.674207940252481 -0.7376834355346522 -1.258658612906845 -0.3528931648578697
Ni 6.387425724666551 1.310251696717922 11.73691878531948 0.6189774023502953 -0.4552158715881967 1.7043434050761552
Ni 0.8115625365871557 5.505903634129615 10.984294444876152 -1.271593061580326 -2.0723016917972634 1.8943199036707246
Ni 2.016665051698647 3.730128511695727 6.299926384400551 -1.7235174069014445 2.933031953983471 -1.2546389502244908
Ni 5.8622300917554515 8.011847208719281 2.9182451367329048 1.043153373913552 7.821222283081277 -7.023101725306492
Ni 4.311377593378749 4.534015176679007 9.656886289087357 -1.2124031814837315 0.030993620168036945 0.09003951848759978
Ni 9.016061997857657 4.164090394875222 6.712460181298266 -1.5762407611682465 1.5206262571277358 0.5625494012695538
Ni 1.4990800035126537 5.012801165482106 8.667275242059976 -0.6689892154920479 -1.0610842473603597 -0.37412327788123956
Ni 7.987849617423084 2.05269408208233 8.301276067009619 0.16133595203974152 -0.3699390645965629 0.028928252998575987
Ni 3.450961818078227 0.8421289205572424 13.228501989810024 -1.1219098632881648 1.0206266535659454 2.885108905049947
Ni 3.5087407057890516 5.799190946955216 3.6454243825107486 -1.9096603906825367 -1.3154023454557928 2.0672312192528914
Ni 3.3417555232911327 5.477839602955785 0.8575571426801232 -0.60755810476976 -0.7409896170897496 -0.726833894414658
Ni 7.630823657524717 1.1046912955643173 4.415384254606717 -1.7793800223970195 -1.2322405279246327 -0.045402596504515357
Ni 8.220149658781196 6.538229087926653 10.425208393195911 0.257743321726898 1.1278195439043803 -1.42832648185105
Ni 9.06426236778333 8.504875063791053 5.371442509295164 0.12826179519359202 0.11971956205053576 -0.3355793561697704
Ni 7.843920029827692 3.71744420382055 0.7619920748770245 1.35367475867343 -1.2902137620053071 -0.9821169275265216
Ni 5.443200250420191 8.17480325812744 4.926352011294594 -0.18708940685476166 2.146516584547781 4.924097327407062
Ni 0.7916323178382838 9.252064737911686 0.09380418741572118 -0.5557771155427267 -2.1609654129832587 0.9695185220362207
Ni 9.259899163364002 2.610253353469065 5.046804437284547 2.251353573059529 -0.7557750029290403 0.566976583802972
Ni 1.022103393921161 6.47943359024642 1.2440703877094892 0.024287668902771075 0.7197337930347669 -0.6897927825009604
Ni 2.1615646157786106 7.807704465504667 5.302684233914737 0.3271633641919333 -0.8827409621293443 1.612887722967319
P 2.1585800727491575 2.7893912221150403 12.824500255297758 -0.3404369413723879 1.389669431600484 0.8079673686618793
P 0.9619555251807073 8.514742709182183 2.24860321721444 3.4727766986536834 0.35466234094315047 -1.4133459492818174
P 4.210919740346739 6.900552611702299 2.1125201797774205 1.3317255080958483 0.8378353598659055 -0.934454588453552
P 7.814046619442256 0.44606047448514197 6.509913235934714 1.3379936004927475 0.45812096105013356 0.7771488406191261
P 5.498013248495496 3.268410378342315 11.83666314603351 -1.0946582266610632 1.795546861964869 1.2391843062323173
P 8.510956070213565 1.62763919450636 10.919631522133953 0.23678883096241798 1.0737926960659634 -0.1255189423411322
P 0.7516021344557398 3.022857100594034 8.15221213273387 0.45314176266798734 -1.9555913488866967 1.2971806802414434
P 4.455829476004294 1.3539192919176124 9.071414079017657 0.9713092953880562 2.466518397994268 -2.6218937615752007
Ni 4.099764165893534 1.7247207832362996 5.457058789443519 0.2878517110765042 -0.48676125049464564 -0.10632565724213301
Ni 5.440691368936057 3.0357559224994533 7.716363458757942 0.4329331489305963 1.7059418599115266 -1.0245097906704357
Ni 9.087289982594955 3.3711812522221503 12.296113959354233 0.6348801896234807 -0.11335376773350801 -0.9451694037678948
Ni 2.324119617217185 2.83851493504045 4.276038738570627 0.5833385701007631 -0.21349155099737427 -1.7720567492627288
Ni 2.9971247436619652 8.058639247402931 0.8961053139146044 -0.7460901715411086 0.8645581205727304 -1.327915647431455
Ni 5.497584220435013 4.810178673873119 13.575076453087123 -0.41090727947880845 -0.8583023694710057 -0.753674925866902
Ni 4.874523556248742 8.215691497630951 7.383986093604075 -0.17234284467320643 0.6653783582123378 0.9106608284680638
Ni 8.368071072678482 5.394542872343133 2.2970488792703456 0.21559985558962871 0.9039456212314173 0.18978983650506023
Ni 3.3407855468065604 4.345587917853859 11.835653064751977 0.577192090883393 0.5983337579580147 1.044003123508357
Ni 4.467758321425141 6.791728711490854 12.32327889694044 -0.470118499731642 -1.327391913717501 -0.6625105497462396
Ni 6.113556594926332 2.8144147500776135 9.879049143511992 0.265948997466142 -0.16220627045983677 0.005974215305563905
Ni 0.9409518036109289 4.168744416661776 0.7818206326289557 0.43767194916716234 -0.9800016809557316 -0.1457892625543941
Ni 3.9645363865683922 8.841568824301268 9.652163249743245 -1.2939673155104683 -4.308157169221194 -1.2370513190497148
Ni 1.2992461942968128 1.1317293900717722 11.963204039803548 -1.3035873550987356 0.6384020867338103 -1.8553514928273271
Ni 2.4474558579093477 6.491390415758168 10.164632604642815 2.8903662967941446 2.3402502361919373 0.7391019131487335
Ni 4.1329858604901375 1.0569759138809307 11.152060271910212 0.3918764880996025 3.0809068954223005 0.007009084327981477
Ni 6.490970714394652 0.07870333235638355 9.627401801965444 -2.2361534682803232 2.345741598323812 -1.4277659813618895
Ni 6.191481148085967 4.317980894831415 2.183940294472241 -0.5581556430772323 0.9776527211075808 0.12895856415030046
Ni 4.638511489497745 6.483845117911832 6.060850497695881 -0.8095511682092316 -1.9111035508869665 0.28198265389023697
Ni 0.4159501659967437 0.8087458741031092 3.4433269839410063 -0.24739617416461906 0.6274908391379451 0.915601717413107
Ni 6.903621095004455 7.61208632331793 8.478392840422835 -1.283733553597602 -2.802831804116586 -0.44527187300160737
Ni 1.7533350895311843 3.107543509054775 10.526250097458057 -0.5285421910861736 0.7091421335618496 -0.526023795539694
Ni 5.979625226479609 7.2883473448949365 0.6363540053733958 0.07080458151738774 -0.10725485392462174 0.19209663026136592
Ni 8.269058857676365 1.432067685804457 13.441313897855505 -0.1087761756651546 -0.2580505685546717 -0.006137737466621687
P 1.9036161577611315 0.7156495829871865 5.1275615083130734 -0.3934554025509482 0.47374786895411314 -0.9070224603845282
P 1.457352361282108 5.508309921947111 4.91407994342536 0.8849467115314114 -0.3480466353988457 0.937915550418959
P 4.996805880183629 0.5367896499108294 3.8451593287387387 -0.7265189342774003 0.24747819235546412 0.2325549953867285
P 7.770444311121335 8.640531871176679 13.529523932430394 0.7645496637978768 0.10297525271266136 0.321560159072543
P 8.6625988362007 5.930827947948045 8.337873093238594 -1.3706617801497298 0.45813021702151424 0.1800849505124705
P 4.8012903316635285 6.785573091492606 9.74042831183024 0.9012667888476736 -0.6159177895883651 -0.234269406974674
P 7.618680298073629 7.229840974820682 4.161006056188222 3.137868914629641 0.9444263549542832 -1.7394903852909331
P 0.8422744170299282 3.203683101391044 2.7406508364349755 -1.0063968831198087 0.17875723283998246 0.4289939617771902
