# total energy = -340894.4829824419 ev
CRYSTAL
PRIMVEC
9.02263645936883 0.00000000000000 0.00000000000000

0.00000000000000 9.02263645936883 0.00000000000000

0.00000000000000 0.00000000000000 13.20554048036322

PRIMCOORD
 96 1
Ni 6.358143673940622 1.9174546196489302 11.634028414866057 0.6252861181771425 0.3315771769889128 -1.4158072663381165
Ni 4.595851334280505 0.1800268616712679 5.950640807478172 -0.30534035477957094 0.0740076618357177 0.23199552333883272
Ni 2.8624133861656706 1.749344856274413 4.778741980778688 -0.3269283653629918 -0.9237865672167446 0.13560820825633418
Ni 3.3913383834038062 4.316077421511236 5.067837179322013 0.8657858223322444 -0.23058784435802865 -1.1854747325240036
Ni 5.08656546591693 4.786463553100281 2.5326775260096452 -1.2172677086648844 -0.3877323840242419 0.5668110047593852
Ni 7.23818457079873 6.114009175368934 2.673897125806174 0.945119781476882 0.16372399265594384 -0.7409762473533109
Ni 4.9211715161306335 4.65261274053797 11.629472885694321 0.46998120282282935 -0.41034935009280943 -0.5627332351455857
Ni 5.71202365112973 7.898091182190358 12.465554595232925 -0.7446362127034014 0.40807006714032945 -0.13742649241199556
Ni 1.732481548645228 6.540238523899 0.237721208543424 1.307603418236664 0.24241620445152445 0.08387915531315876
Ni 2.6154999155502225 1.647136429937652 0.3442469664481704 0.6491616392431594 -1.352381493783303 0.4544743654364818
Ni 0.9009815339242263 -0.17333928349323055 4.3946979692311015 -0.6631134734375612 0.20777547444920347 1.7543870998971074
Ni 8.510773314111063 2.497610146966526 1.36369661995611 0.8319904710493541 -0.19913296828285706 0.5893030152143142
Ni 6.836144910740491 0.5357858100370825 4.6138045763995805 0.2214565714807218 0.6445704203280512 0.45752189401355403
Ni 0.8671475492914386 7.424014792270476 2.4797101384028344 -0.2780576078042179 -0.2834600097667118 -0.305776413875725
Ni 7.420432805577706 3.8077691486886636 3.752156324058377 1.4972423309861569 -0.21797838312413426 0.08909078142108529
Ni 7.623027085677072 3.892978927848654 12.508182041404185 0.5802077377812653 -0.7584317238255971 0.5454006574044091
Ni 8.111052471634792 -0.13344750071050449 6.70500720497545 -0.7441199351886153 0.7179311926083893 -0.069731403057867
Ni 7.031169198811562 0.692165243690517 0.43781621833070744 -0.8817122637545137 0.7818786419946278 -1.304189764569425
Ni 1.861965405138771 6.321692222457526 9.210825244371225 0.03847141660232084 0.13591339820157883 -0.9666591982105546
Ni 0.11324762210150552 5.045864352639641 1.447340069418708 -0.18873234177482334 -0.9605821387785392 0.017224334298086463
Ni 6.363818912302718 1.9954914027868753 6.9737401174526745 -0.5686418873205369 -0.6468062516371054 1.0314430274551591
Ni 3.2998398265993316 4.324035386909278 0.3716261569247683 0.7260350526624464 0.557815229018678 -0.24042771326658594
Ni 6.143125223372883 5.66393299855426 4.680518852986501 -0.783300976263451 -0.5890677592750564 1.084618583036874
Ni 5.275021274611839 2.5708829780294526 9.399413685822768 -0.20411550909911297 0.5226075707692934 -0.24753527084564464
P 0.16025375376898937 5.552431256616609 12.412045849435772 -0.39187186011391223 -0.16540755100595383 -0.1696781533568497
P 4.013196536650826 6.32168319982102 12.670187991182585 -0.45362770116547035 -0.5468067937233163 -0.2821505469266689
P 2.314613033357576 8.456457042346647 1.1722425891503516 0.9332885931699089 0.9601046849214885 1.3011504635224687
P 6.326645649899164 7.795124854387117 5.906389286735883 0.3040599454052505 -0.6996223669968725 -0.03707247937226518
P 4.590970087930912 1.1343078162257156 12.54818209582498 0.2581482704748006 -0.9413564577797077 0.5597980637766616
P 4.001313724372797 6.0482431778787635 8.242528526268798 -0.5319730711445935 -0.20020306141858424 -0.8132196181997542
P 4.673770823143877 1.0024780742406862 3.7604363975796726 -0.11448248202131252 -0.3502750105087322 -0.34811914050799403
P 0.29478667765113153 5.666062340769607 3.6536823669713314 -0.6512738004901557 -0.9564773725815462 -0.8424396914071363
Ni 1.6278370104519235 1.2277101493328968 2.647658396583899 0.13480679540096138 0.1433513425368628 -1.4353661623066505
Ni 1.8196853304729819 6.48260192190048 4.958614555365708 1.2687046842889378 -0.15809147696051484 -1.3723404534037333
Ni 6.208034070395009 5.751281142566104 9.170429096207831 0.7520170785485049 0.11979438115252918 1.9038463551039213
Ni 8.397999380426107 2.479853598323275 10.1542555762639 0.6743070281605354 -0.4239260603359795 0.3883057400292087
Ni 2.2368920424973306 5.147495330240036 6.889951403542334 0.1965922041388743 0.7504420207519011 1.9646678572666678
Ni 0.6409347136110565 0.22057098107335732 9.110449315508776 -0.20080392822737675 -0.43915521858090817 0.045601085668566625
Ni 1.5416618091858216 0.8456159295341958 11.395377874762543 -1.12842658136076 1.4189206151561176 -0.4793353903442196
Ni 4.076779056106613 6.916915552739669 1.6178769220132627 0.1266283733552271 0.3089242154760873 -0.32040881907691915
Ni 5.557186186055122 7.732760390859601 8.082094319769695 -0.8898737165193836 0.05215585606794889 -0.9444926894158443
Ni 5.1311102223456535 2.7040390475808223 5.062093368922474 0.41095947287298257 0.39807696048335955 -0.6651868110268221
Ni 0.788831064421816 7.373063963922691 6.921538751685198 0.04251910430913322 -0.3275204904210359 0.6050456227605515
Ni 5.361422041790584 4.466999062342362 7.5680693044571 -1.248939071626236 -1.3661019286931892 -1.894590897943924
Ni 8.068853600697555 7.432053961397068 8.719262082639615 0.43280613643442883 -0.4428540075887341 0.7826389171994199
Ni 4.817212698311764 0.3020643362566428 10.4592504648576 -0.6563841251335277 -0.8508657106873023 0.2919564772734972
Ni 8.192978011106703 7.191799196522839 4.806076960336408 0.15307705446505895 0.2867592493432739 -0.19897998764476052
Ni 7.312729593608963 5.948849814131787 6.829350865451686 -0.7929801512244279 0.37572970313641096 0.41920088694616836
Ni 2.412228937712927 5.189080661894885 2.4878052478757633 -0.31159610588129566 0.47259627184817316 1.1388871145724515
Ni 2.372592495543313 5.126427473999186 11.350518228319771 -0.7860453717778075 0.3039231627170701 0.823166187889505
Ni 1.0157323272675842 3.332871698846761 3.886456463918671 -0.10791768431960125 0.44761209109900973 -0.8823357562711255
Ni 3.5859025170130856 2.8396131837157244 2.5366393656993056 0.873718961136392 -0.4232442037776066 0.5627067527830244
Ni 1.0999496164119458 3.450941920160572 8.198157906724633 -0.5775954969693988 -0.38932543954297466 0.2939979331835582
Ni 3.6660145065473455 2.718042179437695 7.1698958441415614 -0.1587800183871072 -0.3878280290618417 0.08399665472762953
Ni 4.275475557235509 6.535402390731936 6.111986300264352 -0.04788859615116269 0.7940574434490066 0.12412720419992818
Ni 0.5394760683679207 7.396658158385141 11.158100579935201 0.4776860276662548 -0.4584760303967072 0.2760215512107956
P 0.04068306800427744 5.567805829222351 8.032613278908693 1.0107276492846786 -0.5132323002019805 0.14477290547473776
P 8.447380270021895 1.6193918226825728 7.996998225829676 -0.40956747762146234 0.9047796870969386 -0.4751390928746849
P 1.7421899055253796 3.1249360179360095 10.34585396925375 -0.5418530492624668 0.6080317019720689 -0.03109852117701741
P 4.006628057274664 6.071196765149307 3.944191412655103 -0.48555360333978964 0.8082692161730144 -0.9069126742795414
P 6.6871721593946 3.9595208720783157 10.451036256582794 0.28245316576875223 0.26347688177656564 -0.21187175600576413
P 6.5318023587661544 7.697590153760316 10.298010536918536 -1.2073867021057465 -0.5930342001219723 -0.36772637321596024
P 2.5039711057030565 8.305174496055292 5.915857641484982 -0.4197858129153609 0.876940039176851 -1.7130661296611336
P 6.7781203353722255 3.837002490967186 1.6922369807751285 1.109823878657908 0.676865275806015 -1.270454577100509
Ni 5.3496114106046 2.9452682571976694 0.3223499299124461 -0.5720041189245504 0.1998042833182688 0.9256475316848832
Ni 1.4169599500403085 1.110334671030026 6.855616662583479 -0.10498816937763208 0.4219280560693443 0.03308315570721399
Ni 6.756357736120437 0.5094667793499064 9.045346481801777 1.0184309314662072 1.0870660161361019 -0.09427026873949572
Ni 2.8256190744953575 1.5782395775799978 9.333782125616535 0.09882626354129433 -0.46941838834082383 -0.6641516848940885
Ni 6.3054785446567525 1.9367811070441754 2.666225177985363 0.40122990429004446 -0.10728802115540233 -0.48249630457070447
Ni 4.078628696590284 6.630004734494378 10.28324679680423 0.3560232258464191 1.480399034176573 1.100798535230846
Ni 8.081304839075445 7.133946051248183 0.39199475883642415 0.4599906672690207 0.33247680598504675 -0.13571028105183722
Ni 7.534334568825876 3.7994953910129214 8.258005956930706 0.9123826962551771 -0.06412125595994118 -0.07177105919571511
Ni 3.152040017999183 8.424562022298938 12.248706353981827 0.76028908874931 -0.9398379642526523 0.6014195959721901
Ni 0.04058472126636513 5.047217748115498 10.269117348036279 -0.5810248343659219 -1.0625634030090474 -0.43613777191082304
Ni 8.30789933228002 2.260594508597849 5.663605476849101 1.3657064930269835 0.2165773890115496 -0.22164040535675378
Ni 3.518386128040806 2.722382067596945 11.549790373657732 0.21955395514137027 0.1183162539451059 -0.5543923193800582
Ni 1.1307528974424632 3.251225861106529 12.535874317367531 -0.3736779628137048 1.1011294362077035 -0.35858070216095017
Ni 2.933791463562397 8.465660131582478 7.971484916582461 0.38272181818352796 -0.6993128061762538 0.9238726991726477
Ni 5.684306111784168 7.725235512013834 3.688175004069037 -1.4305728546830652 0.7691419111542497 -0.7717914329619546
Ni 3.0860845451423926 8.316073840954198 3.498596779392817 0.7227373557477811 -0.08045496012295822 0.205209256383924
Ni 3.449191528678463 4.305926955442304 9.404312075181723 0.4659911078268297 -0.9297391852557536 -0.6292337899709809
Ni 7.056053630294329 6.026038469438195 11.624480660915708 0.5924605870066894 0.19527554220997984 -1.5829012039075578
Ni 0.460195063655837 9.106547025220054 0.31896283216819993 0.05665862903430887 0.1356773709313728 -0.0624757499367182
Ni 4.742604517045991 0.4346510774445019 1.573295172774865 -1.0028706151341051 -0.3624394137854081 -0.5850815209337988
Ni 6.111744493605999 5.5722720342926815 0.4884124570638159 -0.8592233386233783 0.316431579596726 0.27689392651341993
Ni 7.907330361972211 8.996985150131135 11.197532208256137 0.5871312043739758 0.7582360628750232 0.6410477518867734
Ni 0.11365544527156392 4.795251601056848 5.692366935238375 -0.4892181966755703 -0.4387811230709411 0.2503010065162399
Ni 7.874379693453333 8.81844521895601 2.2974600990965577 1.3780752990049816 -0.06372402052152251 2.2853610403532256
P 8.70154794038794 1.4760131059702257 3.539230222896313 -1.175484454080511 0.4739484150006934 0.5721061917200534
P 1.770791663248502 3.3152685350241073 1.4930451369020674 -0.964480445391681 -0.2442794829125083 0.9562876251682434
P 4.642426183923015 0.7440426968074374 8.255087134021105 0.8209843497468376 1.9817456386845613 -0.8623575133769859
P 8.638642118670083 1.7606231519065592 12.320558119795104 -1.4224908490058792 -0.7493698707336449 0.5041269954666028
P 6.257405937354293 7.789648114028147 1.429895703998555 -0.6211859799658399 -0.9580375179798145 0.16800487941948486
P 1.7500666671948704 3.2149458397170414 5.980564381449382 -0.4413180305601819 -0.7696396767262745 0.5393212839795486
P 6.8272395685093485 3.9318574685517884 5.84623807594322 -0.13421904121829142 0.03516574926785557 1.103857119551512
P 2.323879281048947 8.239210000561995 10.146067533634962 0.3934734002730772 0.15068952806948885 0.5127306779752138
