# total energy = -340888.02202547254 ev
CRYSTAL
PRIMVEC
9.09326397245976 0.00000000000000 0.00000000000000

0.00000000000000 9.09326397245976 0.00000000000000

0.00000000000000 0.00000000000000 13.30891098490243

PRIMCOORD
 96 1
Ni 6.1884478710948265 2.0051919451484372 11.545585940080725 0.06349390678858742 0.1985922652880386 -0.6455332984619528
Ni 4.351108480049507 0.06088485623559447 5.9938011062587195 0.5220092750636623 0.5248426307473993 -0.051851437453652637
Ni 2.7336078315144534 1.7597829451953007 4.7697805259900115 0.5767442047126969 0.11166686694938832 0.512439114876724
Ni 3.346602922104377 4.47276725470391 4.957196327554935 0.988516146184646 -1.5414192826136872 -0.6898544889768312
Ni 5.0331487216933875 4.44928844790537 2.408527292581421 -0.4905554274297552 0.47092839722744706 0.29765327054795837
Ni 6.984817716874278 6.0082830379811645 2.7068327166351733 1.4843053112095146 -0.43856900706013496 0.2534740049275829
Ni 4.954910281068043 4.818756844122055 11.53308906781766 -0.3526815630676958 -1.7379343536577232 -0.06859857500500444
Ni 5.793345564589572 7.8220072232728795 12.326273543333158 -1.3200850956434427 0.241903526481164 -0.0460289172346046
Ni 1.8093594187296307 6.584604996185917 0.4771644645042568 -0.0735741738427249 0.288840814462651 -0.08088279168899619
Ni 2.652050349649192 1.7808429438573528 0.32330553386445127 -0.46396662119763327 -0.7724115830444569 -0.22895673651250892
Ni 0.5300326994874915 0.45630633629570094 4.89975509027155 -0.025441065780923925 -0.763448203203582 -0.36727900126589647
Ni 8.442595189028093 2.2624130946102126 1.2456034415918427 0.2820155640107014 0.5621292830129997 0.321670202287846
Ni 6.745646695799451 0.8272314733524816 4.825850499111808 0.3925807132554787 0.0342964592890248 1.480983188814817
Ni 1.141795652849994 7.782769790532483 3.027830380179923 0.08687500471668909 0.05730577570000454 -0.7479881598947699
Ni 7.5616670843719485 3.8891161259803257 4.1468037598684235 1.4394853266813468 -0.258251114601252 -1.2783622619833597
Ni 7.44274538208252 3.8533795997532683 12.884781798006408 -0.025816703952787793 -0.08502072511676971 -0.18865983666567507
Ni 8.306705456728565 8.909707050544052 6.754365317007213 -0.7782893819814726 0.34603731827830086 0.9466817266473633
Ni 6.637218619786364 0.66111755126326 0.37708491386752085 0.8913446446379552 -0.10119784909726441 -0.27296450955202667
Ni 1.9707921286810182 6.153702510607909 9.184319066776627 -0.8887635141743402 0.9295499520630829 0.16572302536384362
Ni -0.0038082588254177313 5.021454784612472 1.4637135546782494 0.014649117371742513 -0.45603939593075654 0.6501481715261447
Ni 6.279771518142749 2.039628134670541 6.98386383351519 1.0286312690379766 -0.02137872278609221 -0.16772128674079503
Ni 3.3250155141494067 4.186474941285925 0.20391007253776228 -0.87767794578414 -1.0335860419400908 0.6911189575115517
Ni 6.21981053749613 5.821152764895512 5.042799402427427 -0.8007140295335758 -0.5458729690551373 -0.24015183389737996
Ni 5.392405382807532 2.8118280856124556 9.13767153347073 -0.3020542278291314 -0.01775758109373716 0.5501682539963815
P 9.139457450455716 5.633613294944664 12.588379594038996 -0.994380575385223 -0.10396101366469837 0.10525042190008325
P 3.928271719347682 6.041327958161604 12.963796803349256 0.42471178946206856 2.0531132917942707 -0.429025586346074
P 2.1940226585405687 8.759077137833822 1.236304670161871 0.5374672614899453 -0.7190591355652455 0.717084785447694
P 6.394455759561491 7.908538720366182 6.1046243479227495 -0.5363475460632053 0.12856441403567537 -1.0302114690409032
P 4.723141176621416 0.8241879580017957 12.756976886436771 -0.7047409191703605 0.6754614534799528 -0.17902951266476264
P 3.9625169503326942 6.064406661358619 8.339017459857121 1.1436385132145077 -0.040504644982265726 0.3362146757609242
P 4.683203562578354 1.530550861312885 3.940449418055894 0.0036319403256324548 -1.1966852565278423 0.19335929902387344
P 0.18213898065663728 5.908493562455534 3.7093532151209225 -0.15211571899305415 -1.1547585343870692 -0.8592068835631461
Ni 1.5674149522351475 1.1701393557125226 2.8412929878856192 0.0779710173588399 -0.08485128941844096 -2.047937661130602
Ni 2.2030522693658785 6.401257520787404 4.641549140354205 -0.6789684381919469 0.5006930300843894 0.5834889796356983
Ni 6.144882044847032 5.733129972560164 9.267872520017676 -1.1685355335665035 -0.09043238305064426 -0.2932816238428239
Ni 8.642083207442646 2.3493446953050396 10.106241422714408 -0.2473149273047225 -0.338351776708585 1.6124604056219132
Ni 2.4560541444843067 5.124226850622193 6.983811092585897 -0.7190923027960261 -0.16104824559599362 1.1711356901935122
Ni 0.9710150678448115 8.948926296757106 8.865344654398678 -0.28305300413628026 -1.1469156413038828 0.47223914561907054
Ni 1.649909040258523 0.9908929422296328 11.32620186075401 -0.018817646927135334 0.236186935712361 -0.7324661529997708
Ni 4.204052219961982 7.307755882886421 1.3415519225428403 0.24145486897951962 0.13953428278361776 1.1298237188186024
Ni 5.5693239207906435 7.837383932140552 8.122055825972362 0.230834413151196 0.27252870756618874 0.429419479350383
Ni 5.455494446156978 3.2857871746726826 4.955852343184359 -1.0683841234558826 -0.4167699089071725 -0.41136879249625924
Ni 0.9273583089603069 7.1461140278706 6.703112954978316 -0.6569237996870816 0.2735908302821159 1.2508596856877165
Ni 5.028474784166489 4.454380675561134 7.201251941466118 0.02958748384912969 0.5386479120616078 0.1638188663625953
Ni 8.29411128654422 7.155107265641226 9.191879206192702 0.8127689038155809 0.38427733559610594 0.2637944130169844
Ni 4.5194611636545305 0.2953864864153585 10.614175672828617 -0.00643624254364698 -0.03400823862464466 -1.1358580979381405
Ni 8.174089299350598 7.433497532929105 4.875932558106246 0.6968396620454127 -0.26508536391426607 -0.6671771019839736
Ni 7.390331810282834 6.162495696577773 7.163814065606215 -0.24113965173194596 -0.028623063053331354 -0.3951531019683453
Ni 2.4869985207567433 5.228481118610289 2.582114968081844 -0.6187938255845794 0.4325929919823582 -1.0619941607691388
Ni 2.668263638774597 5.325033392269041 11.328358782896773 -2.518090099423973 -1.4301617352875755 0.8132769538002509
Ni 1.1281102910251284 3.5175471858556375 3.8024354993628187 -0.8082648452976403 0.2561500090978492 0.023562103590656195
Ni 3.3677356668757974 2.9779074532997276 2.617556872565961 0.37121767419867036 -1.558695810305948 0.48805785781888206
Ni 1.1168164575457376 3.1922538645527045 8.5037146514664 -0.9307079769269262 0.97894315778423 -2.418066730250784
Ni 3.655419249635446 2.5456500714347388 7.2049383505583435 0.8481526826315134 0.6498666357299839 -1.151187014985727
Ni 4.1889755887954525 6.566027458506051 6.189681826974983 0.324161601251132 1.2328498793738576 -0.3049744867997199
Ni 0.7765474403030229 7.263671740609378 11.438023542769118 -0.9960908732081103 -0.2182048973126436 0.05758576883426857
P 0.15907937331333066 5.460641233394768 8.009887690611391 0.9333901517447796 -0.2060898592166644 0.9679853732211458
P 8.694114862168147 1.3207874549500955 8.1826105967367 -0.6512671156219364 1.517455572709238 -0.20825627074036393
P 1.7983565696877124 3.1780229069075787 10.510791630173838 -0.35510611334878844 0.2156433072330544 1.1028001390419073
P 4.290019934707682 6.053185573988597 3.5519751914404374 0.17059063786879006 1.7184839582425953 1.2056056989459236
P 6.639082738838921 3.910085192005668 10.500769944282021 1.371380403483309 0.26728494266874614 0.2004887109798031
P 6.595435073218087 7.787780178815209 10.313234111636639 -0.765393756965727 0.0996868117693767 0.05280094585111551
P 2.250546385519548 8.34594288946896 5.65454325993622 1.586948377393738 1.0964351160558279 -0.5319764135787031
P 6.946571449874022 3.9850864307641336 1.8464253801053894 1.0609065841319147 -0.6135032666096015 -1.33469204692334
Ni 5.207748477440393 2.7210591276484632 0.5615817777940503 0.33032839218347626 0.43766732118147206 0.2674734045304684
Ni 1.8768132486411606 1.1153251623036926 6.919435332427003 -1.7191267340329164 -1.0920135899493646 -0.32573280239299385
Ni 6.7060091594575315 0.8044182934546593 9.308757652135256 0.8906478756812468 -0.9741791607366835 -0.24422266153264394
Ni 2.6507772927352504 1.5623863774250806 9.062023763665255 1.6683160791389524 -1.045758929857199 1.8919110371189158
Ni 6.291447268696324 1.273120566786677 2.6263536958412925 0.5731222916893935 1.6648908555074877 -0.6523377229782958
Ni 4.0834846369481 6.903651245346869 10.507997270247738 1.8714604825740477 0.36063167115270794 -1.2523912918408946
Ni 7.951286152883586 7.587046383277729 13.19384182500386 1.4786329434150856 -1.0411936790840197 -0.32571171934707127
Ni 7.65269065371873 3.8678197024628274 8.52262682124936 -0.1984266862444518 -0.24882545041197796 -1.6154894222562244
Ni 3.2773213461949746 8.268986599021227 12.425385570715298 -0.8717487247838986 -0.08248947405448374 1.5211849578446832
Ni 0.0454581344177311 4.805535238744412 10.18906195890357 0.4616672836404952 0.43171855979720486 1.4460696647670837
Ni 8.831777780883522 2.546404812319432 5.888168299498099 -0.8294923872178488 -0.2730529555007749 0.8635034540559708
Ni 3.593412284662849 2.4721765009730023 11.454354134995878 0.853110540857421 0.7239992531793402 0.07024973745518225
Ni 0.8355199831886045 3.6159999516216303 12.728987820857412 0.7851840522187767 -0.6127674168848415 -0.8402216007098949
Ni 3.15284365980256 8.191393780116526 8.058478454363783 -0.24843695672430766 0.36792100572526965 0.1658209843942886
Ni 6.006273426709872 7.814305228943536 3.7489070934370687 -1.295252352870479 1.09418025858338 -0.3270564063004238
Ni 3.5520288416960963 8.247262792111192 3.6560639620297204 -0.260974427069686 0.34094293447452895 0.3599757827362639
Ni 3.449020350830929 4.00410953836388 9.239964384484988 -0.4983985776232578 1.178849256787686 0.3184907761185999
Ni 7.004268207866562 5.843585846371886 11.504927230228551 2.2757083477548092 0.8413775686912089 0.23049194221011274
Ni 0.5288423912729566 0.296881418962872 13.239518197749694 -0.052089264496071576 -0.5085135545700725 1.0436228573508026
Ni 4.267568666703966 0.6599008725840793 1.7243028490037655 -0.7815256295305831 -0.3755312139723597 -0.14132017103944694
Ni 5.995425163150361 5.753898986784744 0.48511288627908405 0.23692638498154678 -0.06376284417925794 -0.2986644854212921
Ni 8.361474183819041 9.15709838197747 11.13018837838815 -0.7375613081344912 -1.1377434878863115 -0.9712103079163468
Ni 0.29949846024738785 5.005659785615933 5.801633165099328 -0.6124334305841904 -0.4542676487423144 -0.4974886642144787
Ni 8.111564018348755 8.983026035523382 2.816364714857921 0.8329014128993979 -1.7165872554405146 -0.3541905435130545
P 8.649721548926292 1.7896997826729135 3.4122981148219345 -1.0186211931001423 1.6096707586919181 1.936555415301168
P 1.5723798741995172 3.260717046731716 1.5173756315799631 -0.29364209250603623 0.7325795386491836 0.023668290151217304
P 4.816838165487473 0.9207020399531297 8.159706484202166 -1.1551555127151718 -0.8776761460119272 0.352128004557071
P 8.185419505884674 1.7559092148714515 12.315040634720363 0.7534227006467799 0.8414156210179962 1.121807019161713
P 6.69986211321593 7.898308798736299 1.5425694279068551 -1.3854515368643945 -0.615365773739637 0.25510999786910904
P 1.802975947632584 3.2446856228797305 6.14645427013575 -0.05666299990968306 -0.10270065889503603 -0.5915856406009038
P 6.949399454875706 4.139662819907581 6.320188347181275 1.3593712948375751 -0.5582736567123353 -0.2962306791688189
P 2.358028762110851 8.138680130615699 10.470904938407333 0.5274795541496142 1.301370549953075 -2.0786862551673684
