# total energy = -340889.4201281439 ev
CRYSTAL
PRIMVEC
9.06204375907192 0.00000000000000 0.00000000000000

0.00000000000000 9.06204375907192 0.00000000000000

0.00000000000000 0.00000000000000 13.26321704682285

PRIMCOORD
 96 1
Ni 6.53425011863698 1.9951629980292103 11.36883145737661 0.14510483489285977 0.764551977790722 0.3260338785731804
Ni 4.632679909007693 0.3935437196742161 5.69473513106925 -0.7133371454798036 0.18903007552090026 0.7978927580346968
Ni 2.7466057942819555 1.5061207421432492 4.618278508995575 0.6340679781348306 -0.24548430185388692 -0.03451346039583733
Ni 3.573725718335606 4.554565091423714 4.628451559369099 -0.06988309814438286 -1.0124592872638047 1.0159323334140695
Ni 3.901454532479989 2.7181419146959604 2.174000620077505 -0.6044516979302945 0.59134215713153 0.8126627172550197
Ni 5.03658426336216 4.869552671980734 2.4412276049738977 1.3139522432728274 -0.6055660140403958 -0.41067279487049924
Ni 5.192125183201071 5.122157142996209 11.275193358757672 1.1074476651162475 -2.1562314978426995 -0.2948952481868469
Ni 5.619309928086076 7.82237433504935 11.971180977956454 1.3964669141382917 1.465747088591353 2.486674818337485
Ni 1.9519823593067442 6.54130945075971 0.156397282978317 0.9782649007702828 0.34239406509875875 1.192158315191766
Ni 2.7307109694510627 1.7510406000135725 0.1982847680500599 1.3897074839272712 -0.8431099780012835 -1.040052623501041
Ni 8.130293521439839 8.88619484324378 6.8533428050368705 -0.17550710133380096 0.20514009370888542 -0.8767515773151288
Ni 8.609811569288588 2.520127195551237 1.2407451327958594 0.7910734211200182 -0.626271107798231 0.6025925332343687
Ni 6.846954064155582 0.6607027392420848 4.680974259048331 1.0906241658010056 0.8826468597536411 -0.7569065454303223
Ni 1.0444096103678777 7.3576274185998916 2.34912824139275 -0.44722976805892656 -0.14181279440514932 -0.21083534432144976
Ni 7.63064867430408 3.8870186967014186 3.5504036424035728 0.8933261938443583 0.002289824475441218 0.5814182131495986
Ni 7.682148269237926 3.9800133902103263 12.493924068542304 0.061339579449745975 -0.8473533266586697 -0.21190749433970602
Ni 8.38384044501085 7.543526185179675 8.79322099243562 0.44835488280230523 -0.8872509341845558 0.7682014016178512
Ni 6.860066841538879 0.7779121199976458 0.371372523305195 0.5253902757207533 -0.3208726460872151 -0.7758422059925606
Ni 1.9030563848130202 6.627190439883069 9.114973388691762 1.0381307238879798 -0.36459142713140436 0.9190392823397463
Ni 0.39619799230418673 5.044649482347049 1.1146141699160028 -0.6429894489941764 -1.0775709321614733 2.027713106553611
Ni 6.655609009250049 2.0045059651903565 6.839164331302313 -0.7590559876731572 -0.1880872519916567 0.13862385515420642
Ni 3.5632228095676446 4.34258576277819 0.22099968704727574 -0.10982210043116569 0.8105559553246622 -0.2772312552481806
Ni 6.07773153796087 5.883396008600264 4.853846337660948 -0.6858710788490511 -1.024616491451629 -1.2205774897644075
Ni 5.458404278315644 3.069151119370882 8.951531272860802 -0.764174282736329 -0.8042536672557181 0.6419036721291655
P 0.2840968856405154 5.61502358136714 12.386770837795206 0.25064502011921996 1.2158142640478093 -1.5442796348806178
P 4.132790386689247 6.317785078308849 12.543740841941888 -1.146902271567444 -0.041221468543632234 1.231779272017498
P 2.579972932827872 8.646866266400059 1.052060693950958 -0.03492432268101082 -0.07687187075739019 1.6528280108056825
P 6.247726417665957 7.968789776778392 5.710504899695659 1.5325489767072509 -0.8453550652817182 0.6878474858491315
P 4.614247711911891 0.8855275149787105 12.218858415756104 0.048655556224174265 1.028649266760106 4.138254558558364
P 3.9350294047710146 6.26886816585893 8.247147670078313 0.7392842043628687 1.3193443608226763 -0.26226897751139344
P 4.741732544135953 1.2485412090797918 3.544024869770468 -1.5530144436504545 -1.6476840047108978 1.382447202820432
P 0.4126202280844287 5.519210592235423 3.3513368199732927 -0.16211422496666275 0.14674417026849568 1.2145837340748178
Ni 0.7650168316656272 8.813036963620178 4.440485740597794 -1.4954183904035407 0.5605740227107378 -0.30225014589002136
Ni 1.9947642681018676 6.469311512742922 4.878157988776296 0.11103231868918295 0.3800661257282358 -1.688083748684183
Ni 6.296371468801779 5.857804796899897 9.126473122278082 -0.011474062077870563 0.0354673396686744 0.8606461871128339
Ni 8.539254496236516 2.2869789325813303 10.125272559979841 0.6284192644894855 1.135653181016186 -0.17792625229825487
Ni 2.749949688445353 5.165972124784903 6.694356496143966 -1.2791181663127777 -0.41494519699360793 1.8104163228775336
Ni 0.8012704441048921 0.47196845915626556 9.147601277405348 -0.9798826388793641 -0.8623387443239084 -0.4579219576654501
Ni 1.5693194356270852 1.4493923479349309 11.4441270731334 -0.25551674638922445 -0.46989995596293266 -0.9447983935817212
Ni 4.2814169671062805 7.1065544329871635 1.2882220864854441 0.27192706942644784 -0.09594328556654443 0.38252487168137345
Ni 5.659545402572487 7.877308444584626 7.967413252324679 -0.5947408984004339 1.0710655269427876 0.13151938289894122
Ni 5.273330157721956 3.1498214333073755 4.483378206327317 0.7510488010979647 -0.5834591548390274 0.9701728677907678
Ni 1.1901272747240694 7.402538907688776 7.036030889497164 -0.9037669295617079 1.082471197676568 -0.9930019498701413
Ni 5.2376166430933635 4.860255015038604 7.213453020303392 -7.764731547083401e-05 -0.9451773741876948 -0.9025865361003617
Ni 0.9665304059227835 7.5464713494157305 11.369534671975742 -2.228679014280149 -1.0424067255555145 -0.9186096510014954
Ni 4.933186343567125 0.7816484006577241 10.292959337128243 -0.25823260265849074 -1.8776257308444952 -3.531020927007557
Ni 8.054643579770342 7.150088491417957 4.4055633423932266 1.0095878792532806 1.0885186894222285 1.753366114831761
Ni 7.258778644794086 6.2333902643692225 6.875717897391465 1.3571804578338431 -0.045191508934973784 0.04751347219993107
Ni 2.6348707941879352 5.116955529853147 2.641714449668146 -1.523643446687505 0.7596591684747949 -2.038747509990902
Ni 2.509542728389046 5.533447063050322 11.287674511687882 -0.4727813912757858 -1.3036804290331743 -0.49269921324563537
Ni 1.4708693917486233 3.252449079379134 3.705888377570903 -1.6113854273901795 1.0378401892307545 -0.1568491199129815
Ni 1.7146111839245244 1.280013687208464 2.3026009898937456 -0.9839645222582214 -0.5744731492903332 0.6001332730605987
Ni 1.0902726140561043 3.4241204371878218 8.339194473805401 0.5542611931188325 -0.12568195028155776 -2.0632807192455753
Ni 3.95690517851205 2.7634068234931735 6.84993457036247 -0.26076488216204124 -0.10718029193294445 -0.15641151815493062
Ni 4.278036824767669 6.981353235801521 6.073572059855179 -0.7892088571074538 0.3416759559858116 -0.03127669862609452
Ni 0.7374510006205338 0.12710060156680378 0.09140068000391711 0.4210441108024942 1.467438617361163 0.3467487425230286
P 0.3765541999518909 5.720179537660004 7.922663067615491 -1.9925571274777683 -2.0049673282166633 -0.407807300397246
P 8.662815463493773 1.8610809979163858 7.804501266056208 -1.0458867136843149 -0.5123480978248145 0.00276702122217588
P 1.8757705709214474 3.4290954992358036 10.421148290155816 1.058636042930183 -0.13363180125625373 -0.3260626749285868
P 4.164199430511297 6.3431678630017405 3.7287682257653376 -0.4677358584320784 1.3504058581141711 -0.5704095207439209
P 6.897937122592643 4.008522580015338 10.307907178381697 0.4949391583197476 0.1705459006737837 0.5925721728838891
P 6.663112381519135 7.830684229216926 10.094568543165686 -0.10098007665950351 -0.009124073788455254 -0.08796181002296463
P 2.4230545823308685 8.447981591050224 5.647915175555401 1.728908496010029 1.4497774526359741 0.5321890438101415
P 6.947243702926103 3.8695561382925643 1.3904754701481286 -0.6834195319847649 1.7161766502656572 0.32346560362537197
Ni 5.426859303836546 2.854462239628187 0.20457745126703378 0.12561304471683526 -0.2675988743647391 0.10159894119042502
Ni 1.383067249338975 1.2308067893568397 6.734689840703453 0.3193104438064178 0.2664814729308443 0.03587177419594467
Ni 7.111466060728524 0.6498001943423998 9.115942121174328 -0.38664017940132767 0.2825356981802295 -0.632545113732401
Ni 2.7868775169435795 1.7546291693596578 9.312224177543872 1.2371364225643533 0.09579056203876406 -0.7674370126480009
Ni 6.33294587759168 2.1165309506860805 2.630931523746664 2.254320368997337 -0.39842174541728803 -1.922999016772972
Ni 4.28457055834981 7.053061188416605 10.366000316386783 -1.5701991829598572 0.7098440447248807 -2.675971517256211
Ni 8.442299689585589 7.527123885895801 0.26039964109502767 -0.8699386681583534 -2.1693726632103476 -0.45393237689008276
Ni 7.539846995395557 3.971513193122882 8.203300064931927 1.200975142152448 -0.014585354013342622 -1.343351522370551
Ni 2.8590385717488256 8.322291043499206 12.148961059492908 2.9785389372763347 1.2045258356181834 0.7780901214864729
Ni 0.07862954167200285 4.715697292289228 9.92938832733326 -0.22113312670303203 1.5094082769247292 1.6935514566669736
Ni 8.625153609447482 2.5636975021572432 5.42977546953243 0.4325863071141388 -0.3320530881840668 0.6289589390430393
Ni 4.023139656669973 2.839509867352831 11.46074595526417 -0.9544030065510208 0.5285722729931607 -0.7528801978797486
Ni 1.134613194385386 3.6139430687344105 12.444637424705213 -0.07619335663312685 -0.11338642074365633 0.46235608217740365
Ni 3.041131279931246 8.76616807306979 7.870525504797897 0.9282769988879304 -0.3205443162135189 0.07532355243366382
Ni 5.410248577545196 8.130202901001805 3.3747721714528667 0.9290269896800775 -0.1621623045957788 0.1736512790719848
Ni 2.903025732369781 8.326586452261944 3.433714422962318 1.4858466875547054 -0.01851811340884553 -0.4864408910407493
Ni 3.389893097742963 4.420773076712594 9.072080016757859 0.06267501043171786 -0.9061480281993748 0.7064147073283575
Ni 7.613122681588603 6.192003910319798 11.376670125266417 -0.637658009478934 0.7128887450884754 -0.994358463898036
Ni 8.082844660086042 8.742217091297812 2.327614949403845 0.8746000781897648 0.9733312109140914 1.2871973437764863
Ni 4.69750070833231 0.5303117095703225 1.3724510650234725 -0.41426256910428655 -0.6573853127045324 -0.38411587031757716
Ni 6.4938968375811275 5.8142073041624815 0.2760525093563741 -1.1195907282366846 0.15056431534553424 0.3645729151886431
Ni 8.288299317193232 0.07356295298160814 11.344798917210401 -0.9545390179082528 -1.446497753443438 -1.1812658366489786
Ni 0.2889532349146748 5.03343067211863 5.621561845971182 -0.656390810001747 -0.611572882356108 0.41424097183773173
Ni 7.35835238210415 6.062362311670564 2.644646020838496 -0.35743630414386185 0.06045254885910235 -2.197246249692164
P 8.73372595625417 1.4545395888151744 3.516649341645243 -0.16929017388981168 0.9660956123976007 -0.49328208233229887
P 1.916586016211266 3.3411483641253037 1.3284965277602094 -0.44673894446543705 0.2524977570572426 0.9416475066575654
P 4.755543098892099 1.1356372053351529 8.067444622846807 0.6890754447189616 -0.0024332920318409705 -0.5725224533218656
P 8.563558897716822 1.8028483044367287 12.383455035967598 0.29314201294116615 1.0433639472624612 0.9391581645768085
P 6.550235563905907 7.839320356961419 1.2619430656604118 -1.980327932401428 -0.6613324702777384 -0.12871610912219125
P 2.060862815602742 3.248733641419803 5.860312264420256 -0.8232129819670403 -0.1413299412314598 0.16457965578801978
P 6.851657264889466 3.988015174888593 5.813427062191023 0.6740648302427423 0.48025070306963735 -0.06606141040544752
P 2.450721002062178 8.523368733449425 10.079753007751759 0.18990913569174392 1.2398918738223033 -0.5222699849242166
