# total energy = -340892.6440258275 ev
CRYSTAL
PRIMVEC
9.06012424190427 0.00000000000000 0.00000000000000
0.00000000000000 9.06012424190427 0.00000000000000
0.00000000000000 0.00000000000000 13.26040763942327
PRIMCOORD
 96 1
Ni 6.2659726625437475 2.430523211123731 11.679620506734752 0.7320177526084425 -0.49090792567316743 0.20477139751555704
Ni 4.6029869118270685 0.3350932142911019 5.968350308878165 -0.4799377998149089 -0.07733055556136359 -0.5593576338051335
Ni 2.5670411587772253 1.600036009523656 4.926838324323078 0.527995317443768 -0.6033258118559675 -0.26980668064933533
Ni 3.5398176069858835 4.397168076092768 4.907172419280824 -0.06887059771946848 -0.30053367741954695 0.4996085387709589
Ni 5.167813159014098 4.43766683014182 2.629114785984445 0.7353280479285981 1.8134152576048574 0.20973285528589036
Ni 7.394103056094488 6.04143561073219 2.547165058859371 -0.06137788888684913 -0.6374862597877602 -0.22110175924446437
Ni 4.8215171014608815 4.732492323544553 11.250805746272505 0.7701235583412285 0.5719359846907763 -0.26117625866784694
Ni 5.740539834284074 8.034526977506413 12.569062840879031 -0.8626791583824627 -0.2933196761696109 -1.2410221307720046
Ni 1.8926598928069431 6.500077205244747 0.3468269808165891 -0.5108468306889395 -0.27117964973746195 -0.193650347901731
Ni 2.6624533240771293 1.55460854804671 0.3315407396909602 0.3174199116519243 -1.0329887746757245 0.21980052393453758
Ni 0.5966082559853898 8.889730197237544 4.612340583791329 0.12146559820736501 0.389128235930504 0.39080022431628825
Ni 8.918396429410071 2.1702802108317893 1.4577431388654936 -0.16522243157834127 1.4460102722840582 -0.018912263523470654
Ni 7.015534837037305 0.460700054673618 4.627828865681005 -1.0099318928562606 0.3856053103789101 0.6901563364879663
Ni 1.0174337991499955 7.182902506734876 2.6834021426704666 -1.1491537866057822 0.6479686473763228 -0.8168695562475158
Ni 7.53361990477488 3.7887626327142527 3.8803795120922 0.6268318653977076 0.07987466213945599 -0.8872553050599301
Ni 7.985484526574083 4.008978005402455 12.72721908255833 -1.087387661141579 -0.3998803322406855 0.097729945153322
Ni 7.83644548762399 8.857349314246198 7.0378553583964205 0.21203090729144772 -0.7954170428006947 -1.3206286268517384
Ni 7.224098890327951 0.6804180265570572 0.5424568011585932 -0.9590237931524839 0.7360680114184162 -1.6270457596352559
Ni 1.703837849599717 6.745842127467251 9.34301816450903 0.3074157492513609 -1.1385662408979231 -1.9224099770387213
Ni 0.4480729599268251 4.836149201637441 1.3689249317751868 -0.9418495953660424 -0.3123191000902492 0.5609422046834339
Ni 6.528217950228272 1.7557704800715668 6.8675911670725664 -0.7387013352762052 0.3163014817767649 1.2480625825585536
Ni 3.4902587289884974 4.517758325845092 0.39850139775591126 -1.0366258572076792 -0.6839350381686028 0.21426159639417935
Ni 5.99151432777687 5.38884394285765 4.789049241279632 0.00847204202675315 0.7157794363727091 0.4768912996791013
Ni 5.405025324229375 3.002081130404372 9.438664987019196 -1.1260472824953058 -0.3384890736173977 -0.9293450351411285
P 0.36390531445919844 5.548537687570983 12.225339858527141 -1.0493764720051282 0.5730878389070324 1.4437839540567006
P 3.9317676291147547 6.33295415889378 12.70964969019772 0.6976477597690051 -0.3081302588198822 -1.4263721863381564
P 2.217682779329472 8.384619226993982 1.337510764009129 0.3066287345736913 1.7696738508528493 0.20049565295833857
P 6.158483352020715 7.6283616209026075 5.781524210976758 1.2713102402325849 0.7003175932916843 -0.47418521360184784
P 4.817575947543356 1.0174519193978924 12.682359690852946 -0.46935745319590133 1.0931690437100463 -0.7498812631524246
P 3.9390066681494735 6.143253283663567 8.27237244538568 0.6037042782413086 1.0409149715013364 -0.3076988277094185
P 4.751681666067124 1.0647004657884533 3.786005636996775 -0.08257714867228359 -1.343855972810795 0.233441768867056
P 0.18623447180758182 5.441437962377729 3.77037148711153 -0.1373976960565892 -0.26705200072233365 -0.6698052836354399
Ni 1.5889554779348438 0.9989420861714462 2.6390999485879036 0.5003050506173512 -0.28174791217161155 -0.21312156925246523
Ni 1.9128005483440893 6.483198194329001 4.70066863817603 0.5586287260589089 0.20524165228375618 1.9200509898882416
Ni 6.070808532572689 5.9710837482733785 9.194898728139695 -0.5240736137918587 -0.7034432834048594 0.02307642220348929
Ni 8.450730951444974 2.284646155431607 10.349681288309245 0.04946725349219223 0.8205963702797996 -0.24625743257448554
Ni 2.258507697840664 5.296802143666527 7.109209270563918 -0.1404997320206806 0.25948858655277895 -0.7764248179689079
Ni 0.6470921726379009 9.163318760105382 9.340524818398448 -0.6111180542068765 0.22335635960659597 -0.7591842857209053
Ni 1.4260725695916978 1.2977540341114453 11.228899272577829 0.6902514673049338 -0.5439418134706955 1.9360527646331362
Ni 4.032054141098862 7.124201963673622 1.5824303766672538 0.3985821822545523 -1.2640242480941328 -0.45918051266289955
Ni 5.497773813088468 8.09002023668996 7.794427350788803 0.08879484744722127 -0.13824204633475548 1.6226322039485925
Ni 5.351588713182101 2.757702407145963 5.003748810508089 -0.6042100142331336 0.2359732770396581 -0.36098005563106217
Ni 0.8677523974119669 7.563110608226706 6.925685587841678 -0.3750781855953412 -0.2524494203178104 0.0856969252481879
Ni 5.201163475267915 4.4791803180730865 7.309785918581713 0.04473796633732295 -0.010499871090059336 -0.500680431678899
Ni 8.101798397822792 7.542562247111886 8.924824587351415 0.013475151668299374 -0.8818783570187329 0.8139492972769272
Ni 4.669279838757027 0.22168854884220185 10.521496572853053 -0.5397331747059866 0.7009017479299283 -0.3684287985996235
Ni 7.9916635311068465 7.198286597199147 4.7484725701646235 0.5774543434058442 -0.7941605446857742 -0.07064748711423317
Ni 7.22208754281142 6.216006078968687 7.096784216581173 0.22356898983803433 -0.89363755443719 -0.9141873535640836
Ni 2.3917368205009137 5.122675621503499 2.8131023470528405 0.28817258475103275 -0.6384905326825585 -0.9829540787158362
Ni 2.2699778147592546 5.384259520139794 11.324161945832586 0.2639322241464293 -0.7841813219858753 0.2379648535483902
Ni 0.9523005680854235 3.1367689330203032 3.7289322921966406 0.5392042987857101 1.1195043391704653 -0.2697136067148968
Ni 3.8185160797605815 2.739237874539259 2.8364276361578256 -1.1610860192669938 -1.1436295143534434 0.4629176111078286
Ni 1.0938831250260368 3.3547373949693196 8.485148550299906 -1.601880316113222 0.3387821793777843 -2.480908091057037
Ni 3.6463827848661867 2.5706470881086623 7.037192157323402 -0.2159837212916087 0.8200649232563618 -0.1485531984527764
Ni 4.2863355798328 6.693302468690863 5.99529511750051 -1.630464812619134 0.1419377500187878 0.18933937923120295
Ni 0.31385537774381256 7.4105290608128165 11.130838833047827 0.34259281137312614 -0.47328584171603005 0.509297998144581
P 0.19238267191892114 5.669481282157292 7.911636362283608 -0.1315062702728187 0.4423238461168769 0.4693425407975659
P 8.54390526612964 1.5574081263467452 7.987246720682034 -0.8003990693963183 1.1299854412074475 1.119375784012401
P 1.6965988105649985 3.331634078901068 10.492363744297188 0.796679711563202 0.24996676310527277 0.9687826723114606
P 4.08448507838787 6.216350363678724 3.677734437777001 0.25138395516777345 -0.9227588972831786 0.5346197647388212
P 6.976422281952347 4.124820750205853 10.330493757811466 0.036881960628013896 0.5011180334369498 0.9535252319317579
P 6.3849955108530105 7.818905087660017 10.263926309125873 -0.35598517351963205 0.21097341256121085 0.22752926003736298
P 2.4919689717413314 8.43204897586351 5.74488597574209 -0.22115883773464493 0.7338249810205104 0.45953301090631177
P 7.051258905765586 3.8207629904997678 1.6305133604734565 0.016994220565151374 0.9134299065727688 -1.1645541803212525
Ni 5.084586860424703 2.8773594641316085 0.6733393517162239 0.4429229131534565 -0.9479950461421479 -0.6386548261745646
Ni 1.3575780325422937 1.1060871119844424 7.147067904494427 0.5347606611920597 0.21411761461714734 -1.0480814073427887
Ni 6.755681422075142 0.8257433207007272 9.331666735214164 -0.040176572218885646 -0.298524360299002 -0.7182253268100405
Ni 2.573392305665007 1.7807220614252781 9.22790385367108 2.3382895129211407 -1.3152403659566316 -0.12074877464599848
Ni 6.292002398647311 1.9470931174885326 2.5092004214786674 1.6479408579167105 -0.21094358776453995 0.960132195725314
Ni 3.9403928671135686 6.8839818373074975 10.440581511882879 0.915551580901462 0.3772119441088923 -0.2441018196840635
Ni 8.213500665981801 7.025926799206044 0.3173417134391314 -0.5388304603860591 -0.9882286968512142 -0.012172630806791939
Ni 7.673943104486675 3.7996347814522533 8.173039058440937 0.13833743426203915 0.056394319629328685 0.10063400617399441
Ni 3.1058014293648983 8.377851314404579 12.4437386763637 0.3241366615504676 0.474807163456563 0.13806464021662673
Ni 0.05738229502677249 5.013781991768474 9.991464825677207 -0.8396906679070892 -0.19774380124481428 0.9506080582849629
Ni 8.57522611461903 2.329955835297225 5.579886622444612 1.11198283398244 -1.4076476133454594 0.8889152092608562
Ni 3.8457779927211178 2.7413760637910656 11.624351032612731 -1.6800477657535842 -0.9429857658530146 -0.12365257855635477
Ni 1.2804220169982825 3.4326182204291973 12.734406478886543 0.519335327775925 -0.08419308700915178 -0.361591463962816
Ni 2.9644272552750968 8.51269313912763 8.110688191440898 1.0596786252620847 -0.25513313779756064 -0.15360927281944511
Ni 5.714618819667891 7.827765888881487 3.437601288600781 0.19929263378917292 -0.17764908737746823 0.16644010603552625
Ni 3.371552985017427 8.316342132919338 3.6402472689283742 -1.1241508368035413 0.9193457578365716 0.27118530616441683
Ni 3.1667307629174437 4.349185659662393 9.149574552075759 1.2194608596614611 -0.5031245223440174 0.7397418607255776
Ni 6.918328767195631 6.041399370236396 11.569718485204278 1.3664981356903434 0.20422220988030637 -0.7572965817798893
Ni 0.5299402399239699 8.776342746024145 -0.08365031239017684 1.0905462613752186 1.2528929140676617 0.5409289947863007
Ni 4.873893678006199 0.2898714176277831 1.4399871079515487 -1.065450237638539 0.8387337033104587 0.6125149345544032
Ni 5.7599103792856114 5.205892859968945 0.22257100491476958 0.9414726716425978 0.7783546880017692 0.9508194029648206
Ni 7.776313444978899 9.038424951477598 11.482676968420241 -0.1684694777607292 0.746390733500663 -0.31457550022459374
Ni 0.06476539003226975 4.678068158986911 5.935464776982898 -0.309715343918815 0.5839286382762782 -0.24269311226199491
Ni 7.9965469379149985 8.628291260584422 2.374262559441762 0.8081527451998082 -0.43584620881233327 1.4148796123175245
P 8.501050879854022 1.490861515946233 3.509326665850161 0.6052127444660351 -0.24704110481804553 -0.07419406681491093
P 2.1593990019698404 3.2310214024548207 1.6310297875385116 -1.68143539012973 -0.1714946377402982 -0.02674744329717329
P 4.640242141502617 1.1778704740270918 8.292846513484124 0.6913524136785965 -0.8613545260337682 0.33087629426714626
P 8.807473331910622 1.7465291536442662 12.58903316608595 -0.812969192751845 -0.1899137636774342 -0.7050954742963017
P 6.295798590581664 7.732761429159258 1.2666687488447117 1.580496194010491 -1.4339985925351624 1.6797502891178233
P 1.8518259141718023 3.386583730647713 6.017161726649814 -0.11541887779265285 -0.8492348599520988 -0.37998719286118426
P 7.003774796152367 3.7426466018172335 6.065177665538799 -1.10257748150814 1.4064299388882746 0.03273117168443395
P 2.42101008097798 8.468706237358468 10.336182609638625 -0.12644556792045966 1.359831008082813 0.5313405797669172
