# total energy = -340860.27198478027 ev
CRYSTAL
PRIMVEC
9.35001543033396 0.00000000000000 0.00000000000000

0.00000000000000 9.35001543033396 0.00000000000000

0.00000000000000 0.00000000000000 13.68469269633806

PRIMCOORD
 96 1
Ni 9.007477355314782 4.601469711124901 1.5915567756545812 -1.0544919388548226 -0.9907851447244808 -1.68356323510601
Ni 7.657699816696919 7.60415227987143 13.305120193794856 -0.16602847241940438 0.3219964752790132 -0.9672551799233405
Ni 3.4975882212190252 0.967576968892782 5.571516954023147 -1.3980018627255795 -0.8468326782685094 -0.4244364243134948
Ni 3.7570230918837466 6.345322338721969 3.0391784829233983 -0.7661085236445645 0.7948133477784247 0.06992886378065376
Ni 9.536267462729755 9.243733538396057 3.0365240136192675 -0.24150629104274537 0.8079393436374216 0.7836696724567794
Ni 4.245037783182786 3.1469907027372055 6.01161655762952 -0.4676057606121173 -0.5029172914292177 -0.04029792828809834
Ni 0.1550756114497712 3.8828649459319857 3.8715635826072137 -0.6570585254927329 -1.6972283912979287 0.21103666169897847
Ni 7.838220559405096 5.561099167131064 3.712971430455492 -1.7763044687954894 1.3850877257670726 0.42833575936790097
Ni 9.337355240200429 8.361456757814597 11.430836724708666 -0.8807542707166185 -0.4940161322848459 0.1275449716322255
Ni 8.769781269898752 3.5548944641391276 7.398492151400603 -0.702690464399235 0.12254083354941477 -0.8535322017758719
Ni 3.9239115124875816 5.935585974348544 8.120428326995286 -1.7640482771359554 -0.5756386303533441 -1.254843352925813
Ni 7.877892673732065 4.896789939976496 9.498093220831537 -0.7561254442899236 0.5975130618289323 1.1435804062830628
Ni 1.8399240333735487 7.558991706645113 2.266499775051445 -0.25724375638266017 -1.2883581968538071 -1.7345443541395675
Ni 2.1584790498995536 7.692322922837095 12.231993708757162 -1.9025538615447428 -2.833670643874313 -3.4180957621710357
Ni 5.4936575077767325 7.583413946244934 7.844763700014573 -0.6025513955837881 -4.102258342969413 -0.9999375006477103
Ni 4.378406399435412 8.266039853099368 4.255884735770747 -0.42993421420327244 0.7315161303816756 0.5111623050468294
Ni 4.343783293295235 8.487653912438946 11.683101068746623 0.22287119244006134 -0.5263562391784483 -1.0802207110794944
Ni 4.693380360154857 6.05213391332702 10.215909779746402 1.0516763237828985 1.0484629590519232 1.3095335453798413
Ni 7.9079903725344485 5.427431350393296 12.284994269695751 -1.053799026552856 0.2297373234322753 0.5012252484387756
Ni 6.995101642316764 1.9395577949262668 6.46619465971228 0.2714598999820422 -0.08457335316670597 0.6253475675426973
Ni 3.5954828799518483 2.9828792366361063 11.93045197981762 -0.4420505378508323 -1.5432262539154389 0.24354131919490313
Ni 0.7454187386708512 9.23401887264406 9.403026006683318 0.917681225649955 1.9559608164109734 -1.0981636687111604
Ni 6.165512197166008 4.220587493537483 6.472257209542496 2.060680819728883 0.3336034633903222 0.2118900108382093
Ni 3.1177999554054123 2.5104697206403217 9.141771623068319 0.049252309267908724 -0.365934314312544 0.8675678539333317
P 2.88210477323378 8.704639714273961 -0.019757517036134452 1.553639478828963 2.292730079123787 4.110087094985212
P -0.023859368687145846 1.6496979749285365 8.09407156925871 -0.2600758265148166 -0.39991581346431126 0.7105207590769312
P 6.947444615042533 3.61309830851466 11.303227717795048 -0.13058864355455574 -0.08320552628490187 0.8084898168242528
P 0.04990477091886991 7.436805708524719 8.845881043291918 0.01819826817558156 -2.8413968088739776 -0.1695269724909661
P 0.4418097213792702 5.9629534687239945 2.967690137007504 0.4302882551085815 1.1489581256552084 0.20598572953863237
P 2.3524825144694996 -0.22179731963672658 3.397594484082619 1.6085394733009521 2.2436754876889813 1.9837040479625125
P 9.464459346295365 2.1952246094812145 2.205452591065535 0.025583247785743037 0.4470636747947075 0.3251314213635691
P 5.846059579184573 6.7988167740476015 12.252698382329081 -0.06729476859191637 -0.9566198116966814 0.026305984884380504
Ni 7.5010309626637595 7.178511539709607 10.064680764533755 0.5022873711547027 -0.8371954122890615 -0.6227569239973855
Ni 0.859905934307902 9.890259036714921 13.094772902723957 -1.158269118643489 -2.724555339702185 -0.27335043213653565
Ni 4.5497547772709135 4.354965911427466 2.638244222822283 1.0204122235622943 -0.9545284763852915 -0.3745482812338001
Ni 1.9702632447140978 2.491629440091455 7.197422880373695 -0.580962870779735 -0.01971881858516604 -0.5277613470560911
Ni 6.261499452806041 2.3313514802062545 13.473674787100334 0.7596748522040788 -0.7644254795151867 -0.6497121124299907
Ni 0.5239570845783947 9.561045002905686 6.652388991619986 0.7829705895072259 -1.1096274463763858 -0.34461087024441944
Ni 1.1669099421043434 4.895780138339138 13.082443037731506 -1.2515435991286188 0.5109411901749588 0.4684444544633287
Ni 4.906289555379796 3.6225231237966735 10.050886687167132 0.6439929505580264 1.0838961030485528 0.013314200610402876
Ni 5.6004346809122465 0.07137427573093368 6.827785926020085 -0.49410509245422646 2.6343119327338957 -1.2512975445560837
Ni 6.657538044969 6.264491457657474 1.1493057335597245 0.06713253198243921 -1.5514735815258958 0.9392928903824597
Ni 4.605798768144318 0.4644629381106822 2.167189524023288 -0.7002440597412715 -0.7348935314943408 -0.23080895922989927
Ni 7.093454451792463 8.823207256527153 2.987696364446914 -0.48020802275716007 -2.0466886192148492 0.6117361474068497
Ni 6.657023794135159 3.4959239185204156 3.705062252631033 -0.35442451390073154 0.21624597381405986 0.4944557909254259
Ni 5.373846413507163 4.51258846700702 12.645107298606645 0.944322225276251 0.7879721564868751 0.1960255330021269
Ni 2.0384155052206445 1.071614587586203 1.6271373233472155 0.013168676171474094 -0.609099481114951 0.2860385691271654
Ni 1.8350339754444878 6.862574527428605 7.138250374427511 -0.1562341120368019 0.5653346773241749 0.9490232302963463
Ni 7.881155829023158 6.315327490086353 7.759206386286331 -0.528832982853715 -0.14490506017722785 -1.6004695518086243
Ni 2.2655834735656932 3.855020600783337 1.6408079805137163 -2.6283302612291637 0.532056117776703 0.8062071914376631
Ni 8.336763367775115 1.0672013804303393 10.266995457580073 -0.8533203428753819 -0.15356736383791617 0.6349362396723969
Ni 2.0320948949719924 7.539132274443727 4.910738292593271 -0.18465380083007552 0.13049454117885267 -1.144254292421636
Ni 1.0733069403302948 1.865178424322675 5.124178568679338 -0.04426925423102053 0.033526671002535806 0.2082956086187316
Ni 6.567721799335046 7.659597869774547 5.407437277973595 0.7057053399661588 0.33255753862431114 -0.6838743601339964
Ni 3.2364890478556947 5.324599883655608 11.940687441414068 -0.2403462092963732 1.025560343422137 -1.8105662181918365
Ni 4.07785951210897 2.924507091987681 0.7745907859723227 0.9538646175490476 -1.2378180220124102 -1.005447631832662
P 4.340679088261874 0.8554095120171078 12.97653728600897 0.7259476351549626 2.2319643698996403 0.6985422465588162
P 8.224413585603807 9.108438819020323 5.0975478554985525 0.2184499234439141 -0.13140779702174143 0.0980112238391667
P 0.30628873163664566 7.038261312298686 13.24873866737415 1.3174183474445569 -1.5863680794102357 -1.2421498166185445
P 2.0637914463668605 4.357677415824077 10.33170971751202 0.551342733920457 -1.083401165690005 0.308031785568805
P 8.078927349702878 0.7399209297563432 12.561877203651907 0.12229760719035711 0.7441669863764667 0.20307806897353411
P 8.306235568275339 5.110101185853346 5.9263341343470035 -1.278860541776017 -1.6710172801201995 -0.8421758962227883
P 3.195348981148491 5.077376132790798 6.220431381215576 -0.44862407730329196 -1.0005540511857867 0.02136843837344707
P 6.444310949228597 4.076185859395198 1.0740175414825102 -0.3235900450183782 -0.17713666651742396 0.7823784644491816
Ni 2.106745416015245 5.063379160095189 3.8997267632728425 1.4127479106865024 -0.017344404815718514 0.6082361046733912
Ni 9.001736446006095 6.968267098805476 5.4872602274037625 1.2181537108142633 2.0034164387897757 -0.044340473788588144
Ni -0.02726651421171515 3.168701437940416 9.75672025018637 1.195239010999619 -0.6674527242428634 -2.8543204589141813
Ni 1.1919399326896125 4.75273425639516 6.128648827393321 -1.407008437099564 -0.8588615844085854 -0.38786968093305463
Ni 0.3505722734408859 5.7715399583535705 10.889553127035924 1.1464207039453351 0.5393912179855356 -0.6294837011982578
Ni 3.4647603179897093 0.28799168696861693 7.993885221809993 -0.12598662600617014 0.3692016722099061 -0.5266642573371704
Ni 9.155460045263624 3.421011597052663 11.808849422643254 -0.8587800804383725 -0.46087666941839983 2.9485223363095865
Ni 6.783716499563025 1.5653888882242515 2.3790150524910976 -1.0478356098805697 2.3535384686604113 0.021797812601381816
Ni 5.721087276546282 1.263869599321093 10.25378949616706 -1.1790256344645502 -1.2018580589780334 0.6186382738433217
Ni 6.133918495937907 9.168035815654804 0.3469547525752002 -1.128384929489547 0.9690924902423955 -0.2515631610581151
Ni 8.804067775493142 7.362650738284985 1.429804318378534 1.1874665661430517 -0.19558613147186316 3.1165454705615163
Ni 0.9553097490019067 4.928505191401686 8.559897739579826 0.9870979256808806 1.5150503057018552 -0.02582287460037488
Ni 5.596947125257295 1.037748832674046 4.507381443564011 2.034383576595251 -0.8637523368419834 1.563148960981295
Ni 1.431524721168108 1.9153599556903027 10.996607995621712 1.4037336230030342 -1.2704730890432698 0.04783768830856923
Ni 4.725450912156155 7.419321180174157 1.188956342851824 -1.6593868949701227 0.6034942191130316 -0.7223830577321559
Ni 1.7118101256412528 2.3565591210795773 13.422576019245438 1.0528315204332641 3.704170583852776 -0.1517799329201902
Ni 6.86597793294711 8.653326831071885 11.578221013687221 -2.3185336704504524 2.3028046897509697 -1.7262306920675496
Ni 2.391930228432612 2.6160594418504237 3.550014691226744 1.6849259197814919 -0.39678883779955537 0.05574922984616206
Ni 7.895152801718769 8.74469517922252 7.663304215784259 -0.38851194250274373 0.5634323180951394 0.3088301131003843
Ni 4.932591148026924 5.961532266419565 5.570545487447948 -0.05269733039371569 0.9612508827107895 -0.8928148014255786
Ni 2.2358504253545783 7.189170556992836 9.639086774447733 -0.4006717177937293 -1.4801059284161864 0.059794860670445406
Ni 8.202777650521883 0.6144278312735993 1.0600467488293501 2.2991434388492986 -0.4496162660132321 -0.9360450728691233
Ni 8.239242709648723 1.8415135359508723 4.5042071134169435 -0.4288659208397582 -0.5237159733421239 -1.1128716643452963
Ni 6.980702618969244 2.8659385970208806 9.26236063859926 1.3316946548579132 -0.26603127276730315 -1.3744855247711942
P 3.627955482605057 8.057282064605793 6.337189695535167 0.4749866264572207 0.4354934534586049 1.0204960415253523
P 5.412022525408416 2.1375724160001655 8.07864871925109 -2.2409318635055726 -0.746530601512637 -1.0251451102615894
P 4.721467805697685 2.291137064999963 3.2519072228557353 -1.406154830850017 2.044334774270692 -0.7320246945869779
P 3.0558374049352675 5.187425811232567 0.304879684351924 1.706759213606499 0.41768907828733226 0.9893309287764573
P 2.783153562787795 -0.20117866620428912 9.912014651990903 1.3950895741747908 1.4680158300208717 1.993274722370083
P 6.179583969982903 8.707248368503805 9.273965877416757 1.1639198891713634 2.4191553353292723 2.237834969747804
P 5.761469992025466 6.920413721212869 3.216765190874139 1.796848868605744 -0.25087564807278734 0.06093077404710152
P 5.876063777835349 5.163845072997211 8.385158111245527 1.0961091001749768 0.3610247928260686 1.1473108198597726
