# total energy = -340891.46891024266 ev
CRYSTAL
PRIMVEC
9.00173113223606 0.00000000000000 0.00000000000000
0.00000000000000 9.00173113223606 0.00000000000000
0.00000000000000 0.00000000000000 13.17494342095796
PRIMCOORD
 96 1
Ni 6.43269086216304 2.0018409091041294 11.577797550770919 0.3522814994157997 0.9362355916133747 -1.8058868104382966
Ni 4.445027679117615 0.3035302620609983 5.901649954908193 0.1699082670897848 0.23898532439310455 0.4014394491976893
Ni 2.6040657034237538 1.4733042833664463 4.669463333059619 0.4888489862616098 0.4883429931594686 1.25032618178175
Ni 3.305255526498553 4.149257809205957 4.703375553618958 -1.2711145792820109 0.5607879384937567 0.5160849391594272
Ni 5.288057774895279 4.751266561985639 2.400988456224282 -1.5531990488574348 -1.1570686705774846 1.6591608950022458
Ni 7.271562158296816 6.0422677925642185 2.830531247668131 1.209981459416116 0.7210532831771389 -1.5866434445588093
Ni 4.691621093499938 4.541445218047638 11.405693459014488 1.5336458093158556 0.20543191391769136 -1.0709521412933751
Ni 5.955230057160017 7.6812669353354766 12.278361753552968 -1.4882848646825528 -0.0016581044287132735 0.3923989362619758
Ni 1.8820998855911826 6.514525597146967 0.4608553121392175 0.435505794753779 0.738642971234444 -0.27040034836927623
Ni 2.7311341358330723 1.6845659042373937 0.060908411321278826 1.3779734833197945 -1.2247347064658907 1.2826153808327587
Ni 0.3582436822244354 9.056461354375687 4.920854669974825 0.32931383487603283 0.955806828877083 -0.5932614856414299
Ni 8.765732453729344 2.2661317263000487 1.4922727305733685 -0.3057671579043444 0.8212100926043986 0.036302176865143934
Ni 6.567536790010276 0.8946748259008388 4.865836091136219 1.3117791468809086 -0.9942083114734168 0.0725794140296234
Ni 0.9835111071250583 7.2774762954527334 2.8797266068322123 -0.030880234518624233 1.0429055195688037 -1.6814459316526913
Ni 7.443594236206598 3.804032430109203 3.6868893061140606 1.3104108057784722 -0.37620201478713916 0.48240657307037554
Ni 7.694814540236017 4.034737789574946 12.61300559805797 1.5573248981003502 -1.8781774895829073 -0.7810512609973258
Ni 7.837807034485239 8.633118955128177 7.002653453184634 -0.019135949498502527 0.7116664426456002 0.1353647247869604
Ni 6.606577296623993 0.6850605217719502 0.42384829652020717 1.8382459434952925 -1.1987210560109482 0.3899864701657413
Ni 1.8069444348838009 6.581057389718324 8.988446976736476 -0.1936961135380019 -0.7128193253031208 1.066471222703886
Ni 9.177174564818372 4.9093189519149965 1.387492583701417 -0.5639781632962804 -0.8785215247313579 -0.36263121808124
Ni 6.295783537955522 2.000976742944361 7.004458300216234 0.27423309185180517 -1.212124731011364 -0.7194825962559093
Ni 3.5633351494211345 4.173283428793692 0.2458156648385312 -0.566958843191159 0.30330121286235506 0.8397536599345409
Ni 6.2408909833485495 5.566076231608357 4.8691298244472545 -1.7903162096935488 1.0520126240763945 -0.8935892176977579
Ni 5.308779759268066 2.8741266300822947 9.201129970905626 -0.9084172838495257 0.2796051547969959 0.2830535183569125
P 0.3385794012242827 5.573943744354583 12.393194133243812 -0.18450133441261127 0.19209303071694014 -0.5643170346929378
P 3.9214870139910945 6.193748918987001 12.538409154835191 0.018738456949767727 0.5241165512146522 -0.4134729833234556
P 2.668419077134027 8.482195936016911 1.543589797694298 -1.3385044786908948 -1.0182057028292788 -0.7810823713455773
P 6.203695831555172 7.743657931724608 5.691615269949501 0.036459014157982375 0.18856162052491396 0.8833893943466206
P 4.779919071220469 1.2359106378933271 12.522085416146393 -1.8012583105273494 -2.125454621671159 0.13361380353412472
P 3.857376687013256 5.997151117639629 8.216026457596577 0.0507386640054481 1.1194526599969237 -0.7274920968239471
P 4.780432169877831 1.1758060811352498 3.737006442515228 -1.3474858562538987 -1.713868828068087 2.071963334621238
P 9.272232842392926 5.365229613308788 3.5413592239436005 0.38501215687960144 0.23056856108431906 0.3887307433817692
Ni 1.6191233210965785 1.030266097060876 2.6068598406736725 -0.2503233751137431 0.28876265292654785 0.26514424217665955
Ni 1.9723332354403615 6.355221966632111 4.719488651806312 0.32433489360420276 -0.019969501143391414 0.6991297436311702
Ni 5.866950082901148 5.567750553542908 9.157797439031725 -0.4012291329590961 0.29163148983391063 0.19377376085347273
Ni 8.41865271808142 2.511779958945124 10.2394994260605 0.5417748877263637 -0.13204980148111453 0.7847161114434227
Ni 2.2480742542532153 5.176706364516753 6.854566879458192 0.4830778881057874 -0.9723025125392608 0.5612209122661174
Ni 0.4215591563699033 9.067443465989413 9.392390646043344 -0.34025490726856883 -0.4547898397943716 -1.1793166833424076
Ni 1.1530767107871673 0.9885520763903756 11.455889810646967 0.821992479296378 0.41128985962920783 -0.32114209769851787
Ni 4.139193874136984 6.484783878481594 1.4680571744651008 0.1843889772044631 1.9848600159438268 0.55012917322833
Ni 5.4971319751743115 7.8546672763315595 7.958297902176401 -0.46175804358208866 -0.32543583997786535 -0.44779412520282874
Ni 5.232283050666876 3.1267602058521677 5.102101819736224 0.5697814002416187 -1.6402208635646331 -1.7887730335761451
Ni 0.9083106477635219 7.245538154464616 6.899875291249479 -0.8868814666602791 1.2391588523110206 -0.5243489789404325
Ni 5.069126679356384 4.687300262701095 6.858058650847507 -1.3115726872970574 0.2254649213091665 1.2942858751921518
Ni 8.120110315073836 6.9390022144791725 9.166743359131498 -0.4054244019873663 1.5478539824954374 -0.10190284558408902
Ni 4.604592359826568 0.330093469569971 10.172280801426744 -1.3560915956450386 -0.6161365904673904 1.2449590039325655
Ni 8.144748052358075 7.143602554535237 4.906967699821959 -0.532815878760863 0.381432152837827 -0.7760383811637667
Ni 7.226256447024777 5.909411247230616 6.977502617243033 -0.6757365615182105 1.6500800157469 1.3946509439754755
Ni 2.3335456884928356 5.154760144750961 2.522856588732576 0.8373962154459579 -0.559734557528578 0.08255863672952234
Ni 2.2892391693430296 5.190055931339013 11.313810992077084 -0.8952545212153228 0.20627446442364475 0.14695011563171467
Ni 1.2150896344814006 3.237571512380838 3.6869415161528796 -1.267833594537894 0.14551749695024616 -0.1886068719405526
Ni 3.8556303512320573 2.7284156131221335 2.7711909378575994 -0.8993852555542446 1.228959800290832 -1.0988822920447399
Ni 0.8463247292617816 3.3621824722733145 8.071167904546105 0.2457866635856541 -0.32733279989026204 -0.06146787749749413
Ni 3.6420372820759 2.7156421570730527 6.97231131907284 -0.8883104857973219 0.17591693517770993 -0.8382981584349369
Ni 3.9763885703288984 6.889816757219005 5.989000050372227 0.8090989111631613 -0.36641768170686567 0.19851564641383232
Ni 0.815649531109243 7.498693830622683 11.258383734658755 0.3696217904664602 -0.5652457171547942 0.43041321072222005
P 0.10687574980939053 5.5001565567335025 7.939458179720361 0.7246651688981133 -0.49763007488834937 -0.43343014317167294
P 8.406986474924544 1.5882563860773415 8.27046532496967 -0.18881333152440385 -0.08882364380262767 -1.8886269670510056
P 1.7671837898036111 3.1691403546041563 10.412697228112886 -1.3391896776833774 0.09416511062019912 -0.38593826823829663
P 4.180025725186053 5.9741156884432955 3.9120883068305274 -0.7476132930538544 0.5584227806956898 -0.7352748260931594
P 6.645140711503669 3.95233594554867 10.481879130240866 1.1822911925896993 0.7386200884163087 0.289804721037817
P 6.125200738709519 7.639651933704116 10.080254306796045 0.9083200961500293 -0.046199638484513986 0.262452040056477
P 2.312031551806928 8.494393281292812 5.741139192288911 0.3323425944000276 -0.25641303295124873 -0.5761281683952529
P 7.028956510672593 4.062499127457514 1.5456052852273419 1.70712045360066 -1.10244198437154 0.1907444871088457
Ni 5.482945247384776 2.775764717292792 0.6001751002094231 -0.5880997389348323 1.5627319280485346 0.037160668210697294
Ni 1.3530861681194606 0.9678210902867583 7.087025776089798 -1.0958648453746545 1.375954910227869 -0.33408477390211494
Ni 6.583703898582615 0.7585515524486942 9.156229337520978 2.0164503891555983 -0.34022688224411085 -0.16757036298522754
Ni 2.7429264032215825 1.7946930792229139 8.991476959334165 -0.6813631636763685 -1.5030836202582825 0.266185024736348
Ni 6.350802116794128 1.954248758201036 2.6274260951030834 1.2752730815350746 0.2291374850647473 -0.6350442260051709
Ni 3.778782575128462 6.905839838098049 10.381683564881106 1.0958278214891322 0.29536833116852357 0.1483775921068606
Ni 8.378207941458081 7.261255176495409 0.4738043019395012 -0.42035685492748254 -0.7950234069067018 -0.940467370306535
Ni 7.29527271730547 3.6522002361840133 8.176896833847636 1.7415135863685494 1.0661356937413382 1.257188456119222
Ni 3.330451371094308 8.481502802742929 12.58815722027229 0.3357503345299959 -0.9251101711241746 -0.6211669538024462
Ni 9.134866429913032 4.844074406852462 9.926673976743489 0.4017420680397726 -0.5154491053476413 1.6210167798323565
Ni 8.407049487040359 2.50403847043053 5.600733795480496 1.3091687058412549 -0.6477655302265811 0.9641431166569203
Ni 3.687225970847137 2.4728294696397177 11.072894069156742 0.2862378296221651 -0.11784368518406156 0.8097884810310182
Ni 1.2809012885862836 3.2593827061841663 12.599698339370617 -2.060388485299445 1.2586845810487743 -0.5697405197013543
Ni 2.9474097207768444 8.383897035343223 7.926533494593322 1.5337034020266682 -0.11560785387500735 -0.7357589648184296
Ni 5.673763937538697 7.825546677093522 3.3817045259263385 -0.0182975127576072 -0.06787712345794761 1.0014860760817526
Ni 3.238984784121293 8.21895832132821 3.6494331041265875 0.46725454792028565 -0.00596238823102199 0.3315769198785967
Ni 3.300115538194096 4.165451922970788 9.184818834639993 -0.22259068508516508 0.6427994444705575 -0.33426809355751463
Ni 7.4147526906243195 6.010536691385212 11.272362522466098 -0.10605132053482381 0.1399770267479912 0.12136943894913291
Ni 0.7052694074873739 9.1667325570545 0.6250873902840043 0.15203395791252525 -0.39166745741258996 -0.9733679776892978
Ni 4.636116421196463 0.3719884250301728 1.7351133233722793 -0.4318103481800628 -0.31971333567179133 -0.948097118937651
Ni 6.07659139222253 5.391082584255201 0.19793725889501437 -1.439431590625276 2.2481870024060893 -0.26890525188098846
Ni 7.7943286745718785 8.879856397203794 11.227330463811318 0.014597181087884537 -0.10094922342156808 0.41076921123904736
Ni 0.03657763305837524 5.218609421534702 5.710468495001787 0.5361613981943283 -2.633515147864213 -0.3863527300678959
Ni 8.087389023503428 -0.4352570901753198 2.5444499406497956 -0.7267724450491032 1.233088734857541 0.3959241758064149
P 8.324872686284857 1.5925232064911992 3.6045585757613496 0.7655698775322751 -0.4567827018546843 -0.4448257866031242
P 2.0688317899478634 3.134267649365158 1.479005979674753 -1.0156178874974444 0.4348632760737736 1.4454279174180267
P 4.682619362669015 1.135442320089388 8.07957372079602 -0.7107387886250082 -1.2696855601449684 -0.5362845540357537
P 8.381466568018874 1.7136324930904463 12.54118888931578 0.28824020476417456 -0.6270599222481137 0.03281936052286606
P 6.424544295761054 7.546970113068927 1.3358469534051585 -0.38344301262026864 0.33381120852575413 0.06239270330460867
P 1.5671293238171635 3.168969321718369 5.93688002886118 1.0884585256082546 -0.21493111165737824 0.05554251315199466
P 6.925409600924477 3.9507336374607656 6.07126416791679 0.6531903007865782 0.008596997640391646 -0.48520033376542887
P 2.4388929444071357 8.633172965513163 9.953274091348868 -0.5707540485675332 0.20263686767105746 2.1425563143484525
