# total energy = -340889.841137641 ev
CRYSTAL
PRIMVEC
9.14891342477055 0.00000000000000 0.00000000000000
0.00000000000000 9.14891342477055 0.00000000000000
0.00000000000000 0.00000000000000 13.39035958349436
PRIMCOORD
 96 1
Ni 6.503605823528625 2.0467125955530157 11.60767398216464 -0.4173622910755328 0.16149381777384444 0.499492839128701
Ni 4.725935328263157 0.4216505524875827 6.041998306073659 0.04100523876776809 -0.14261060771609632 -0.2339963558189454
Ni 2.7582144521607037 1.4975399117749926 4.989234655525557 -0.4640548100360653 0.5315668368451104 -0.12842943111970784
Ni 3.469661415287189 4.419428427054825 5.116844616385922 -0.7825831242608199 1.3304160452558056 -0.5280997042321162
Ni 5.172072947823872 4.8034174769806475 2.8140511863486495 -0.27154088973162266 -0.3450042490280962 0.10485652889577425
Ni 7.366732624131468 6.219760781143439 2.797553865464557 0.2567074242632159 -0.5318715125697228 -1.0509273614320158
Ni 5.068690224892282 4.578024843162712 11.75915986267408 0.9946310008331322 0.6098327597365497 -0.31467757302009675
Ni 5.877454181277469 7.98563832686388 12.47508887854076 -1.149571333759175 -0.6855617751387484 0.01193377532310848
Ni 2.083152718158018 6.6058632300955615 0.08502359814337623 -0.6334095186152253 0.35841640866894403 1.2405068816984828
Ni 2.809466665776878 1.6462006077852065 0.555750752608803 0.35314127631293374 -0.667841732151166 -1.7900997228073687
Ni 0.7099355626107066 8.573190702916063 3.927767643532781 1.084041113266849 1.0155844631563478 2.515431064534571
Ni 8.88089611179732 2.3129185326450945 1.3257370389811098 -0.2942445019767255 0.4436297094124941 0.3727809049207322
Ni 7.208090463455912 0.6888052319131136 4.672485545616172 -1.084666148445358 -0.2683372951926604 -0.31525350012822484
Ni 0.7393209579898196 7.306825538312348 2.1148463844217007 0.5164376945131557 -0.8671461930148807 -0.9998359420728394
Ni 7.4531624102849845 3.7202227102365226 4.061001441542354 0.11637121440359313 0.297844560623158 -1.2470431401551039
Ni 7.8955947198645235 3.970710813877586 12.669690843860796 0.19431652073082017 -0.03146721737034581 0.6521729152656575
Ni 7.925118263837996 9.059263330051682 6.921798086700443 -0.19472969700883883 -0.8096810089188765 0.3833645939738494
Ni 6.793791062992713 0.5828580685180075 0.34500004001031187 0.8506042294957996 0.8646684208983496 0.03892598764123619
Ni 1.9005952975051896 6.4003694832135745 9.597165467247454 0.2026648926955155 0.5904612971884734 -1.663264632757974
Ni 0.32936729145516064 4.978802149423001 1.3215843471281319 -0.5570891494859309 -0.5047931682956919 -0.5842873071672776
Ni 6.299630796293243 1.9495602827379217 6.9344519490089995 0.5801547730561428 0.701946644254675 0.4659463706318233
Ni 3.6630877452181347 4.174685841112968 0.6848446672443449 -0.8886894664032953 1.4342852705376459 -0.25003541155967907
Ni 6.230455861064415 5.775370604067674 5.054887259043884 -1.2989750531377047 -0.9063771134910454 0.07495691312286447
Ni 5.4268427429987405 2.9487039808473097 9.23077801206925 -0.04751604330309236 0.26966398442388395 0.5015273530602266
P 0.18920044676969805 5.794921832289337 12.604412430905997 0.659294099691471 -0.3227675491170828 -0.13116508488331602
P 4.099253049027042 6.307041416255596 12.94219763770358 0.8596722532353389 -0.38473782017229224 -0.9269901617557067
P 2.4713594172229074 8.571306026728108 1.3527748231474575 0.14746742158776538 0.45104579937090705 0.21574795113171874
P 6.30857843372927 7.903508530071234 6.013034675608453 0.012662425959016904 -0.1495955236743617 0.15674550445558166
P 4.711425151398599 1.0261329930340066 12.91197603162748 1.002878328443589 0.5511653278023282 -0.4958485575078944
P 3.9875082191255866 6.039243568208642 8.385712996564774 1.1059751943357792 2.2558116088308826 -0.29833615554759585
P 5.046540705227026 1.1297718855445429 3.8873285308221686 -0.15983468490386668 -0.23824150424854454 0.3158201712649722
P 0.24509024465614002 5.7766880476165365 3.5911873486475967 0.21130894152375865 0.2520791814625852 0.832670013614882
Ni 1.8299931317650937 1.2378480011189572 2.557197268670789 -1.81711893170869 -0.13779595993627236 1.2987112579533568
Ni 1.8364980092876033 6.482261408254343 5.11742099793855 0.5637002270445454 0.5222249906188942 -0.7181386806335052
Ni 6.05950841168594 5.734035812722105 9.349149400043215 -0.7655120277111461 -0.6425816720327966 0.6330382513187356
Ni 8.526229329747226 2.228309380284798 10.17428991165385 0.22982396960881066 -0.6020045219413825 -0.02846828264302194
Ni 2.3858262245957005 5.102047163636404 7.310587571557433 -0.268406457867699 0.4029103773162609 -0.5508228568612449
Ni 0.5032067124016605 -0.13446890133663125 9.376237503233996 -0.3806073429436865 0.04484775244230986 -0.8521818583955647
Ni 1.344432843787367 1.0906694291012138 11.357020283188612 -0.023055339157566745 0.2776981675822701 0.936470076221684
Ni 3.9892007681293338 7.1085868798626395 1.8994489386394084 0.6697579753372723 -1.168171979579498 -0.747174662854539
Ni 5.487143232099813 7.974796864326363 8.1954759778917 -0.32525354876373014 -0.02176953046660767 -0.0852608661520338
Ni 5.245739999597782 3.209182698067249 4.741700736064548 1.0281702702411584 -1.8510883466755992 0.4493470715122455
Ni 0.7022093051314386 7.592463767750152 7.078411933245562 -0.6637516212421924 -1.239137255044466 0.7207102980154233
Ni 5.0500630369375274 4.611775185188787 7.03474599873159 0.7144270361098728 -0.1938444661904081 0.3915304176140934
Ni 8.089935941148847 7.067325279825341 9.206595603816792 1.6167011831761382 0.8631054472866039 1.1349785235466647
Ni 4.6440617010494565 0.5355032920672187 10.70539166141997 -0.6468677010026601 0.11336842302152735 -0.564769291739008
Ni 8.040193298265743 7.2154461899370625 4.9320045418064185 1.673383209249215 0.6524487946348635 -0.12909663239006153
Ni 7.346513525221838 6.284425302000119 7.284636678318898 -0.04280886763541015 -0.992521667799613 -1.734387259736413
Ni 2.3876560073024544 5.416971065295803 2.854101470234077 0.16092354709267126 -0.5601186803408741 -0.32409295279672573
Ni 2.6321881682330344 5.223178778823507 11.53113508643248 -0.7890286227758476 0.3757744403314173 1.6137801528746012
Ni 0.5548678824527943 3.5883868662149103 3.349946966806467 1.1280537714023735 -0.18178007882670627 1.1214905163625588
Ni 3.864821288637743 2.4858147006062628 2.624082230842115 1.1115547453060857 1.2566948043122552 0.5097355999026318
Ni 0.9077954560401171 3.307277348976321 8.312480518183719 0.3081202315175532 -0.03153123783906183 -0.7660221345783452
Ni 3.594736212207346 2.540717330722411 7.1109235123791645 0.06780616101069613 1.0372295522299493 -0.09553499438453224
Ni 4.201903858875931 7.231831894076043 6.0594187523333085 -0.03145384763390712 -1.4751508984037562 -0.6140485975901102
Ni 1.0512193139436017 7.68884757182841 11.449065672469159 -0.9338385521361078 -0.4206165363467724 0.6248348895723369
P 0.3802983782062998 5.578668963091639 8.097847006681496 -0.8988154990937037 0.1666861606080613 0.5708885172628684
P 8.38867541476701 1.6774258496759604 7.968294731477913 0.029254783100059294 -0.006650672547298224 1.7068450884520863
P 1.984929982459473 3.3487219272842954 10.637689701270078 -1.3910064052443525 -1.2724739215233827 -0.5788224273979644
P 4.143222727470336 6.350132798999648 4.056609048154791 -0.6850334134391041 -0.5330925294610173 -0.6140025748435232
P 7.045276398208957 4.0470767951439575 10.658712989679326 -1.0429122044370231 0.08899873592791124 -0.8581254775735092
P 6.410817542469139 7.898375989578789 10.307832028049509 -1.0652905721322234 -0.5298503683746358 -0.030470914895347524
P 2.107671806428519 8.610280398381963 5.787366659493151 0.6693558548028472 0.1902768034438078 -1.2128104442244791
P 7.043419168761602 4.0738922607114345 1.6915508572807463 1.3289062934794984 0.2818499849671146 0.5982129161094343
Ni 5.640808383812997 3.1234573782558326 0.4870076460987689 0.027395618404133463 -1.2731799464514717 -1.215469479113881
Ni 1.183411965593031 0.8880091007406348 7.151536454446918 0.32317069809277243 1.1650534885551742 -0.15745847136220625
Ni 6.582624989719788 0.7241630380470709 9.414775471712293 1.0358884648210225 0.5501692824376461 -1.3821384133307617
Ni 2.4278471844563017 1.6215076901575638 9.22503432415275 1.1904670435322722 -0.038420765870043505 -0.1327234305093714
Ni 6.556797606813958 1.895554246148083 2.3959101570926205 0.25364781150128574 0.4722574004515157 1.0332098895475947
Ni 4.175984986834764 7.22478723065504 10.664363358677782 0.4763374840581603 -1.30055268203747 -1.1218157609124615
Ni 8.174005307610651 7.39589021156359 0.28176549433896014 -0.1267705553600462 -0.08555525746400104 0.17057623969108687
Ni 7.607220965280122 3.7993150677359564 8.345207096785364 0.035529303254861394 0.40734681582105975 -0.060071768480915895
Ni 3.236601991927955 8.556777552036483 12.329856280431649 -0.4653935834521469 0.3379763956470373 1.7038633801159428
Ni 0.06849242627920887 4.53983727807276 10.253279801321703 0.3055761249394608 1.483894448924341 0.8953018295134902
Ni 8.638230329227628 2.2100664466984625 5.773775948438737 1.239958979614813 1.0184173046194527 0.02906760678991768
Ni 3.6841393952593373 2.7056447949956666 11.876083892527003 -0.038188852364895526 -0.3062520679605629 -0.40887687931234096
Ni 1.1673464734277326 3.1317920384850964 12.6916509810159 -0.1500863472678512 0.7339247398231682 0.5147358813307006
Ni 3.0031583142003035 8.266262951685178 7.745908430647175 -0.26219492974034847 0.29994155236150283 2.069425655801049
Ni 5.765956372041424 7.960295836375338 3.670605407468833 -0.32613749403058023 0.36112532295967487 0.31397154809200767
Ni 3.322775608502526 8.788793999252865 3.550239556344507 -0.10523730927396069 -0.8293610038463072 1.1550629530013654
Ni 3.528360844519851 4.391963388626451 9.5774276011897 0.7739383041016283 -1.0481325722956982 -0.5898755998883325
Ni 7.475165547333699 6.316602030898385 11.59650681830532 -0.1523895414797311 -0.9706824604373347 -0.7552209301977832
Ni 0.5678684885842802 0.044719889353063286 0.5302243689582339 0.27028156340322484 0.25143897677542504 -0.5564479163575062
Ni 4.696878378879906 0.3195047626657576 1.6579276851527918 0.13959213260474668 -0.1808285135467144 -0.31582479925066254
Ni 5.991861345017251 5.731693690857459 0.5501131920892945 0.11081583180300271 0.6311106952787195 -0.04771890334251781
Ni 8.007431038901318 9.001844748713747 11.257904613529172 0.7165111723324112 -0.04581911521664367 0.7552096173438735
Ni 9.263640909482548 4.927860998866974 5.80699748326256 -0.2261429212127976 -0.6066816157020778 0.3449767382242704
Ni 8.087548074716533 8.844959179436675 2.5493767773821236 -1.0915075968472234 0.41908904395865243 -1.001466792808043
P 9.009959835018199 1.5316470614288837 3.6298323594142374 -0.8426682624781745 -0.7947071612178637 -0.41324106981830766
P 1.9904559262338695 3.3230134802544042 1.7452321074401365 -0.5281878930705484 0.6653233366046865 -0.6181502784633096
P 4.5617306281590695 1.0957562250259896 8.290761912345905 0.793550164795285 -1.0063092085020087 0.6660915822292787
P 8.609731463569936 1.4869912144705568 12.67902365055659 -0.2629564904967213 0.8434257094694894 -0.8134271062248699
P 6.352721941529706 7.864213946443695 1.4598033881222552 -0.26701574816775947 -0.6560663367827927 0.32218108048599353
P 1.8754815298549936 3.3340287721490625 6.049135373521352 -1.4471760104573852 -0.9807496148653497 -0.09065349792251486
P 7.225153187196391 3.872561269487312 6.177227482124946 -1.9402040677973487 1.5315706719543816 -0.057104715432791976
P 2.528906083350315 8.742061348922373 10.094295471279985 0.06535204304324874 -0.7265788409810584 0.5330796739452109
