# total energy = -340863.28240493964 ev
CRYSTAL
PRIMVEC
9.41093921956353 0.00000000000000 0.00000000000000

0.00000000000000 9.41093921956353 0.00000000000000

0.00000000000000 0.00000000000000 13.77386082014836

PRIMCOORD
 96 1
Ni 1.3401554047374846 9.302591188188126 11.528474087915898 -1.28752850186366 0.5612407097604593 -1.191228604288645
Ni 2.3911032328409725 5.433829316019212 0.8651420062938829 1.0291927979684017 0.8589186628987658 0.6295088980092384
Ni 8.526941568384865 5.144565273749219 6.1345885628005075 -0.5788645934898095 0.5990984040381812 -0.9826715144784108
Ni 1.0594741391389375 4.949391802927819 9.500864622425725 -1.4106951419225318 -0.531812120086697 1.638274795581856
Ni 8.335645404568549 4.397986045544749 8.43699933899414 0.09991743972294405 0.03625821100108594 0.18231821071836343
Ni 6.835852235930036 1.2928560236512048 13.019081238671737 -0.05193062743102025 -0.3305973295741468 -0.28044564842042025
Ni 6.7752740194452805 5.65239838202177 2.235442531901955 -0.20666912875890214 1.261817213140485 -0.025074426470124558
Ni 4.183821299149908 2.916101894456414 7.598488408824003 -0.3312339347168812 0.030337217530960657 -0.3540139087258742
Ni 5.959740838749928 8.364744028985337 2.4228218627679916 -0.04889132638406418 1.228192583107504 0.44074467455521515
Ni 4.340334631192471 2.8167976626174913 1.4116004328697391 -0.8037255626663901 0.33897861165930654 -0.915121949563211
Ni 2.4331324879009264 0.9448865418236684 7.700910484863858 0.14014723377726832 0.725676383771447 -0.026043218141297085
Ni 5.018082249117384 2.0187876509596747 3.440159462138583 -0.12957074381300263 -0.5890577319727274 0.9864582352143526
Ni 7.756204458913288 4.96486338719082 13.351802175498456 -0.5963282974922117 0.35914068842947827 -1.2218568706974635
Ni 7.836649168329429 9.049559262349128 10.777894269401086 1.5634873181573203 2.528670703153297 -0.2582194900323682
Ni 0.6689361554276826 2.2619569123779764 6.29192723422255 1.4721578772137034 -1.754637782455333 0.9537867131232606
Ni 0.9468440172048753 7.354282061891235 13.488025522339663 -0.5506716759953614 -0.33074593933686913 -1.7426602983784827
Ni 0.25684712064448556 0.2895990717102379 8.600329955489329 0.46309553144658955 -0.2067706873337729 -0.7193203596464322
Ni 4.33042491207511 6.600757560459213 4.34463354827966 0.745946961095025 -1.1917376827145798 -0.8561038191577902
Ni 4.579758338756348 6.106749122066438 10.746105057429071 0.07778641215185958 0.5119647463434668 1.3935343138725291
Ni 4.243665462366711 3.74887591600932 10.507279885606755 -0.4272432976346706 0.09685345608563965 0.5171424338896642
Ni 8.152405004821043 9.4589351233227 3.7519448233257218 -1.7761969966833475 -0.6642221331207077 -0.2527471540638873
Ni 6.402139685842035 7.187012026191367 0.5250786545997695 0.21042808158070211 -0.05866306105884736 -1.8468923063163805
Ni 2.0201616481022526 6.979566690480091 3.051199692953426 -0.08557762606150422 -0.6794466633799461 0.2648992160453889
Ni 5.347022811614149 9.430043539571232 11.3048551118674 -0.35437309183750587 -0.04999355830930745 0.4961534903428229
P 8.74788219109927 9.4620407333025 12.735476935316445 -0.2494569133483897 -3.149781606906827 -0.08147851629146613
P 4.559807147370969 0.46429904401329325 8.03310817346368 1.3861786448384061 -1.389541390663052 -1.561653093162059
P 2.485212626168231 8.002780480370037 1.2186695888913273 0.5936324958276034 -0.20136571426811772 -0.7225555787542782
P 8.004869708901902 7.686017673369819 2.0940262287369507 0.4654995129023919 0.06816791522548905 0.4087146427028638
P 6.852311968822974 1.9147214838183926 10.922768151676934 -0.432612532366384 -0.2654424901433687 -0.8216263542062109
P 2.462306399832376 6.596070912671515 9.72488262230193 0.834195449120473 1.4771237058594109 1.0428754376618168
P 0.8862055707083899 2.0988935665598367 1.6322577863102274 0.35708046346633987 -1.7539728951778244 -0.37171903931512107
P 5.145007587897857 7.477508901513946 12.514117525801735 0.7509053335415647 -0.13431160093209774 -0.6590567868696844
Ni 3.082044987710368 8.7835496511703 9.493854413716779 -0.09606052787069909 -1.44443881403188 1.0449883702397615
Ni 0.3762107696711132 7.408630236537727 9.819358101169232 0.29700535255131433 1.103053906923926 1.9070831168736637
Ni 2.644059871165309 4.824179255105903 4.036402698878492 1.5709136925283784 -1.517267110847516 -0.877044168854883
Ni 5.509474446375662 4.096233686780229 5.415235182085612 0.589992585082171 -0.4493195607084198 -0.7742396373921311
Ni 5.316794874477434 4.856788159893797 0.6120404395038223 -0.28459258070925825 0.3323503077095115 -0.4440320870572353
Ni 8.263962279671176 0.49620118725730045 1.0482459474210624 -0.3773034753814341 0.15970947217991202 0.9896055225940829
Ni 0.11198076712010427 5.999878495004003 1.1473751357883963 -2.313772244506067 -0.0791023027498057 1.6566031615773986
Ni 7.165460975119425 3.076417245989398 6.884905816107937 -1.0947602994565662 -0.4750370200791818 -0.9780386436920897
Ni 6.885589050303492 7.118095717457816 4.3636417635438995 -0.04082808975995549 -0.5245505534282773 -0.6882889442619243
Ni 0.709208388114216 3.629987519418995 4.649780432861494 -0.6136565043580141 1.6653312854790157 -0.27812702758957264
Ni 1.523555790453645 3.8386750991221894 11.619505162987421 0.43225000682064263 -1.343563895491673 -0.41661101473180506
Ni 5.005424535714869 7.925102587117718 6.572748722817154 -0.17680807953341163 1.2191394717663004 -1.1215895038342685
Ni 2.1689674208313128 6.286065160112195 5.6235096215521 -2.3716333784889088 -0.12719041650628415 0.5026123585942893
Ni 0.5606087149565425 3.711392144647073 13.936805927393292 0.17885030677442104 1.3492617172073988 -0.8096421852611412
Ni 5.147407377427703 1.241359363622529 6.013226971353542 0.54057572521194 -0.6616883109552605 -0.5100785850643473
Ni 3.3708667158317227 4.327733383425951 12.878408399714019 0.4080793231117101 0.7549375946294095 0.12672736082693659
Ni 2.3529042300894387 2.496486931488836 3.1666935637264366 1.764755073394993 0.08898768018431771 -0.27245157447135016
Ni 9.739004677864619 7.859141313334644 4.973782134396444 -0.7287781626252222 -0.23978005238025799 -0.8317603573164191
Ni 3.1531728671871098 4.9378539913058965 8.630123107228872 1.2249442513735356 -1.1034190035728286 0.03249771551738919
Ni 0.6199475107311785 8.747919834856601 2.236144587976176 -0.7171133246927843 -0.537134560740875 0.7693157177279525
Ni 1.2910491232993213 0.17274343801578165 0.12727730791151678 0.37427523007807156 1.3934625800943292 0.4159420136892385
Ni 0.6542522667868306 1.1543081747948154 3.8738983628567154 0.15334702029699396 0.2761012554087955 0.18016722581363165
Ni 0.17247052077513259 6.435482643897883 7.838098452986668 -1.3051495573795329 0.6902789781087595 -1.4296017490190476
Ni 8.435787210008083 3.5193901603808015 11.23324445120289 -1.5179805919747729 1.1637231997795248 0.44528421429678144
P 3.174978013621035 0.8725540621123378 12.091742334327868 -0.4147431082851309 -4.00942300690423 -2.5298606096963394
P 5.493146466633383 4.573405954706757 12.225072758418195 0.19356858682120212 0.15874993648012015 0.12895625015745535
P 8.072214390766888 4.034648499786871 1.448197693746843 0.6606431575201978 0.9591526054208642 0.23550790736746535
P 2.819282150601331 3.2386900729035886 5.864786343070591 -0.25349328820129247 0.2966150590914311 -0.2846470880962775
P 0.0441815368853478 5.790315697942866 4.022628848071114 0.6004803719873723 -0.6122961336753777 0.4700477943947066
P 0.2768933625171248 5.474569272390582 11.942530009019634 -1.6985599656251587 1.083504781147405 0.5492567979257057
P 6.170272962562337 6.035743584801021 6.610227788709735 0.4263999757977689 -0.4125710403344765 -0.5816118172176435
P 6.929171110353344 2.2528941778005613 4.543749261587539 -0.18787976396654094 -0.19358195655764082 2.5637811737031844
Ni 4.344569553892197 -0.233889134142301 0.022742475991465165 -0.181399555558836 0.29364800604330715 0.6806008315890472
Ni 7.614409835987108 4.396348542100855 3.8608133928084936 0.9977752028890686 -0.700383156422297 1.2288093907558968
Ni 4.619961871585753 6.805229039341346 8.552176061111636 -0.8554448454175525 0.25932712127425017 -0.8053193895160711
Ni 2.7978157979833833 8.313746148741295 5.037183632681018 0.3397363157609375 -1.1173286716753856 -0.24532360790630653
Ni 7.0267060855977155 0.8061401221473585 8.574463047639398 -0.4247853230124814 0.5572935521872531 0.17463112648675086
Ni 6.316161344098252 7.855179307875566 9.683079229785964 -0.5747284598342489 -1.1722039835570264 0.15971384305528624
Ni 3.9824177864902435 1.4025969872101203 9.74944140958461 0.7472080871956357 2.155931192993461 1.8126850643070522
Ni 0.25002324853432606 2.115155669726787 10.0971492672987 1.2856086591331277 -0.3081819379934241 -0.7566478924522969
Ni 2.246080657723668 7.501139770178422 7.7482098659501375 0.3283617553754087 0.16921689744971502 -1.4733848076422689
Ni 7.297938768106206 2.418893736690512 2.501512373092512 -0.3279958873955577 -1.6090503514991 -1.1313450405591354
Ni 4.516846209317076 2.3118348908414235 12.429174387384553 3.878534058500436 0.9432415906175626 -0.1850284105606749
Ni 9.303598158696728 1.9846447630605453 12.688770443408126 0.7144110952702729 0.2629613755927278 -0.4696078786438106
Ni 2.519779006337332 2.2061029874382485 13.398839932471287 -2.7494518458335486 1.6768971359397442 2.7130185427071796
Ni 7.973578335620589 5.648728115682006 10.315244021958886 -0.16561195370727605 0.8555690297002426 -0.0015886846433585543
Ni 1.3093439893621404 4.580341816994977 7.149790820036503 0.21839927271163675 -1.298291653917435 -0.9808259766292398
Ni 7.833355339562974 7.170044102574462 12.049649084880453 0.2411514788064879 0.160243233196195 1.351322970611802
Ni 2.7913504826618007 1.0335093575199472 5.069152593594287 0.3025784757637176 3.250093453854712 0.241257665367049
Ni 8.11907145770453 0.9665787569856013 6.203057851915753 -0.2568951147939898 -0.4409750453984663 -0.9819809161692895
Ni 0.9033118351334855 4.193354580693959 2.3415009948999748 -0.6287115989189237 0.3741096510344848 1.5605637167526218
Ni 7.585941744505614 8.00690247179777 6.3370912731742335 0.25425176363387175 -0.4401605199169709 1.4216215590270485
Ni 3.7717068548305126 -0.032507266643101454 2.6963846938552645 -1.3039959033910637 0.445463163076807 -0.7792689722859224
Ni 2.924439986705209 7.7624815554482165 12.38409222360506 1.3816984975798654 -0.17224334298086463 -0.765343877564398
Ni 3.983283592908854 5.42053165874207 6.535545397447023 0.14921782861996882 -0.3051588348963841 -0.07487232382885815
Ni 6.025419784353021 3.196613763146972 9.122235241346102 1.1012574771451356 -0.09975211778967336 0.40325002004386673
P 5.703302152872483 1.1138034919067636 1.153733166401586 0.4105542670147639 -0.031979895340706214 1.1949369063781679
P 8.863260307318487 2.366343051456571 7.998743187396297 -0.34546807603839214 -0.7539572329940112 0.8241864016239031
P 1.254130008297038 9.159479033755366 6.34649938922516 -0.3453873433991277 0.8538890708946584 0.49188185955066255
P 4.892653249690815 8.695660888741974 4.358903355589872 0.9081383191565262 0.7229016492397873 1.23418659590741
P 8.092927868238217 8.248208367228193 8.571969148716226 -0.13974614168410773 -0.9433698886653109 -0.6063520002768009
P 2.4775709434300572 2.9492472227862745 9.491884704114439 -1.3172118878607055 0.531708247518981 -0.16416185152431081
P 6.231491122921718 5.413887535573166 8.898809189553926 0.40318934200926043 -0.4308096748296903 0.5127669305297878
P 4.418661879258748 4.841580081932112 2.634856913591837 -0.13628697949091367 -0.052983494175566824 0.16094514435922602
