# total energy = -381165.9206486067 ev
CRYSTAL
PRIMVEC
9.28203382643424 0.00000000000000 0.00000000000000
0.00000000000000 9.28203382643424 0.00000000000000
0.00000000000000 0.00000000000000 13.58519474733900
PRIMCOORD
 96 1
Ni 0.6871211221442983 4.657325474269615 1.4750534860719597 -0.3346650718856171 -0.5273450854542789 -1.2224333120262239
Ni 7.8524707152574935 7.8763719525023035 11.029059314109517 -0.6177198757941103 0.14883499135925335 0.7878785683318044
Ni 0.004275304805809553 7.482182537623623 1.0685161815207471 0.9202770114015892 -2.056215841978994 0.8812170692856501
Ni 0.9126012173965917 2.982131845441801 10.677433593797751 -1.879048322223635 0.573264987914845 -1.5031072744073661
Ni 5.064583992853418 3.1068638167411256 1.2844125767904127 0.7532396381016964 -0.6359369130227693 1.8707084348993719
Ni 6.520266802418118 5.938515328896377 9.082721696146082 0.1338608865479243 1.092630654708073 2.366588102755518
Ni 3.4297579293761595 5.905796159464161 11.749250466566751 0.5144134649942754 -0.24756946651768977 -0.9097267466895688
Ni 4.744483772416709 7.642223365808096 8.334884005772862 0.06309127203353006 -0.5624031054996765 -0.7809193634051519
Ni 6.018804921971177 0.16496494715859814 6.3803410698582 -5.158873755925141 0.11312776776563097 1.6483470922161936
Ni 7.053278316028209 4.080901888195843 7.997767032621236 1.3209770113300927 -2.0058954964578875 1.4961812367114942
Ni 6.419120479211633 4.838909903093002 11.246463111681535 -0.943722129798407 1.5097705453601546 0.7211697541503451
Ni 3.971039735174649 4.755000316804425 0.07100106176960275 -0.7175781801443447 -0.12738556323622577 0.3804469061064222
Ni 7.4420098949845785 8.031929558322021 5.441658265458038 -0.3787687470730509 -2.877072407898716 -1.4479144312853063
Ni 4.106659532216949 5.1097225236190535 9.735041688658551 1.3765694038834164 -0.08009500568037818 -1.1470231134160245
Ni 5.01930623157956 5.225153896969135 7.4220813682410425 -0.31715611646757635 -0.5504896418915423 -0.09416433928925073
Ni 7.434602831947158 0.9422285413428868 4.313013996656453 0.7242072554250882 -0.8668975673391845 -0.596552754798192
Ni 7.86732196946786 3.9543877663912745 13.0727478316253 0.6781585406961418 -0.9772742547222396 0.44084649024040207
Ni 7.825951944458105 3.5301059976688367 2.6067274107324594 0.39414651508070186 -2.411780897242072 0.05041213390396479
Ni 4.842019384443297 0.7366027165630785 0.27990251630618507 -0.527957265116981 -0.2996109084949614 -1.2575736073727826
Ni 0.65167674756448 3.7420148311830186 3.8671477863460226 1.3016860243109647 -0.290724404638609 -1.1637910769029827
Ni 1.8852646196334624 0.730376328235382 0.9857584956368621 0.9447320591201601 -0.270108013939838 -1.0483166632820462
Ni 7.543945191070989 1.4272148116502017 12.308254459655151 0.6712962663586697 -0.680600574478731 0.5544943921755612
Ni 6.666041144526757 8.184804656349993 0.7837842229860281 0.07268585770050062 -0.15355502254274198 -2.21501385808823
Ni 5.209365157336739 0.12244766276109217 4.365996774255327 -0.9563560165123336 -1.0000496007455422 -0.9208259419265239
P 1.5026034908355796 1.7916460259048579 3.206825752424333 -0.17987874803893536 -1.2904659872254292 -1.0252559248078408
Ni 2.790986921720489 2.36042121606029 13.028147658824789 -0.03164590904005518 0.330865752744185 0.3771319828005763
P 8.805327185394674 8.23283918168665 3.598975904459252 0.19246532645469433 -1.107576734494944 1.5187285258843908
Ni 1.5538124717597033 8.638464062307314 2.717881622869955 0.02237091149603244 0.40030739247577507 1.028749796893712
P 5.96418943461255 4.376571795456497 2.9600916559902273 -1.0426350395162365 0.6110298653684444 0.5551983602211212
P 0.8858698880213183 5.381073502110231 5.308034105700256 1.3584138160203123 0.9379690293647136 -0.7375448530742588
P 0.36873436516211033 2.503726537156455 12.548359327491104 0.06799513709305063 -0.3779035708592782 2.0461474019993986
Ni 8.52929806182723 0.09426369508336718 1.915253942901135 -0.9914407760306085 2.7139045448565584 -0.4843966069172109
Ni 4.237564056047457 7.921259868353139 1.507929521876773 -0.7370869396012338 1.170026259179417 1.0322040739908998
Ni 1.8109897845138616 5.275416110437349 9.849796401738672 0.12017387597913497 -1.9367521046930065 0.9362767292639553
Ni 9.162295644408621 5.236162389152571 11.064965005773246 -2.0152160025278647 -0.4324536381910165 -0.6992284739925636
Ni 2.9344964475620468 2.957079635995687 4.253320308561269 0.3184972038765031 0.16752973955527922 1.3815809981653948
Ni 4.009105356122597 1.7395923798975197 5.835765070235173 0.4342163865183941 -0.5255864508919593 1.189898572623312
Ni 2.813913545407744 0.3382827966071399 4.666596369710436 -1.1941925720129756 -1.6763240370450934 -0.5050186540429367
Ni 5.13171166188428 2.667702947706676 9.740666601190727 1.9455599327926234 1.5987122027978855 -0.22450615694032305
Ni 1.303828735263692 0.20369608993584853 11.845691726798714 0.028589124491602377 0.7013383212467147 0.6247821819575304
Ni 0.8839197327028193 6.377462711151552 2.9893272781067237 -0.5861582989377454 -0.4354304614311533 0.3812148946206983
Ni 5.968394195960861 0.867269620326221 2.2769330341099328 1.585211082987657 -0.05087673224520915 -0.1666977305722871
Ni 8.55287442788619 0.7221533744197791 10.104830492869596 -0.029438616976091236 -0.3536948348235586 0.6674504102500183
Ni 2.057891885761222 6.873670960421577 8.466945071025002 0.41674959719219845 2.1928144391730555 -0.957470332622435
Ni 5.058151543373552 7.5297808073678505 10.629966200731252 -0.35498475727957574 -0.10479867907464531 0.04647294675055867
Ni 2.9967788949067757 8.48030748700078 6.811535169212174 -1.9477296867504328 2.782257836619976 1.0117473487984445
Ni 3.723636404097689 1.1828002954830776 2.708358256107557 -0.3009892768997268 0.08944507943671047 -1.135551365330999
Ni 7.498955172847457 8.45320394806686 8.42458650940687 -1.671527644097715 -0.3739188751799173 1.0537620026673336
Ni 5.614609474568262 2.587682533614439 4.155507163721625 -0.09336858286083274 -0.27661187649662683 -1.5401967230604958
Ni 5.209736438691998 6.799897355131575 12.929016465173975 0.7509783528713454 0.3969423326582841 0.4298030879420469
Ni 0.5932314930263549 9.067089822886283 8.085405211920003 -0.20691569755206943 -0.9825936100526238 -1.2679248687001194
Ni 0.2501071875466352 2.295298466347828 1.2491761197695392 -0.5229261304509768 0.6638446951766309 -0.13526213777082513
Ni 8.299372800549095 2.868380520224267 5.161382611389818 -2.0544957739640943 0.3936880873870446 0.38379293976051965
Ni 5.4251074708439715 5.9960453748937885 1.669688454532708 0.08729717985577223 -0.6632299444107674 -0.035238511487319955
Ni 9.443726911695085 4.4302590794269765 8.469132846410867 0.02908611873267894 0.0708781150678005 1.7820706818553051
Ni 4.51471630571456 4.436960707889405 5.144509730200063 0.2196629699154088 0.24384033849256068 1.1062685572064819
P 6.6371276089859474 1.4781360495239992 8.065950997107809 -0.24757332317243166 1.0660966129732863 1.3197588226522756
Ni 8.31670235780582 5.359771234352236 4.2135300857181415 -0.7195126781628963 1.0819122398493044 -0.985467332055993
P 3.922067724415962 3.6533714076148875 11.58075370551625 0.09081213498756618 0.8162632901220845 0.010134003110208354
Ni 0.7766426261176176 3.558620405752743 6.394863740069162 0.8140194883932302 -1.40271778014401 0.6135803997044401
P 6.042047134810401 8.83717384364203 12.114298936074528 -0.3453068678701795 -1.0974041648373165 2.2753211396187196
P 4.25596104720055 7.484902173550897 3.7818876641276913 -1.103592038815583 0.8946240867201755 -0.494052127729104
P 2.872009795471926 8.575893871912259 10.088325180221549 0.0699427477377247 -1.5162949767422338 0.29291627008360527
Ni 3.6769570557077276 1.157998700951764 11.125771609730819 0.015254355055909212 -0.5477254488828438 1.1543283888281863
Ni 3.7158580597050093 2.978066314601713 7.760379944305781 0.7839164983602628 0.10958427338874675 -0.977534964582794
Ni 5.6447389565475445 2.9169719675938133 12.665381641448471 -0.2122905887107376 -0.2689114225285756 -1.0971827928551299
Ni 7.81023746109676 5.538283309960853 1.6733427912718464 -0.5142872238290562 1.8998503465706504 -0.5185447135538296
Ni 2.7808416586880322 7.495567230480717 13.252425730689431 -0.5081209471173442 0.3336011493974771 1.398916404120049
Ni 4.13758726911004 6.915514369159287 6.040344809796538 1.7228676891325878 -1.5731279265708777 -0.8930438867172491
Ni 0.6919904771185227 1.1515105592686097 5.383649266512342 0.08451807444873831 0.06468381333163054 0.1470573306335403
Ni 8.863460563594382 6.832486576089451 9.202678989216775 1.429192943616403 -0.783465012645141 0.5198042969925435
Ni 3.286322659805654 5.294509254131552 3.362104897227607 0.12602005034726682 1.032238526773261 -0.5132734378525612
Ni 2.2390864691615873 7.088262301727506 4.663050632767711 0.778182424089963 0.24313457067478775 0.6817917665733548
Ni 2.7886014390129485 3.440033140882958 2.0806272995505184 -0.6685246171508035 -0.28536931097428275 -2.2452957969012233
Ni 6.967744373810373 4.972264883868221 5.905783164616728 -0.562211815424477 -0.024342947620738718 0.4843680676721206
Ni 5.927720323492217 2.8906666835737 6.3674483247968245 0.62204601397329 -0.7543603819697008 1.3820939332460715
Ni 0.44511250915925427 7.873420265727993 5.900824702117241 0.9809396193889688 1.854626955956477 -0.7520780136934273
Ni 1.6168838919843578 0.978047910091517 9.590849005123316 1.0581668166032485 0.931179517246706 -0.1955210825618826
Ni 8.133586393391989 6.264685999491574 12.85370018585287 -0.5337311914862809 0.641686671022353 0.514832554809565
Ni 7.466338105787938 3.0445628053286335 10.508256459663738 1.3146158449987553 -0.6843266171800666 -0.8371727865812421
Ni 1.493358585089626 7.0077313757717885 11.353881305181735 -1.3550734387931695 1.5539253855004977 -0.5890885852106629
Ni 2.924898824528597 2.998681711852479 9.787779420562954 -0.9688127542184476 0.4307214859912582 0.7912904222268308
Ni 4.169359671086345 0.649468551704076 8.89777253004066 -0.44528447140709765 -0.3364666438707302 -1.7901295476040395
Ni 7.98800697399486 0.44406271112725887 6.707349908112894 5.6481163780807435 3.249947672305468 -0.22284625273939687
Ni 5.874209398165486 6.252090279514406 4.243213101867726 -0.1750818408709243 -2.430552778532937 0.890408248866615
Ni 2.6437645823263396 4.854271669166851 7.167059343754164 -0.48173294404211864 1.4328127997571776 -0.33832246613254635
Ni 9.171317781341418 6.083584236430023 7.028586249496697 -1.2271217186408285 -0.40788366216113625 -0.07162064966077988
Ni 1.5309879504451447 4.546544399894154 12.550342898131575 0.17183222358537506 -0.17596732879967114 0.7143663580752664
P -0.22483963491447115 8.37875275430351 12.90637015890994 -0.06976637006086049 0.28148617386979263 -2.467423426307041
Ni 5.957376421743544 0.6893274615979261 10.435385996270403 1.595388280630975 0.008176879383837531 -1.138311958795272
P 6.8104881557903445 6.695947857692884 7.186676922362671 -0.10605877673399153 0.9525533549367917 -0.833899772256925
Ni 8.95052604140266 2.232097097648833 8.46683647122859 -0.26954108569277446 -0.3962504487975821 -1.2667583591958442
P 2.3995357068368457 5.933930004158926 1.3597826919080276 0.8001774403038154 0.28467742711358074 -0.6959166360105111
P 2.0867404470648605 1.5986725415088947 7.241140184365641 -0.45280623370543954 -0.5667665246746949 -0.1844817940285855
P 7.250437997704719 1.9644867788118916 0.8846038185998844 -0.14498116483080192 0.5466175605306458 0.39713439406443213
Ni 6.660806077417602 7.751872032050016 2.957143682029469 1.3512705201073116 1.8477371708151793 -0.010053013360627848
