# total energy = -381174.13196587015 ev
CRYSTAL
PRIMVEC
9.19439033565828 0.00000000000000 0.00000000000000

0.00000000000000 9.19439033565828 0.00000000000000

0.00000000000000 0.00000000000000 13.45691963944832

PRIMCOORD
 96 1
Ni 5.023814965854818 8.314211491898858 12.254450068708241 1.076436561446714 0.3277891707013903 1.2792269239765002
Ni 2.179493489011752 5.389356348719917 0.23179150378970817 0.04821692602485889 -0.8055975828781222 0.7068769916767568
Ni 3.9419937859546645 6.795243015967286 0.5609571195438783 0.5594180547294236 -0.0513924955393631 -0.9402850790924
Ni 0.7091219640355706 3.086373000984892 11.68833029890205 -1.6011902320247327 -1.5394241065605294 -0.8525006751875641
Ni 2.1183415978369706 1.2378040146287896 1.9980431120541233 -0.14752038631288786 0.23423546841294499 -1.111551402871976
Ni 6.420599186513248 0.8878103460888384 0.36706581280898376 -0.14905430645891105 -1.0556162822672528 -0.321508222788685
Ni 3.6290810942765224 2.88345280278501 5.696085812790927 1.187287617363026 0.06077033720983728 -0.19714627687013145
Ni 6.120843667631845 7.22976991070795 10.462849525852205 -0.5883841029444705 1.1418857921894592 -0.32468070697939566
Ni 1.3958096152660793 4.875224421083259 3.957465186838713 0.046742141251545306 -0.680974155768066 0.28312756612795753
Ni 2.4507004254096643 4.762234556303995 6.278447473404552 -1.1523136723910028 0.8484123640508032 0.4622144143932169
Ni 4.46716817657447 8.651507707166765 8.218114480773995 -0.19775254299556264 -0.5793492464357118 -0.41447417089446037
Ni 2.6563881351482044 6.31170082550376 2.614060839070589 -0.4211613531066489 1.0618702335967647 -0.4076221809696335
Ni 2.3015674115989673 4.567855946872925 9.23968298088967 0.19198735837701128 2.1509406817574055 -0.7812124691655384
Ni 8.54517458110507 9.130094121154091 7.265161878036033 0.7741388501482087 -1.306483702809924 -2.598337314411499
Ni 4.7675029420569865 5.591347913479918 2.4108473398139516 1.650685510541383 0.6449134054897667 -1.1238549028296774
Ni 7.580968044402599 1.3820180295252626 11.5841072854587 0.8048265090400526 -0.06349287834732291 -0.29083110541980234
Ni 4.970781721486131 1.348605614470511 2.279252625870326 -1.8179871932462563 0.5556030518587077 -1.2853512917066832
Ni 4.302625364296032 2.649860117897551 9.532828652445025 0.6797734505917454 2.8492684983125707 -0.4898496596119821
Ni 3.8351733571967928 5.317079245047544 4.392580522570984 -0.3520845529136452 -0.3317489266800867 1.0792172095156445
Ni 3.7910954491691427 0.3860715373988785 5.6415042330630705 1.2142949991898055 -0.3066225639261042 0.5848632342754057
Ni 0.3654402445696661 3.206552879130369 1.9390077695710328 0.08949752994120069 -0.06687053657030419 0.9693868815543628
Ni 5.993188750014847 1.8083619167263751 4.555786470471611 0.0883227929068092 0.1360578941992431 1.4620344156264562
Ni 3.5223434150330952 6.584958110981807 8.576041069432065 -0.08281214750122512 -0.6633831821591801 -0.2037085034686814
Ni 6.563204183073292 2.632399970349677 9.5569703635648 1.4313393005354447 0.6466183039960155 -0.8894057757440296
P 2.021285611783597 7.933048839584661 7.139205164343254 -0.8302336362592475 0.014329015028162417 0.5066199370917855
Ni 8.80274623640056 0.6095237290106396 2.4512180695944696 -0.27794730747859875 0.6077409102045275 0.19482714181865154
P 3.1799535074315806 1.209420931174189 10.318604250028054 -1.1792606332934916 -2.178361754082835 1.2801406940400213
Ni 2.58526952467806 9.019614324979655 3.7452090045313464 0.35377351058029394 -1.3039267407160253 -0.7480897184696406
P 7.251156062996709 7.934602691578126 13.544255717092305 0.2001575528926295 1.6367830415276778 -0.8996984159192892
P 3.6469182118346453 1.833968294251825 3.8532945814211765 -0.7510842823215903 0.11328691905131458 -0.40980427622261684
P 1.296675696961089 7.763265224724714 11.692192862348529 1.416840335588321 0.20731678964523007 2.5566486764234613
Ni 1.6046418065535255 0.22097338393461158 8.840362326789114 0.7685387303526119 -1.8039772521204096 -1.5932195551144304
Ni 7.666246016233315 2.5336614108359234 6.487581240700197 -0.05928475380324629 -0.7810044669197904 0.15401062202292187
Ni 2.8799589343973366 3.632023299234563 11.233015806693778 0.6396830103287628 -0.8269174274018211 1.1989930787254124
Ni 7.514336296493466 4.733033172095439 7.5505833421374815 0.2773312711611546 0.03308649814132366 0.22487048225827724
Ni 5.137549576264086 3.533054879958463 3.2104310730406866 -0.3779215685814072 0.0994250734675578 0.7525683230662846
Ni 5.120852563127204 8.253114767067041 1.702892143932054 0.10103278427430988 -0.5413000049724742 -0.5024035850175929
Ni 0.6688303060132993 0.5876530323428524 10.88894976170523 0.5741090810826951 1.0660783581408413 0.3769196096794541
Ni 3.5699243858389127 8.200964184185766 10.43403798380059 -0.7591120377220734 1.5500777296196335 -0.6914627140042156
Ni 8.612551074644205 1.380933091446985 8.870801275958145 -0.5213359031457215 0.9269672789375714 1.734136834288504
Ni 8.557761701691186 1.992304892946894 0.27838223873933504 -0.32980491557983843 1.3816208502643947 0.14040691519655818
Ni 6.30371090016458 4.398614801052116 5.311163574203782 1.2661135265229937 -0.3157569221272046 -1.1346787329180588
Ni 4.6610043169664 5.044346039827647 6.567286492452574 0.6021143080463696 -0.3304931998961147 2.022272138043698
Ni 6.073152364140101 8.1611156957853 5.4992780453913745 -0.15312384854259437 0.5177767250395534 0.6323836484538722
Ni 1.346555265390376 0.3158006497322694 5.682507536909568 -0.8273799688605364 -0.8036263180843644 0.6493202763082107
Ni 7.944799270635837 6.654109121886262 6.119897564850025 0.5653909844834069 -0.6146078125276899 -0.47634905402238603
Ni 5.721623232387672 0.4471278069125233 10.03312945846174 0.006326456438660072 -0.4662430759366357 0.012588892408604125
Ni 8.420857227237347 8.03298266986262 4.3005759346549475 -0.06720992218759393 1.0240601047275266 0.603896853868089
Ni 2.73675630245519 3.6570320413779105 2.203920226236837 0.674542026989477 0.3229920064230631 -0.04073887248025887
Ni 5.440992045733534 2.1925403291225645 11.663031933458146 -1.2371281950342372 -0.2180794274783728 0.3433039785075378
Ni 6.4640610703778085 5.1890749405917775 9.65237963428072 1.2270098756533128 -1.7952712397059791 -0.7285398213621711
Ni 4.9112848206002475 4.57739972420557 11.86515497800221 2.5658575966162394 -1.2222193962432046 1.3875300166599782
Ni 7.726579606654142 7.340847342264488 2.1131532032812754 0.05336350322280487 -0.062220439392802515 -1.2149493449443527
Ni 6.178768327743275 6.108596739494 0.19005724589894754 0.47988920596516055 -0.0752962987401542 -0.10749730895273099
Ni 1.496258331411694 2.420809461914068 6.663490158507166 -0.4149598522816273 0.4822379087029953 2.0935963395099817
Ni 6.156223682252287 0.7400445381445803 7.21955678174735 -0.6625887112823428 1.4884882389426106 -0.5995853709769287
P 1.705780101986181 3.268991984974293 0.05980951016267495 0.15475932726348832 -0.764819886740128 1.6293695226724263
Ni 0.8263136652705368 7.75969780121309 2.4707846520044914 0.09598390899649276 0.9443798179870638 0.6377611107157017
P 8.549578694151634 1.0666780187567366 4.773882929620688 0.26212756683752275 -0.6155992299066817 0.27612285267535025
Ni 8.226009703891089 5.439162362025253 3.8740454013268093 1.506065842815058 -0.13362280239518923 0.7230024364837097
P -0.02666649074939372 3.262335246256726 7.9901809432355195 -0.08077634801811895 1.1063981408058108 0.09646136285354354
P 4.326916943980858 7.550148447467121 4.207736496082066 -0.01717779733086719 0.46531645035730834 -1.1867667118625498
P 4.5035319909777565 4.683594934409858 0.5603907450894555 -0.7503132084835207 -1.3515186315623755 -0.23077682044038322
Ni 8.607724019634919 4.388381444432431 13.40667177718097 0.7798605831233344 -0.3569573076249143 -0.2052889605819239
Ni 7.262786966971466 4.762133418008563 1.8180436099164285 -0.13350144632597655 0.2881504732638457 1.138484222707078
Ni 2.214671227041328 1.156608352177355 12.678679246095761 0.1444126939218416 0.695940290159595 -0.4559974869492276
Ni 1.3837006029856422 2.354389184986295 4.45324511104959 0.31070444730496166 0.33660034123511706 -2.2536999618045184
Ni 2.0534383953406876 7.913354455146775 0.5409087510719779 -0.7757054233043803 0.992691103497942 -0.8583234525169282
Ni 0.4691198695348296 5.575671477687856 1.9109630396866069 -0.7044408714314384 -0.4111746742075822 0.1010860061097485
Ni 3.4123417271643413 1.46196325486953 7.74669141642045 0.23332092701847557 0.4304759456393554 -0.4540840719765986
Ni 4.1065365982331015 2.437754723594285 0.27837212490979174 -0.5916154653975747 0.2423886936476987 -0.4695222609085398
Ni 0.7293064094867804 6.132272295015736 7.497334949031238 0.5214423468165988 0.1871842805614131 0.12511450781386194
Ni 6.226680296606872 9.093730306750805 3.33605127204139 2.763712983738253 -0.7868447277506514 1.472233467646645
Ni 6.113111185226494 6.80537523429154 7.4854659103426915 -0.7365506074817896 0.1654368615819925 1.0175526426263122
Ni 6.338107115002177 3.3146973001193594 0.06267999887486359 0.7049365801209343 0.6077571081544436 0.11973704555203249
Ni 8.509334846959932 7.962323778917169 11.0591526407717 -1.932798519361897 -0.2390416315523367 0.8967519316964556
Ni 0.10933877231414516 9.223076992218678 13.243923709926936 -0.8769631791053024 -1.867487613969229 0.029832509980400233
Ni 9.13751399428265 6.709146743382615 -0.10758172429076511 -0.34350863831917616 0.7766862991604108 -0.0027613647952210506
Ni 0.20052046228098044 4.354215089357181 5.901316561321921 -1.1938583286020086 0.19285947656931945 0.316863524927822
Ni 1.3450106077874047 7.089932425686563 9.77964195142363 0.2316293982486656 -0.8031362658218233 -1.7639875991013492
Ni 7.513251358415189 5.642137726568099 11.751982144852118 0.08750852453562993 0.6351378141602416 -0.41614461661834784
Ni 9.053072711986877 4.81995693982456 9.919768140306523 -0.09912168329452607 -0.5825492414302483 -1.8768806251483545
Ni 1.2060006179104665 5.4156890830943825 11.658927557541679 -0.251926715045121 0.7275034096778566 -0.431185055891238
Ni 3.750005718052003 7.050359769000913 6.198526153475569 0.06343194320240042 1.0780437580328337 0.2576775014859691
Ni 1.6611965024813675 2.460124675665889 9.320895193243993 -0.8903696823191957 -0.06633960376749864 0.12365746365236124
Ni 6.991957000583801 2.4918269340887798 2.334937532457447 1.0459862153766566 -1.0908216265237922 -1.1336644327209315
Ni 8.172829349274501 3.106214495670681 4.2034712183319565 0.32551631550681354 0.033269817796723354 -0.42522241054989995
Ni 8.187374875035815 6.9208016125516805 9.05521500497195 -0.07281672685141008 -0.7984761413419926 -1.1375694242022925
P 7.034223613684157 8.601058086526857 8.59967157244038 -1.434689190844284 -0.27118453483346844 1.1696441932496502
Ni 1.5614373656227938 7.142432395406605 4.946010194617526 -0.27814014021569516 -0.5667253870241143 0.23812529038565444
P 7.778518718554057 3.586915619471599 11.207448045608405 -0.7503594883404239 -0.6652289771186672 0.4125568992670895
Ni 6.3539950217755985 6.561549192784395 3.7575892513313534 -1.4977025584520272 0.2981196686614156 0.8195015945537241
P 3.7758879272922687 0.14122951574216022 0.32229096998189777 0.6957438578780727 0.1905223437957106 0.8548414075055988
P 4.463563975500869 5.193791662915137 9.959990840400092 -2.7015287969000252 0.3720926206044559 -1.0853552040925822
P 5.040328091181823 3.1776181322461357 7.50901550271466 0.8799878248642392 -1.3578594861787388 -0.10633208500003623
Ni 3.543168709501728 6.329390832813981 11.704734930421228 -1.3496715510513078 0.6220573268271996 -0.27546027939068685
