# total energy = -340860.15162447555 ev
CRYSTAL
PRIMVEC
9.41539960835706 0.00000000000000 0.00000000000000

0.00000000000000 9.41539960835706 0.00000000000000

0.00000000000000 0.00000000000000 13.78038905000924

PRIMCOORD
 96 1
Ni 6.484555297014531 8.723471453907447 11.43393342811195 0.24636130514220156 -0.6830528926739656 -1.1955020348530185
Ni 1.6072464018968116 5.743751643314317 9.499773047810766 -0.814884664607003 -3.230490849132437 1.461952140325295
Ni 4.603669131677337 7.20959757150409 6.687884621151764 -0.8756745422008662 -1.2160901434170153 0.09214010977037035
Ni 4.954251542017034 4.171031512364616 10.4264630560391 -0.21495913668183622 -1.5633317664160624 -0.12495972740355252
Ni 1.3349342098236348 7.728838037877494 6.894590307645593 0.24097278713677855 -1.144992713249557 -0.5171002677978191
Ni 1.9946430253271024 1.8946420643973874 4.056932873363151 0.36216096331304076 2.0742202489762147 0.6051867763241061
Ni 0.9084617942786184 3.6814495552585704 10.975887410986884 -0.680096638259119 -0.22247087167784912 -0.44039320475306737
Ni 6.2064997110832305 5.534155429091892 1.314404872170763 1.9131807451309697 -2.449405649573382 0.0752980985123671
Ni 8.415070034525769 8.605364679224992 5.700808946515114 0.883080347746634 0.29469547347121505 -0.23849990011625374
Ni 1.419173791542697 4.068526055096769 2.5898864817030325 0.7090701426733337 -0.3315221553812613 0.9350302584513638
Ni 5.480374665620418 1.0429155860372583 2.0771595888887275 -0.3184594086600322 0.37604569171493296 0.7972931767774849
Ni 6.741445064268682 9.19495701266052 0.07627321197585224 -0.0991939312933582 -0.026529670859412376 0.6546190628133048
Ni 6.79783389347573 1.6369519881630061 8.242946169837678 0.5396167037327804 -1.1266512346278919 1.554307451430265
Ni 8.28047689485057 7.702126548737336 12.863966000206407 0.41582477138508395 -1.3933815903447488 0.7553739108358797
Ni 2.695177014222081 2.6970130171767273 12.550585717427719 -1.3147577698932582 0.4335093331490405 -2.8956910514411676
Ni 5.986603049515253 5.2842613038649295 3.5748399252321073 -0.15723401405622597 1.5710522749887716 -0.034888327236752815
Ni 5.342071858436858 4.072988954586523 12.929436924029103 0.920980208116201 0.9771891512076011 0.3098886362718857
Ni 8.540464328628202 3.2884601843664356 12.92779676138962 -0.5933507029211266 0.68307783237463 0.12763984533887693
Ni 5.185183052112421 3.3655723084615645 8.052749445296035 0.2722119476567183 -2.3890369186773373 -0.02408995106966819
Ni 1.4236837680312888 9.212761533620702 3.385179878477206 0.1808925340154304 -1.308784325918643 -1.1976013405842085
Ni 7.401012648775637 2.8788808790841154 10.87613125045112 0.7626329063911382 -0.3529229896545406 0.7347251242372765
Ni 3.6627788175197864 9.394431672132976 6.033246939963027 -0.8601088265521253 -0.35312353570112087 0.2553797065907279
Ni 0.6617378341533453 3.5418097613080386 6.466130301209676 1.2170278247399362 1.146594253408722 -2.2744940157317344
Ni 2.61199195727697 5.669021615360344 5.989453091024849 1.7660863906119066 0.7237465137385858 3.3432036408478356
P 8.490760433256018 8.172802383110414 1.2983525571072974 0.5176972779518697 0.017889478685911123 -0.24044391121650205
P 2.827011441765426 4.616050382371487 11.244012574783492 0.9647095306833515 0.6852043917993296 -0.14945719832428453
P 0.5381192844470467 1.826841770672232 12.033325309625404 0.3086758469107071 0.05217282534881337 0.09320711758230399
P 2.9197437140746967 6.986706812810075 8.285610170803766 1.349006149553167 -0.678349059440393 -2.029267081304292
P 7.070381470543092 3.312780161965669 2.823133238601228 0.6253889623035939 0.3053079588797387 -0.7683104163918897
P 0.12323534293576482 7.347985117285555 11.025221281148209 -2.5849382673967742 -1.5382275151492668 0.7481496251732985
P 1.0884013823136403 1.9032006627859677 1.8143673075203837 0.32163600661580094 -0.7079177742364453 0.8734230271625281
P 2.6879365718009387 7.644796179553546 4.837633342037808 -0.09913839546507443 0.45675904770560044 1.2135198115866779
Ni 0.2751349289234479 5.554869308580204 12.476502527437768 0.4319594721634174 0.37492571917787687 -0.5448409282461971
Ni 7.734788570530499 4.261513504129474 6.644296969468493 2.8200522817599305 0.11616655459195478 -1.0937334008539485
Ni 3.405277049280754 9.084429634790837 1.9596676398110855 0.29821737058154446 0.6389546168031704 -0.7608405903774057
Ni 8.358954251911975 2.4382495853688604 4.429926759769227 1.307966715113354 1.473419003314314 -1.2147637112961078
Ni 5.577946453410139 1.5972284165442823 10.371437576718376 -0.7747643995473495 -0.7423543586477603 -0.8322462958139022
Ni 6.806439568863147 0.7467155832141728 4.7497415267489655 -0.6622750366966659 -0.105169946371135 -0.5986646589348722
Ni 9.102008186156601 7.431189005030203 3.570485302839678 -0.36469864213323 0.14104274900834418 -0.7425790730640567
Ni 3.311019482209162 2.39924158413246 6.872542266010237 0.12572308793213832 -0.46251857589719697 -0.5111026554534875
Ni 2.4537755795853275 7.142644663758002 2.7107265469379667 -0.1495955236743617 -1.781492954974964 0.33149490168775164
Ni 4.777533903782421 4.700770149478687 5.720391094951383 -1.1096107342058374 0.23782190021262267 0.755774231598092
Ni 5.988947484057339 6.516652394821648 9.222346410583931 -0.8030920428474492 -1.2698200288403034 -0.36513572967064856
Ni 3.3097954802393983 6.49730374829961 13.459554060213824 -1.2689769641137176 0.33933239545429944 -0.9000547708174435
Ni 5.527046802267494 7.101706505569282 13.848739609599923 -0.4199711894532896 2.047247577042113 -1.26211906065162
Ni 1.311838234194166 8.093694194264593 0.79927328625586 -1.0690366694382167 -0.936032217353317 -0.2492049452385837
Ni 7.148614027210543 6.879870271649216 6.734930549169606 -0.2189147788954746 -1.4723954471458063 -0.15831002072922415
Ni 3.3708072707322474 4.606013566219422 8.577093058343376 1.4141440197030808 1.9253448912973292 -0.36358586868502546
Ni 3.422676708050936 0.5894012008202493 10.89754563568213 -1.2015526119224724 0.3979975133956758 0.19837115041616804
Ni 1.499082289368748 0.7634260347213808 9.022819966412756 2.261035319123667 1.0380240231067865 0.8218207296052039
Ni 9.1439349613209 2.2638857970761017 9.03799194159797 -1.6984481226376427 0.12250303833294385 0.8029562886005333
Ni 5.252729130043857 6.017890422942372 11.579950272324952 0.09785181544316697 1.8464498194623233 0.8960968146109599
Ni 1.131476836249564 5.762092842061242 4.495121812378739 -0.08198810893803299 -0.023764963630081654 -1.5655262029642198
Ni 1.1937032133124097 3.339369250908849 0.25424686453943773 -0.6126578878901706 1.098916487716785 0.2775405589584833
Ni 8.752517962189922 4.9397235801759125 3.3368525145510186 -2.333219554597401 -0.503601719090752 0.4371986090751696
Ni 8.440209151904766 2.09015284056776 6.756524768536173 -0.27158948358137097 -2.2752730599896043 -0.5596455973591975
P 0.23944020686520087 0.8765031028480816 4.679778515697235 -1.3934409828277743 -1.353205018125863 2.1496975533789233
P 4.4799601941332705 8.579227529470648 12.054546679161179 -0.9610413378031447 -1.639696615630047 1.5545319087362452
P 4.903756753064387 3.2982333693250125 1.0659239984488904 0.7058765754367005 -1.6341016380407731 -0.5157962042744149
P 3.7495793879755857 2.2686217431591116 9.29480356103405 -1.384348790718519 -0.13305767392033857 -0.18846468993573348
P 6.134283594867156 5.0090585840631565 7.490261223170965 -2.1263912745528155 4.218547282071844 0.4400371069652293
P 5.6959025816963145 1.7257297925699622 6.468873007161924 -0.8847813895981408 0.30003616895783813 -1.3275798613585912
P 1.6509244414178499 5.67613965758451 1.166428683266162 1.5200999523106207 0.8017892648756256 -1.0086553401366822
P 5.7903202105639515 8.59248441234317 9.107638595217514 0.6601983566732952 1.056932172865199 -0.17226468313710333
Ni 4.422818132944829 1.6999315972072448 4.573890105292956 0.8870740422870593 0.47235407393038004 1.6887182969443884
Ni 6.708905442672495 7.628112091165687 2.5695049658265092 0.5260099115826231 0.7372190943037239 0.21757600547939304
Ni 3.657628593847011 7.348888995663228 10.325191016140785 0.43112926295263815 0.11390372669970707 -0.5875145558553236
Ni 3.897448241322838 0.06225556480212478 8.618172447528607 -0.1764473537598832 -0.13317954421018352 -0.8618877728294189
Ni 4.653937951035565 1.8480829125475202 12.781751670977316 1.1485392929502347 -1.241574917951681 0.9867284581566039
Ni 1.9282927031661288 7.693530288749687 11.94765270406174 0.3388531418250358 0.4006933150602841 0.3074825979335543
Ni 6.42482400089005 3.5565072003449734 4.858868834673236 -0.4165935312303084 -2.6727864346600096 0.42242659297231766
Ni 8.19306432340989 7.411906266306536 8.90375752865391 0.43872275902917995 0.606218302912414 0.4956693516175527
Ni 6.089146168382169 8.990162652319478 6.781660119755264 -0.08490939634988602 1.0635913300529296 1.2294449674573666
Ni 3.806438987171005 2.821183309309396 2.8379474285952786 -0.16952645827033386 1.9902346499921786 -0.37059392457174245
Ni 3.9090668446358285 5.156164790029249 1.4151496496821037 -1.0253034902163245 -0.08537605157365942 1.361042769002727
Ni 8.793456120378643 0.018020133614855587 11.292312634050354 0.8146779479128357 1.1995612925240566 -0.8083512343638595
Ni 4.717859100056546 8.941795743714266 3.918880515813405 0.055442754349336765 -1.2354330667200013 -0.19921472936338594
Ni 3.13204214803037 1.8460680169972934 0.8353352089050363 -0.35860975562667274 -0.020030693398630017 1.3796773533847788
Ni 1.2292086858353317 0.555324985982021 6.685928101080095 -0.5967826114208109 1.6783575225353546 -0.5679651729684863
Ni 7.38527010036452 4.233399120423973 9.130568859811076 0.7094689207736491 0.8263060190700672 -0.7553862521310539
Ni 9.112506356897267 0.9101932862958461 0.20895031779838086 0.8586001032170826 -0.268440396429428 -0.22299820493622885
Ni 9.051955920993022 5.332364581276653 0.989293942821853 -1.6273254956592038 -0.06612157421942161 0.04352671963804117
Ni 8.1235692577266 0.5393244556172758 2.4164049163684806 -0.08216757193869074 0.5262191993799518 0.8643359772595953
Ni 7.639777771477515 6.029424287657456 10.915418889060614 0.5626710144490826 -0.28819906711359394 1.1372614060435706
Ni 6.9731768833442995 2.0531973964806562 0.6004304001077992 -0.7179551038677893 1.7011812052980897 0.14792944882584846
Ni 1.2978940271386241 7.8167402101060794 9.400830377814911 -0.38044819165800287 4.080627652073514 -0.6182212409105611
Ni 2.911947763067277 9.350791294211007 13.390624860056555 0.5798143589975885 -0.12353816446567757 -1.0154242834293996
Ni 1.6923898619935456 3.2355456376735634 8.433832101642295 0.5967175625108304 -1.3582258683792219 1.4481466019007705
P 4.644955659657451 7.180541647821848 2.393198780561733 -0.46785490050844586 -0.5599541297385517 -1.2128055591284725
P 6.335095241106584 7.792712109899636 4.781202143531806 0.9015688934691246 0.05690571204810845 1.0263393876800067
P 2.8855752283187477 4.080022258212783 4.601244666237227 -0.33233282420801474 -1.3979699810463795 -0.5035744653972424
P 0.10849459305989988 4.669991207639008 8.254701296447296 -1.0541857204683136 -0.7705650167540213 0.9078218163573719
P 6.622406165009252 1.3502342344456841 12.2419875161909 1.8658228246722963 0.31466317484239353 0.5605642525187249
P 9.071474044710873 -0.03097007445495819 8.647952415452965 -0.9542759940548533 0.6258075378982513 -1.0470822766543129
P 7.344793296764402 5.404552451293424 13.164750361176246 0.2513500166060445 0.11229755855485174 -0.9851989088859548
P 8.720637418577455 5.855785485146788 5.492780396353963 -0.27889064522847457 0.7911035030270053 -0.6985180781891002
