# total energy = -340873.1300206756 ev
CRYSTAL
PRIMVEC
9.22195906366395 0.00000000000000 0.00000000000000

0.00000000000000 9.22195906366395 0.00000000000000

0.00000000000000 0.00000000000000 13.49726925957820

PRIMCOORD
 96 1
Ni 0.8258218209540985 7.582645156228187 1.0128486834384416 -1.4074599228146858 0.30672360828034273 0.2447749344916881
Ni 3.458972396311127 8.833124357985136 0.3861962784352078 -0.15310045150382662 -0.137815243209982 0.4938767784935043
Ni 0.48139548378969055 0.30634056852964914 12.772870678046731 0.7769637211915135 1.7472602590443391 0.738351151025638
Ni 3.2575187011063265 2.905562634386656 2.2580935012449097 -1.8868014838064926 0.044550532916865206 -0.738702877938102
Ni 6.793761892204407 1.4548747018951584 7.988763632775134 -0.27209881911762174 0.20955107829238748 -0.2694585532812972
Ni 6.892907173831637 8.169899507825427 7.5359838878831535 -0.6664448518036393 -0.26559778477431034 2.1686591820830907
Ni 8.430853282749219 6.168992611236918 7.608397476844319 -0.27006250541388327 0.732298774183971 -0.05060033865537092
Ni 3.6234091479337773 7.783314984914681 11.70245668189566 1.2869320059302416 -1.6702516055987688 0.8827458472253507
Ni 5.044697475009257 2.828107400418923 6.20165771234861 0.6465211162965188 -0.023676517681333414 0.3040470898894441
Ni 9.163823809120139 5.5894570393552385 5.186069184879711 -0.881938777943023 0.6289010892219105 0.04215709298402417
Ni 1.9414805925418281 5.212057587647239 10.766542191739251 0.2003401012170808 1.2798545302581699 0.5257540868180752
Ni 1.7020047602196373 8.506325795523587 7.874671399937654 0.507854580829835 1.0990571270597074 -0.8216942313296688
Ni 6.857421075449944 6.13455781618566 12.046730856735923 0.5878254022275231 0.22638049114490044 -0.05210366267377478
Ni 0.45846877142307785 1.740377331780506 7.158182358761057 0.4798691513605026 -0.5544815366597547 -1.1575564088471806
Ni 5.9528575572421865 8.48471874549544 10.404856036037637 0.5102729604633406 -0.029191791072607793 0.3300645969991283
Ni 6.829865861841706 0.07280367782851077 3.870530906495121 -0.7666425417711635 1.4856813656214347 0.6621027727848597
Ni 3.334660388466736 2.3425897009388432 11.215339894718234 1.4277865501871798 -0.2308981765095959 0.767531115023704
Ni 4.2002426858170585 8.905433738809162 4.676965402961737 0.7336321482834139 0.31864889896301896 -0.43733153510860806
Ni 1.6059857227065963 4.894093661944958 1.1764905021919387 -0.3500379547972617 -1.4886838998931846 1.291471288561492
Ni 2.1770647581496028 0.516613223163351 5.6557205038333604 -1.089885744973084 0.3649076728202425 0.015480355023786245
Ni 0.48624070106872935 7.252047146642612 9.663680732709807 -0.930237722158727 -0.5847123105198381 -0.4826533989738591
Ni 1.1923716378528308 7.578024954749698 12.042601263478305 -0.35355059593621047 -1.7727116092379085 -1.3999178488013697
Ni 8.249724785266157 4.471847823430781 3.2357410448359607 -0.17238475365473538 0.8967313628711653 -0.2949389569405888
Ni 5.7259235892129015 5.479946275768285 7.981191482208292 0.01576883279848252 -0.2073353015879913 -0.4036631963218854
P 7.772986390791112 4.011432296454592 11.866299539356204 0.17495559970570515 -0.3662261345213499 -0.2699668603762834
P 7.4369658692906615 3.7982851571884644 8.160786367903183 -0.8224884450961899 -0.20314054678035337 -0.25404144739527856
P 2.9170070855539323 5.290942225266002 2.805002704242859 0.7174876773130676 0.17451516973417686 0.8682697650963628
P 1.5090076014535094 2.207239008124888 0.21917645608576117 -0.4928218548664286 0.2734144526052517 0.7908137397007283
P 2.4973526175296863 0.24052621345672173 11.854557218911971 -0.7237647685710309 1.6991081248191446 0.8220762972594358
P 1.4084698040114068 5.422687132095746 8.52301293040448 0.3034012287753291 0.5724062394589755 0.9091050539451697
P 4.009800009704706 4.715962301149539 6.61402591053622 0.9241164397523376 -0.7715258380053939 -0.2550215519203608
P 2.3907928808351806 1.6099788309704404 8.257305235596133 0.35259106023641856 0.14904376493594979 0.1741971242731258
Ni 9.025466757659501 1.3322042027596923 4.0283545912909755 0.8056729162007479 -0.6403674379902972 -0.05361418578103024
Ni 4.115022562338571 9.460807778008919 7.395329646425926 -0.777052681360894 -0.5195790683556147 0.13048348543525914
Ni 8.099259301587441 1.8601244699006403 13.572718851367764 -0.808142460787163 0.4791070763834975 1.3668719740899944
Ni 7.794814767836191 0.9240402956979176 11.436951870186169 -1.2613873246919178 -0.4414188178041043 -1.1247583884805532
Ni 0.18517693750113956 4.150397997211797 7.2265733291894545 -0.08636644051138676 -1.4258101431870993 -0.11548495514389788
Ni 5.3236432920179455 4.1851278949522985 2.060830264227386 -0.01136299042130301 0.5254134156492047 1.037555311000484
Ni 3.840586283299905 0.35025645966880137 10.16101452830643 0.1316520518220636 0.8306290719254534 -1.6602708402369728
Ni 7.5655476441700635 4.302329772377696 0.7297336187482657 -1.5131399760530198 -2.483425458162252 -1.6577845834800096
Ni 5.772208601629147 2.718808741889864 12.100531765768876 0.8213129367308499 0.25536762240586985 -0.23912544951539463
Ni 3.7677512508106616 3.863853285955053 4.4512911545371665 1.548800662679423 2.053685619357973 -1.1331517547505712
Ni 3.2611521529676537 6.553179424797548 7.421675861204164 -1.7913274245668827 -0.3132706653702411 1.5451342695714294
Ni 1.4462337262757077 3.8033203468237042 3.8665359538394695 0.2039105921771585 1.2087280466249892 1.179519286271517
Ni 0.6716039221424548 6.247093382337374 3.075487373833356 1.0483189772748915 0.09042801217527008 0.3939485401372828
Ni 8.752441438353788 4.529116189062359 9.785209553316257 0.14273299222657357 0.05891657183055015 0.6370424873821222
Ni 2.7464100652932957 3.8759156083779356 12.958485658602218 -0.955723268024341 0.828613069936689 -0.7636855160253686
Ni 0.4842155588637866 2.8372648057445518 2.2044410657524853 0.42290301838810396 -1.5365956359727988 -2.9116457749982114
Ni 5.883167212785208 5.901352916009922 4.0099171285845 -0.597564741002474 0.09133201204677818 -0.8425566766009747
Ni 5.017833908328937 1.9305433491216912 3.4916891403934374 -0.1396882918629788 1.175746449492646 2.3620092251355835
Ni 2.605175762612521 6.606639121346061 13.689065853190254 2.4121542214210905 -0.5923834539118508 -1.2632400616299404
Ni 5.477511678582015 0.5053744216826419 1.9751499649928572 0.1294352466764029 -0.9757089671176488 -3.0297784521776014
Ni 6.94718762473461 4.81508913885869 5.808590152233517 0.07159236752600573 -0.6332920192007545 1.4656290749562502
Ni 3.5088263068754277 4.538670138626661 8.965048170820236 0.29126227941995 0.0015421476761392796 -0.14697248422921785
Ni 4.757959102612697 5.186143882747926 13.341915349325756 -0.4064734120771709 -2.122540019127525 0.5064150201698311
Ni 0.30132013402887126 5.239963235698954 12.667754177941813 -0.4892503354650865 -0.008001787258553963 -0.24252984721125326
P 8.916656862959504 -0.20197012491097896 8.03106383669067 -1.6298240937113417 0.36186271534633163 1.1588663859078558
P 4.2301679428982935 4.446561211746114 11.358289481780243 -0.6717924892687979 -0.7499051744118246 -0.7562105478045622
P 5.842876473744249 1.4101666444745644 10.137907065542654 1.040394580221492 0.21900425328548734 1.344399504019091
P 5.135128005344724 7.1206342303382675 13.004996609014917 0.7061930782358548 3.0007249864550705 0.6585747050269433
P 2.0810457206365616 7.632185520185165 5.914651903139922 -0.6372592313786186 -0.335592468795893 -1.3052428884242875
P 8.80311610327255 5.7068710218385315 1.3485704134660306 0.45426713452168216 2.5766814267046203 0.2213791812755671
P 2.7861751526690384 1.2298773452640428 3.6809486391610986 0.5239730836582525 0.27601743744573753 0.20019251989562295
P 8.683719399595894 9.522871562340724 2.0722221502281406 -0.968973448166028 -0.31242554376112647 -0.5148461816563198
Ni 1.0672112097768613 0.4640821778900572 10.08650939903524 0.7220380156879113 0.0730661238580548 0.045205650002360855
Ni 3.56000817954133 6.540702114217916 4.794878293429035 -0.1866140098802399 -0.8503304070091227 -1.2444653521255988
Ni 7.443384352781737 2.3398876669404456 2.5929059461112627 -1.454085850203341 -0.9965349027240643 -1.209803281967039
Ni 7.314120152933457 6.697475417879239 9.648617584815664 -0.20459527694900892 -0.7106796532522986 0.18862924053805577
Ni 3.872577259205854 1.949079486789883 0.1246864193813699 0.3890127933985623 -0.42634983928612374 0.2403567508193344
Ni 4.643828137547253 2.2232575509754597 8.625065895716673 -1.4385162778998581 1.3949275946756299 0.085571198303601
Ni 2.5504157698395247 2.8380025624676644 5.990317154858204 -1.115196455823731 -1.1046269078380007 1.6015712695132351
Ni 2.8056795960363146 7.6172275026240674 9.650709125125687 -0.3076854579729798 -1.845145498828603 -0.24012020932849615
Ni 6.4737045818002965 6.3637142763433205 1.1215866468579356 -0.01806431370087857 1.0569951648926506 1.103771501816241
Ni 0.33846802942937376 2.611621911980713 11.75262598345909 -0.12014122296898663 0.7072968528229948 0.13894010084304456
Ni 8.14585786061101 -0.02430262865521679 5.936058836656923 -0.5832938329057568 0.9730841279002919 0.7401861473518478
Ni 4.885342022817041 6.2263624184179225 10.257802677203316 -0.26742481068072005 0.4220758945011182 0.6164086131818546
Ni 8.621950717953332 1.9354402093713479 9.264013016510571 0.2973658212145266 0.7120410523761995 0.8024888620458115
Ni 7.67764055628791 7.3052209624609175 3.472874499562271 0.696528301452581 -1.3654288138855646 -0.7835920251413087
Ni 5.564483974277894 0.25038817645292283 12.756080257224603 0.29869688132112426 -0.4485705983575371 0.27213481456187966
Ni 6.108339786638063 4.23640198720859 10.015136047053664 0.7599756712739492 -1.0894723115847496 0.521764506042708
Ni 1.7332303135253575 3.071779224103814 9.955814873340028 -1.1640178482018082 -0.7143527312285116 -2.6114787368894636
Ni 0.3207074585163536 8.337582389029771 4.52687617521181 2.1418795999964013 -1.8075945371580224 -0.9892905624568253
Ni 5.100517993071727 7.218073449543299 6.350869931793938 1.9854747667096904 0.4469050377296561 -0.8849801358725081
Ni 7.388873352902792 2.2767449134010875 5.74474837419901 -1.4453911506428203 -0.10721577315657019 0.09330404817148448
Ni 7.8712002545554105 8.309068091681487 13.742379842785951 -0.6932028366237739 0.07542639656011527 -0.2810904810932707
Ni 2.6336716160427263 7.598599145365487 2.694136312677187 1.1351577294370063 -0.3919099124406992 0.15093198309759812
Ni 1.6698201231738716 0.36680249857639824 1.9352253377257413 0.0027521088238404217 1.9918148499951054 0.025056685858311688
Ni 1.9793090685194015 5.16848383118843 5.973203043273811 0.14684007241641162 0.29078945354858954 0.12497438269157185
P 6.438615027657277 3.605961201432176 4.064270432963881 -1.7828834075645876 0.24990454240876958 0.7918300967803846
P 5.219647259936255 7.825855881961133 2.965458336148416 0.06273131759095002 -0.9751680070125142 0.13074702350929096
P 7.4702848072982135 7.031937428302114 5.720250240012169 -0.20509329963135 -0.5023526771749993 -0.5718038299882862
P 5.922535755922279 2.5272225428566877 0.889772418105264 -0.08098615003607987 -1.4569449169186908 -0.6801467747707641
P 8.10296652912108 8.020088783238474 11.2334665774051 0.6707144257132707 -0.611526859609521 0.5784946117449005
P -0.04352026909638336 3.035592256835165 5.217828689613784 2.837685678570977 2.227607892703157 0.9417840322354296
P 5.70730445391336 0.7148263219618816 6.089941056159551 1.1848021319370112 -0.6646800465937327 -1.1516868374402809
P 4.743499070839699 7.6337809190988954 8.611892327229603 1.3196917168597657 0.6006811751442687 -0.13664333438906792
