# total energy = -340870.5846607538 ev
CRYSTAL
PRIMVEC
9.23231843425118 0.00000000000000 0.00000000000000

0.00000000000000 9.23231843425118 0.00000000000000

0.00000000000000 0.00000000000000 13.51243124557194

PRIMCOORD
 96 1
Ni 0.7331679326278064 5.392412421225302 12.090247863894987 0.05095437956067999 -0.7156100006743805 1.9197666258786037
Ni 0.06571841072799628 7.272287823220704 7.97437423335622 0.416246946524167 0.5160034351892145 -0.6962207975144913
Ni 5.080563176662659 1.6885725363259576 6.178788973403937 0.1254469514526162 -2.2389140617445955 -2.765825659205882
Ni 2.3800916350360954 4.834023351131225 8.236164002110124 1.2399522947465935 3.7727660735339867 -1.8899094333078552
Ni 0.7620152341128094 5.032905950052665 6.383717817522372 1.4423798746203225 0.4111145103936081 0.0793622412794117
Ni 7.000977687926656 1.774442328015138 11.209156035948322 1.439879476795972 -2.0719476508919543 1.476650108657102
Ni 0.2066128189602921 1.769798471954536 13.42408703756388 -0.026831004149915082 0.2675672497958553 -0.4746426128542407
Ni 2.880843342533081 6.910574827995417 12.634122806528088 -0.5409994430129198 -0.8111807333928546 -1.399128520130855
Ni 8.889485307450215 8.812921692518662 1.2767289764416996 -0.8022101544631282 -0.4601140802207624 0.18716756839086476
Ni 6.708959462883244 4.956702395531378 13.83213519143121 0.9864734047230044 -0.42289479085798776 -0.5556524170394043
Ni 4.234661252812592 8.246740545853713 9.56801730413163 1.098239516254418 0.0731586835718611 1.1760151297730004
Ni 3.128527975522795 8.659055877198602 0.5248471347983068 2.983889145844655 0.8262178302316351 -1.1816301619669327
Ni 2.6776215540520316 3.184300409841077 9.35537208845166 0.3817712813448006 -4.064431501929626 0.3549970985747499
Ni 1.2725735100145088 8.719379844395366 3.861123504421462 -1.4621768547415914 1.0373845897505747 1.214737743154179
Ni 6.390813777300063 6.064996035282768 6.556934571814643 -1.5708643273476817 1.677190755920763 1.020133773089927
Ni 4.6729193983330095 4.225585884010263 8.061719349495668 0.16520546229747676 0.38567858681900674 1.3155614967414764
Ni 3.7016610578013287 7.528807784739238 5.479088194294383 0.9307997653097841 -0.13404831996838204 -0.7910649364795861
Ni 9.137345354485955 5.73635320389262 1.649259478915908 -1.093854242702529 -1.8103661863658884 -0.34527524330129566
Ni 7.280283010792237 0.2507451464769699 7.2932128724480485 -1.353433074976269 -0.098633687914514 -0.26569394403254243
Ni 4.4234252309737565 1.0053163624154984 1.8794710264577201 -0.22384769742071772 0.712923712091469 -1.0392794927804423
Ni 4.541211146721586 3.467557164901366 0.7522382091263733 0.22943984679651452 0.7426101834123081 1.0465839968616557
Ni 3.178123988957295 4.74345430947217 10.952770866275682 -1.5716814239323385 0.48916343217823494 0.7603384539300065
Ni 4.645333231515757 2.8015377290925847 3.704798199529743 -0.7365914880220541 0.469698638585404 1.54630309306855
Ni 5.213037710685673 1.701266973867364 8.296213769455994 -1.094071758029974 -0.05252043849621923 1.369068724630997
P 2.0251459290601543 4.356555550164732 4.809830984488678 0.15300094981148488 -1.3226081191756125 -0.9599833288522758
P 9.19389330353404 1.1308112638702914 3.1963245810802974 -1.2517462020577281 -0.6112342680697667 -0.09151661725375852
P 6.062134016637068 2.8884600050579246 9.823523557110493 -0.8258198234622681 1.4925305273327845 -1.3070316048935942
P 6.070987809802312 2.7340310183269367 2.1991612788777566 0.28206827162550774 0.24482738499617832 -0.9867965923903779
P 2.888903156332098 1.1085336800248993 3.648572458387255 0.7471921463560358 0.5049613184424401 -0.4476208328497581
P 3.595147802590268 2.171330455627887 12.994107511784101 -0.9937401135877465 -0.663744679263657 -1.2640880114525326
P 4.164587957584028 8.769686746332184 11.59304413628685 -0.3153463169523472 -0.5222830975503393 0.6299974076098828
P 6.586603549620507 6.1947562677514725 11.774516429524228 0.3358241251907249 -0.5573449742504788 -0.40701180107914414
Ni 4.527815052996073 1.6809835707557492 10.785500648143717 -1.157133205266833 -2.0610132633676375 -0.7444516074964211
Ni 4.726272965279765 5.527268893346994 12.704482303621221 -0.427943923246121 -0.8047558037031172 0.118162501976061
Ni 1.2511360671264027 6.31047414421983 3.7529290440640084 -1.3438410604124598 0.04128703167424502 0.31638452840887443
Ni 0.43329577448150336 4.86653957587365 9.142159085201657 -1.4330971637668157 -0.20195783932616185 1.061318731968669
Ni 3.4072239653863896 5.843595812242424 3.8823513736861575 1.4637917646371952 -2.767111725007157 -0.599109974002407
Ni 2.3509082771681786 3.731462980989445 2.633221489307208 0.2823894024103524 0.14484361081167316 1.3054586039795195
Ni 7.060203009256201 0.9422503967097903 1.9396962078496165 0.09484979539204955 -0.8103273842536238 0.2578834468491882
Ni 2.719416258597448 0.35478229394359034 5.7079075082498365 -0.2079708782894612 1.2531130004982676 0.3694523547681315
Ni 6.371601323101032 3.4585371900083084 6.792793528406692 1.3672154734723423 -0.16857309321812902 -0.05893097000825334
Ni 0.24284135885573485 2.77824459024388 1.885429564631701 -0.6902854058666628 0.8481169442975717 1.3794847777579984
Ni 2.3733612750595974 8.024232444627938 8.440269323444056 -0.8148815792832096 -0.3535945618002685 -1.6677409233617728
Ni 7.059861413482358 4.658267709330674 9.233057720620877 1.3777235720925176 -0.8681859471333049 -0.8562169476968866
Ni 7.0386086169584905 1.7755779031552055 4.625926898634275 0.6141876942711357 0.20252811000733506 -0.3214156630748787
Ni 6.663471831053054 6.919982560253375 8.895233348768963 -0.810061789297063 0.9819888865890893 -1.104923098922181
Ni 4.990788114369831 0.27655409203842607 3.9749921475519687 0.2087614925115566 -1.1517236042154875 0.6863163939165857
Ni 6.954123673001101 2.573047085665477 0.05019519088645364 0.3738137170606207 -0.22714050923937654 0.7256455305335117
Ni 8.326073856248847 6.864034711889067 12.989338096195818 0.12976203388820232 0.4582515730907269 0.05144417471290495
Ni 1.0049655343234452 0.7764942787645825 9.099703346672266 1.1741330822589393 -0.14958138260697465 0.20005625142807482
Ni 8.400310926990993 6.644222447581176 10.334942285069543 1.4103840384400161 -0.6741147096440714 0.9615879543352343
Ni 8.341307181298534 3.7661580328298863 11.530765687324617 -0.7022703461426808 0.2667560667484696 0.10592919313466272
Ni 0.6891297747568903 2.157574301492108 5.05468960487372 0.28392820765238197 0.49981705523733916 -0.9547385355135686
Ni 2.218369116917681 1.849353357986755 11.169443219159694 -0.8170824435892703 0.12723078282591635 1.7067175617352865
Ni 7.811150540296545 4.782146955098377 5.357327765556318 -0.6896544571508832 0.11421920105759684 0.3484672678760321
Ni 1.4721208358472095 7.210652866837846 1.119502597292496 -0.5091108218344393 -0.6455327842413205 -0.4202416695058569
P 8.699179532147658 3.995258009258981 0.2009543311281989 0.8431608858438769 0.21027098717754755 -0.4286309220108166
P 2.909777427809276 5.488216187310521 1.2926057940707592 -1.3225937209979095 -0.018029346697885078 -0.3993679113806412
P 1.6881663143246324 7.444470557873238 6.033679088676073 -1.5148883262026942 0.41835113735136337 0.4422510838974125
P 6.065226843238065 8.440628460622499 5.525543373073184 1.007231463205962 -0.11750378534613957 -0.15231600792931832
P 1.5508540455585662 6.352998201903989 10.526994814977797 1.2431324922467881 1.2231773892811 -1.5151050701991908
P 1.1250779942606817 8.938684331201602 13.232317939824732 0.7682633652040383 -0.23673278091350203 -0.9231666742445586
P 8.209340424777176 2.2017047825451437 6.454266577138851 0.16170696222591505 -0.2717218953941772 0.9087592405699768
P 8.32752333020812 5.4415652833856285 7.533801545660072 -2.840890815771836 -0.3013217205384811 0.033390916755619914
Ni 6.945703798791818 6.934800430983527 1.4378846302219017 0.18928435762355142 1.6641292947511144 1.9401194785033424
Ni 5.370365645335208 3.329570936905829 11.968149532310365 -0.0014375037774749437 2.0019419111267784 0.3217643046635491
Ni 6.6562521582113225 4.527418063312959 3.1568416490151487 0.13311963750652556 0.42061782189835306 0.2691266238631752
Ni 7.803256908225344 8.644311865014146 3.7591174669614666 -1.1449065812936539 0.7480251837802924 -0.4745346265214666
Ni 5.161216708562098 5.475161689358849 10.192791358328604 -0.10936367273750842 0.5492025476490026 0.28537342473934074
Ni 3.258860611720641 2.9271618830023445 6.273200505902796 -1.5606130819333188 0.40986881091196514 -0.01847543309636818
Ni 5.612473958124916 6.590767325134088 4.09891478521527 1.3655457990794029 1.1201316883418193 -0.02913676946495627
Ni -0.05845257629520571 4.287747082531202 3.771387217865124 1.7400514000007261 -0.5722409175257048 -1.1846998020311919
Ni 8.18536409438079 1.9923065731803116 9.095677132700043 -1.445380609119859 0.20995242749586424 -0.9824614553501337
Ni 5.541311249347342 7.73658110609877 12.973946898504707 -0.938063903071365 -1.318214360983291 1.6203570347611707
Ni 8.787800554663995 7.3790226540688515 5.370447812967294 0.12510833716627487 -1.8503090453074136 1.3977452666300831
Ni 0.966079010014787 2.521429194542564 7.491264562730416 -0.06184428700030639 0.8438224306872758 -0.09338632347264561
Ni 5.394720500778285 0.715859182444076 13.001606923867655 -1.0338310680713616 1.9065539838430714 0.09643359493940167
Ni 0.03239435814202735 0.575441161831516 11.535738213913564 -1.292253161032839 -0.689799981589812 -2.0109479712801304
Ni 1.8029240296989486 0.8281934142877599 1.6956481850035823 -0.720987720046526 1.1172697934129918 1.1566925181849887
Ni 4.922265848600871 5.658903286412722 1.688986144181852 0.18310779649919434 1.0111529097475553 0.9213067382176842
Ni 4.835879047091823 8.535693641250765 7.289064791875427 0.42939145432592507 0.9145010281497604 0.34934632804687576
Ni 2.9284082459609553 7.695229552827525 2.7951406558035363 2.5254290562875474 1.0103245003089891 -0.7335964099494721
Ni 3.561837598481617 5.276833029530124 6.2452155029387875 -0.9212548019338263 1.0494188952072896 0.20704708092361115
Ni 2.016347529804183 8.668038922818813 10.9582170107889 0.8852575579036109 -1.3552994387610464 0.18375005806888356
Ni 6.390490646162646 0.03626639240011168 9.521683068721405 -0.37702039692337647 1.2019022819524074 -1.3830125884055988
Ni 0.05987527653166445 0.1692163908110399 6.329073572489588 2.1086918003905235 0.5267120798559703 0.03315386104414935
Ni 7.059778322618452 8.3024391216263 11.330645957762776 1.20357504166914 0.4569498235601679 0.8194936241339242
Ni 1.8516983668125857 3.7672936079699535 0.3520255237255075 0.17994302561796752 0.031964725832054626 -1.2664631965529285
P 8.271898612981229 6.516336375709492 3.4602765587594364 -1.0581927847451778 -1.1383878063385298 -0.29553648131527166
P 5.257278979557252 4.618060963517709 5.250876366877277 1.441605458348143 -0.9810702314295621 -1.7109382846848533
P 8.558349750142847 8.733911513260948 9.361006572256402 -1.414238636299416 0.2670216617050305 0.733342127846821
P 4.4213848886489195 6.574721556081751 8.096661827464187 0.0025654467343310654 -1.4737979839202875 0.6359816502177756
P 0.5135781671888225 2.9129718099106046 10.182805682950578 1.572935608054414 -0.6182662352158835 -0.2812725151970898
P 7.525317968455127 0.3837690034335936 13.061115677366306 0.640766987421561 -0.16165476883174093 0.986379045236985
P 2.948950153982504 1.1592098746901947 7.756243174194721 0.3949343010893198 0.16557467271143742 0.6646350522884101
P 5.039802491756979 7.965136375753361 2.029850718420955 0.2897959792870687 0.5050510499427688 -0.21825349116239184
