# total energy = -381166.50840048434 ev
CRYSTAL
PRIMVEC
9.25108495955221 0.00000000000000 0.00000000000000

0.00000000000000 9.25108495955221 0.00000000000000

0.00000000000000 0.00000000000000 13.53989795230135

PRIMCOORD
 96 1
Ni 2.330764598344801 4.384949509866231 13.007698922128045 -2.0383713575984057 0.08956926371940056 -0.6847377365755563
Ni 6.165533583918976 7.970364751632091 3.9172276061893347 -0.3128487473414741 2.4896580693355252 -0.24931858799831255
Ni 5.397249480787979 1.1444887238072943 2.3995269876878607 0.5738974792925213 -0.5027650821220697 -0.14694831585950177
Ni 6.279201664729719 0.9069957960165148 4.983061755513916 -0.8886359874575406 1.5395891713834842 -0.847557729359992
Ni 1.2065079973285135 5.377896211067456 3.685451848899169 -0.8957206622184638 0.4012484162328057 -1.2209227889189682
Ni 4.907996601992753 4.02584089418206 13.233286628693516 0.7875268414193405 1.624754649608234 1.65781775071079
Ni 8.073773379230568 4.07570424207576 2.204349447578079 2.0529050324382063 -0.11683221320041169 -0.6702495702617102
Ni 3.7678928924529194 4.453259521155115 4.5938575102624375 0.4999780062952357 0.4641255153730007 -3.3746284350160205
Ni 2.065693261202276 1.0043717911174994 10.990808834483918 0.17610334015690315 0.40600675685339754 -2.052588272528736
Ni 6.028043959355676 4.2246652119800965 11.002277404499472 -1.0489154732083097 -1.5612355460086662 0.9681447816171456
Ni 3.4080719432274096 6.36551428733607 3.2766824840817557 -0.7621145719938229 0.3050950715379842 -1.0896790282789168
Ni 7.887104987060048 0.9748423279492817 12.818898154875987 -0.9886310744959554 -0.07862947687844522 0.6062833518223947
Ni 1.368059693853133 1.3997446598152712 6.621564891541462 1.5982149514464927 1.7315806435255534 0.9469388369634917
Ni 8.00870124767504 6.12524510895106 7.614472738185887 0.0919058822723772 1.8803071343314006 0.8011572877185815
Ni 8.25811049799307 6.42621990679404 1.7094802351082214 1.6136608536879178 1.0733419816817902 0.632757229743207
Ni 5.126433219889982 6.509683195235037 12.660224470880074 0.44826232308849895 1.0752494831171482 -0.773467535112797
Ni 7.022443080894436 6.079211710227673 10.886484349475149 1.7517038966379896 1.9665735589298132 0.3648464805650039
Ni 0.6128732767978133 8.912328723660368 12.194492475576451 -0.8770225715883283 0.14240929033856764 -0.5463689348549493
Ni 7.553427603910159 3.498908346375508 12.703796155897614 -0.7854977268044536 -1.808338871523215 1.0942170253585866
Ni 0.8639190440439307 1.2613854332664418 3.186845198108522 -0.6802789294732542 0.720997747348855 -1.5203249238372332
Ni 7.377471968114578 6.300340393846065 4.8765429131544265 0.3539208347914356 -0.016280739437894542 -0.20564402992849745
Ni 1.6371830062048311 3.8526235795324015 10.627303178121847 0.22411946302486563 -0.6856944440618706 -0.6618418058139892
Ni 7.861979040329197 0.368770448808509 10.723544990207664 0.251688888002702 0.5306540952228538 -0.009092449219571438
Ni 4.625912519622674 0.11076509035266417 0.18922539205137592 -1.3006282724704117 -0.22688057070977055 0.5637377651507001
P 2.070143033064404 1.428857824160629 13.028794171145115 0.386220832475722 0.5374078690069197 -1.0876375723688558
Ni 0.820938503354852 6.919348990184343 13.390945468670147 0.6573043229549518 -1.989592902643122 0.5685848088303563
P 1.056057602746833 8.54125845513268 9.867606857152209 -0.132300741149656 0.565713143709516 -0.42106056586272644
Ni 2.4131547609313135 2.961004011815352 3.2013869785452767 0.14696065715467593 0.0248643673418475 0.7130720647438752
P 0.9797176497192225 5.399867537829523 7.190376175819255 -1.5040272151184741 -1.4003770478259754 3.2042437425104495
P 4.4338044895001145 2.2577272826452153 3.912083077847278 -0.23788180691628066 0.36216790529157633 1.2288875522919995
P 6.6628811620475945 7.931019887329325 7.965711455901008 -0.4913707242421989 -1.1819610629437902 -1.099188767541565
Ni 3.511896869648747 2.304186231276415 9.37486261889593 0.25260574339001657 0.17211915869817454 0.32057774055461563
Ni 8.004899051759583 4.54740781271619 6.178661798574996 0.6634754847626702 -2.308107590021122 -2.1055447701211096
Ni 6.490931246036423 2.5814042429615065 6.606996282958345 1.2794097294112676 -0.9687109385332606 0.852804579581228
Ni 3.7583180195271346 4.916942401141772 11.464732665512937 1.3723394249624687 1.1108960286761642 -2.373440864011293
Ni 0.7594160130955794 6.733707468443545 5.635738750428137 -0.6300010071543085 1.4922168527471074 -0.8415701443179894
Ni 0.043465297540587096 1.376135891016621 9.202959883418016 1.9865731419801915 0.38149128821053657 0.758845671434564
Ni 5.85268039299705 1.9779559715132482 10.60320225160373 0.3172255362529311 -0.8615455589986516 -0.5101546897179213
Ni 3.1480702006388266 2.7290053033778325 0.8825979096714207 0.808426567686485 -1.4574426824907156 0.734414020754761
Ni 0.08794081355798164 5.676567488757276 9.666079372331067 0.504999370769227 -1.3906338523962825 -0.4893259258980282
Ni 1.5015991051417363 7.9748330256641236 2.7267998447251682 -2.1414628241739573 -2.7617807997125468 0.5386715662106916
Ni 2.7873148918331196 8.022429857744473 12.409235135252167 0.8706032983255458 0.41294539295475974 -0.23050762593939658
Ni 8.199153333591111 3.4033446388167086 10.31213536574482 -0.22973038145373983 0.17595318773228405 -0.42074354884293996
Ni 7.803660200788957 1.4687114981357798 1.4252637776566022 -1.4879783891857277 0.8981418700654467 1.957122183708926
Ni 3.1309279402219383 3.0129118494835447 6.035950861664534 1.7387946447754892 -3.273041320900137 1.3543740987332997
Ni 7.77673954357733 8.539472995736856 6.120399390652968 -0.2268602589947964 -0.12819006141539213 -0.5114813789491449
Ni 2.760671767170066 5.290491960436715 9.133433354457884 0.8651026802222908 0.08589978528761336 0.22956248841730786
Ni 8.701885043162054 1.694336209041062 5.522206660566195 -1.2939755430405844 0.5634914534678489 -0.3025391378853499
Ni 1.111055302789143 9.18274718790541 4.9640109962713375 -0.9681265267847005 -1.30602707488848 0.26847973430779565
Ni 1.342915244952376 4.151637147365463 5.558331222197014 -0.7784629314448593 -0.6419502090963848 0.51672231563311
Ni 1.7557264087855147 3.344516989604084 8.004774162112724 0.3995149784814668 0.5860492841637067 0.4088632524655862
Ni 6.63653407210302 8.570565892262039 1.4110198821553162 0.10521185535266395 -1.045029250780026 0.12103005333184319
Ni 4.1231530567968715 9.311031982941023 10.641655311317079 -0.23765272162461004 1.1429725974957348 0.85157713493203
Ni 4.74658367174242 4.077369437367201 8.035212081823273 -2.449946866788832 -0.8804267121738708 -0.13870561623473532
Ni 3.451848077222399 0.7041787099530008 5.277662555824659 -0.1406660823952158 0.10421452443640117 0.04635364756387501
Ni 1.8684601300160602 6.125874182727826 11.260686110259241 -0.9643431484828683 1.395577826665119 -0.3640054727209473
P 5.434808885694922 2.1068605892406747 8.370636069812184 0.3191641480365407 -0.812267281588814 1.1425465657019096
Ni 9.025025440551104 8.616108983482947 0.9436559954660804 -0.3160626262930815 1.462027987868553 1.8035972430731713
P 5.4574555416585175 2.1369543685909917 0.34128640052327786 1.2490216040377133 -0.6986031817037387 0.615519525708682
Ni 6.738203495730437 5.276282293949754 0.5285366859373059 -0.24991662659362762 0.18713131583629064 -0.9041410250716752
P 4.496610105242292 4.988888088816968 1.8621962203947566 -2.8563950820550223 0.9022492073656009 -1.7163378584338698
P 3.9301939268586876 7.115684766130171 10.586981399248103 -0.6592689028804904 -0.6324880352422204 0.40415993345264584
P 2.6703626758642574 7.762428115155891 4.935861794978025 1.0529644464667027 -0.10350747106704755 -0.10084277975069085
Ni 7.75539729059203 7.613892695159367 12.870743085166502 -1.2939511175605523 -0.4001965779295237 -1.0032171998402466
Ni 5.318624509777113 5.80085581509343 9.521703240129165 -2.1124458681163167 1.445180577293911 -0.05193962629208475
Ni 3.1430191082547894 0.06461605306737159 2.91763122512429 3.1164097163146005 1.3287880227340794 1.094536099260902
Ni 1.9777246943894369 0.06264649708099516 1.035279665943632 0.3860717084923674 0.0907144330674373 -1.7068332613775445
Ni 0.5965340105547976 2.2261718318724113 0.7917957355376466 0.10771096762543385 1.2996954762434971 0.31397411919516893
Ni 7.261185830262291 0.6649698365990355 8.398501262797456 -0.8444253543785972 1.0792557760630639 -0.8694619856322511
Ni 6.0483963462510655 8.254040020613992 10.080725026310276 1.4894264344861639 -0.9026814098070132 0.44672428917741774
Ni 2.6935273925851897 0.2001166943658943 8.30312535226319 -2.159525595212939 1.5013985192463755 0.4688470892183861
Ni 4.644460944952334 6.781720599346756 5.106585942232998 -0.0594413339857686 -0.8561760671566223 1.0328496779946987
Ni 8.706834373611615 3.206167014140207 7.8960082312182855 0.22969644289201088 -0.6051582370790158 -0.30090314494382375
Ni 3.2290449472276137 5.252544009961769 6.601810124734002 -0.05037485290812614 0.3214313468041626 0.5619814445812257
Ni 7.160108476071832 3.190421667551139 4.083294757279245 0.10050570812624626 -0.6454062859657852 1.8488370887475771
Ni 8.028729846597093 0.2465525152847128 3.6005296643611717 0.06340314684699402 -0.7986257795459795 -0.5756530285310474
Ni 6.031328094513796 6.144311595038057 2.6587488638149526 0.7554649278877893 -0.8804020295835224 0.35738796740442963
Ni 8.760934718413537 5.246669571016964 12.015806844611399 1.8175719600857083 0.500936513553763 0.14548895770515588
Ni 5.1701260941204 8.724661214314985 6.327992811877431 0.41076946834936356 -0.8153199523722087 0.9419920344811777
Ni 8.329029315238545 7.700751131777913 9.502733890434168 0.2185928767796816 0.20283227151131522 -0.4230655121078972
Ni 6.832934605643515 4.255045774963939 8.724270818529991 0.8466390742004646 0.07318079505904816 -0.547843719628263
Ni 0.4004785424830285 8.913596122298854 7.546503166823252 -0.4299265008937886 -1.4190106037667627 0.551086909155909
Ni 5.3036470032390985 6.186959096668848 7.257750902419446 1.154690143042979 1.978570326280373 0.18655307473531743
Ni 5.606518273497331 4.41282302882796 5.870913356329832 0.47632591409393443 1.1349229877183808 -1.3553498323830078
Ni 3.2922298574528415 6.598956165026171 0.7179905797870073 0.03887739379148788 0.5713212339249129 -0.37534172366937296
Ni 2.1946996408641795 4.8085751920087825 1.6272658431358058 -0.8347860315166203 -0.12333787552941337 1.4993971725456305
Ni 0.3007962519033984 2.4258842538258834 11.710996546947133 0.023064080908315118 -1.3879763601687773 1.9097215829377756
Ni 3.709342775788869 2.6884207936914377 11.95246651615897 -0.5994077077484838 -2.6185222739998064 -1.1084627366443232
P 0.1948889062592653 4.6476340670910234 0.4664600556893816 -0.3435585177205051 0.10187739166279228 0.3592784995589232
Ni 4.40727237785649 8.246583646142318 8.568399288166177 0.39412954579983733 -2.2406955791250507 -0.9445037451594379
P 4.615477295796311 7.695700039393875 1.997148272355599 0.6674987469894504 2.3512743552165833 0.11782517324130029
Ni 5.778773475311934 3.5532214661313373 2.27364654963139 0.4655473354211918 -1.9271544337022424 -0.37755441504997556
P 8.929424728652494 7.464487673177313 3.7108118480793175 -1.4107110827621316 -0.5289484253856568 0.25772429556350457
P 0.1679608481796763 3.2723955313147908 4.086124664166199 -1.4480445291052675 -0.5847267086975414 -1.5102485134378376
P 5.849118725290358 8.939785943799238 12.088501870167745 1.8914551805284199 0.0898158325125679 0.20843470529975716
Ni 2.242324226199387 6.997502155862633 7.667387093896904 0.10803724061660104 2.496791337946197 0.2424257175332212
