# total energy = -381161.103515282 ev
CRYSTAL
PRIMVEC
9.35564254597435 0.00000000000000 0.00000000000000

0.00000000000000 9.35564254597435 0.00000000000000

0.00000000000000 0.00000000000000 13.69292854888386

PRIMCOORD
 96 1
Ni 3.3316846043731436 7.466092684982391 6.391283737742028 0.8359900791270506 2.5031813006329404 -0.22878910058639307
Ni 5.203477341218093 0.3403592072099052 12.324073635731628 -0.550205277881904 0.20236098830185148 0.06245106734636986
Ni 2.188565433921653 0.13952163114015734 9.33556428694017 -0.43876543934165724 -0.9026083904772326 -0.523624442069582
Ni 5.172510164770948 4.672797235595309 3.0498121958216458 2.1011327570963427 1.9919670593022534 -0.20684807753892764
Ni 8.605694133879764 6.05196862022744 10.532504597169646 1.61869610211898 1.128818931703172 -0.5254470971006175
Ni 4.983582321516069 3.3544094598384353 12.329496166084729 0.5582106646848838 -1.173121096054657 -0.49917530788828224
Ni 3.334481941460061 3.0682110022267683 6.657145835401079 0.9039559056440626 2.154039375287387 -0.7620649497028101
Ni 1.245039539096566 5.418320314007291 0.1814012289190095 0.7092321221724947 0.7042372400610646 1.496334731570223
Ni 7.8518819562737745 3.595916013556443 7.215542967290422 -0.8969583912803069 0.8042302702169505 0.23850632787415701
Ni 1.190365164728857 3.650300363008786 7.471313133458979 -0.7141598984914153 2.689933635863258 -0.19377376085347273
Ni 6.689742764759733 2.1473351177275237 13.541087412361406 0.38686309404541114 0.3216290646372654 -0.14619626818482565
Ni 3.2580556984399016 8.588966245212848 1.6944041429646655 0.8722794004763882 -1.0691240869457006 0.7650654270920308
Ni 3.838629445148071 7.267977600860111 13.21649620490498 -0.5263019889017452 -0.30539511927690627 -1.3363987452018016
Ni 2.330855399657191 6.041378032995365 7.45788123762056 -2.6872661163334235 -3.200675822653533 1.4130744407879856
Ni 2.0866169983492844 2.4414578044783846 0.46028638084223755 1.6985108575547783 0.5250380345876571 -0.4824801066207884
Ni 5.4231291142169065 3.590246494243159 5.968076574547213 1.1334253201269318 -1.3163983908204748 -0.6367362689956131
Ni 4.551258084772088 5.259723463514237 7.164893390296599 -0.37556309565155965 2.205257550032415 0.5128744026419296
Ni 8.183473990961438 0.37228253031351516 1.423530227655241 0.04586616640449521 -0.0478500296037434 0.9120448532997841
Ni 7.414505672616966 -0.013612459737340252 4.313300126228219 -0.5394318414154838 -0.40210613624741076 -0.3950134910666874
Ni 2.6165486525775754 2.42137124017868 8.73147419741703 0.5230935092667767 -0.42473518650083625 1.6678653647547794
Ni 8.588414262309408 5.087355107362514 13.472239239710486 -1.6914395525302932 0.12274960712611117 1.044145305513176
Ni 3.7940685202484477 3.4124986436935183 4.005359155606532 -1.3005742793040247 -2.9992142062374993 0.36144593952388715
Ni 4.181289204831799 1.0423682571103103 0.8312853170141973 0.3552480382432914 1.5095527729223939 -0.8023225116712763
Ni 8.764216139233367 1.4891750283377303 9.863194453130395 1.598171499803067 -0.6325726245362266 0.41785774265471254
P 1.2322223089658744 5.19909890056031 9.532948695388574 0.16615831312904933 -0.4489490647428784 0.2954133254738461
Ni 3.0587898702985887 5.0056148594414545 5.151759349858631 0.39827956341246895 2.7534666234198966 0.9808794555749947
P 7.510419718821234 7.065147272952526 12.961520332778829 0.31142049953537976 0.09874398824013317 0.1905989626699169
Ni 5.649395326414552 7.412475498209403 11.744780676472285 1.5231688210439316 -0.2748198175932106 0.24241106224520187
P 7.112365200302598 6.093881898319045 7.61072156132572 -1.3766182548434809 0.5024030707969606 -0.9256997250790573
P 1.4823641206478444 6.969439050881742 5.367435910388445 -1.0735638678846091 0.15810844624137932 0.10175809247610862
P 3.8771092024674387 8.140905817899652 8.603267280233121 -1.154665717562947 -0.6799236030163645 -1.2961656087133677
Ni 0.8851317170267483 8.028095481464705 7.281516151022245 0.041853445700676305 0.4052523951858763 -0.03734141676293569
Ni 4.433479902206193 6.414060049240691 1.3783303123775694 1.0668178074100272 -1.6472970536851244 0.24997139109096303
Ni 0.8339788064701287 4.71435499927453 5.288016797354556 -1.3825374485413933 0.014223856908865825 0.22086573197425835
Ni 6.73450951379284 1.4206917257416265 6.215438824862885 -0.8567316825497762 -0.3520187326727163 0.06622776077998271
Ni 5.836339773474026 2.303901793813014 3.8000888761528997 -1.2263365037353717 -1.1586486134700948 1.8436496310093669
Ni 6.250121126919444 7.218664009605458 2.779431322868344 0.6126692007440803 -0.6433488892161242 0.4928390812576093
Ni 2.9638394552647283 3.8227529199423897 10.82198688527465 -0.7979804326524967 -0.43693275700829265 -0.3813048832313433
Ni 5.838089278608653 5.786474199315934 5.324631975137394 -0.5913233880784525 0.4911444671640058 0.022938096853412106
Ni 8.946014982955703 2.037808611785914 5.9013100323372285 0.540631775260856 0.6919463385088536 0.30012281513437344
Ni 2.6570305173772124 1.6559019321034627 2.8316292586845235 -0.13829218284640055 1.3712551907593544 -0.3330905283096457
Ni 6.051435348608864 5.5563534624366495 9.540451920618366 0.7675725097846007 1.421133049426404 -0.6988464080627965
Ni 6.0179608599901675 8.169758619157355 7.40306839974487 0.5182354098435268 -0.3993691969322219 0.9049959168728027
Ni 2.002229103620206 6.379322548893787 11.831128578290691 -0.10145675918560591 -0.21703350271236171 -0.61397223582622
Ni 0.7548777852788998 0.2401499855654893 5.075654005373861 -0.6668878528783289 -1.557510274638279 0.0327198588305243
Ni 6.728250589006394 1.1495464968016986 10.907389867207511 1.1919359147683148 1.2768450540078848 0.7360687827493646
Ni 6.723292098517878 1.6856435193921255 8.667979323365223 -0.4578833911180308 1.0422653148816436 -0.36467293110161714
Ni 1.5943418049064186 1.7637818449771878 11.011702473622236 -0.46153898559274703 -0.18252955539822113 0.5170886978335932
Ni 2.2428562269496846 6.199984239130848 2.3433395689173335 -1.789948799051801 1.3376547290960898 -0.3397427435188407
Ni 5.831587107118995 5.467568415764926 13.478647854775833 0.7592197669445313 0.6405828964352128 -0.23051122548382236
Ni 0.7179173842903523 4.267052378998258 11.612657487366691 -0.6360775523656916 -0.7381372352426191 -0.017057726813235138
Ni 7.670148602048458 0.1440675377974588 12.814308363560258 -0.5800390734138849 -0.2934945111845784 -0.16898266995172187
Ni 0.090005958008991 2.9321144717806593 1.3788364526330954 -0.3710508096035029 0.7362526166253965 0.4120102827350001
Ni 2.9797627586825652 9.247014066893467 12.697576141818168 -1.9923118442361818 0.8081650864949824 -0.29230871840659334
Ni 9.110384264828783 7.855951660731329 3.2917528513484595 -1.048425935166401 -0.6954209273210152 3.0412178043627947
Ni 7.281187767972912 2.646711243775641 2.2821733142666414 1.408702279862219 1.834842317130382 -1.3875498141543199
P -0.0036814452966621235 8.245997749328891 9.961687849952934 2.884590056432 0.6980071999909527 -1.8363937207779018
Ni 2.8710689049173292 9.197522718432621 4.222214527082673 1.4565942184474914 -0.7301855844957101 1.460968179145471
P 6.303495066989222 3.5381262102591573 10.279253905507801 -0.5589452288580632 -1.6562272662952184 -0.3439560102692399
Ni 0.784436001975912 0.7705831022280909 13.42519064948842 -1.010256623185531 -0.10415616039463997 0.30741189259661894
P 1.5559275370840688 8.006025520969594 0.6390596098023338 -1.28280924201112 -0.42985579555685327 -0.9205914573182145
P 3.964060543222655 6.794189156861221 3.3258616525239884 1.7578390630014498 1.00451997781207 2.9330458379405426
P 4.585088087803168 1.2919580858888418 5.370996667897745 -0.4842842497090627 -0.5088601392762139 0.08437100734791277
Ni 2.4097608879216086 1.1604177533067086 6.678821923349837 -1.2846226410707746 -2.784086662298599 -0.4093149952910241
Ni 0.20084599614793597 5.10036880598426 2.982127865089163 0.20013904094986823 -0.5484985796034424 -0.3294462466888391
Ni 5.144695839823105 3.5772515069062756 0.9742105308708112 -0.21504424019647483 -0.40911342080317925 1.0492661716795089
Ni 2.9006608019270934 4.082970758522721 1.8661129263249914 -0.24850354829618493 -0.6745589962703414 0.9917500797409114
Ni 9.161606407139391 5.677059961083497 7.809487798161208 0.6173043855232466 0.2296859013690496 -0.10226048603382387
Ni 4.556216575260603 5.302020322945519 11.335006344680131 0.9244882212694595 2.0058600152342616 0.8463688512582133
Ni 7.53172251663699 4.88026796214875 1.8854482325374733 -0.9372712319667407 0.8988026435778973 -0.03848941432444984
Ni 7.491596166249738 3.8301064548932824 4.719897281850749 0.4293806556926476 -0.4709600217963308 -0.2901052829973713
Ni 4.60773809812901 1.141762602298972 7.725207493320089 -0.1508075417045919 -0.2617460151283879 -0.47051496383911223
Ni 3.587879516708075 7.808247239974836 10.770323156641291 -0.4955824483307014 0.5474292577986636 0.08948416020476202
Ni 7.338650123785107 4.645946541817875 11.772659555352902 -1.352429059191787 -1.2028751873886379 -0.7379562295800646
Ni 8.824036116938215 7.120963035696836 1.3236390978534847 -0.149945965035245 -0.6313549500790416 -2.4165976019044253
Ni 5.158149253639115 9.22424243321602 3.2982840253296533 -0.2694438979932779 1.2123610153918862 -0.9688302377199445
Ni 8.765263971185657 1.721831144315859 3.715767406485083 0.490235325086175 -0.44303089948623053 -1.6483026121315032
Ni 7.780919408433413 6.091571054638548 4.379902009131416 1.3500711004825716 0.572481315671285 -1.0911836378489015
Ni 0.09034931008621462 8.36968869791128 12.068782478455548 0.8623675406793149 -1.9320832384624276 -0.181813503167803
Ni 5.947933876392922 8.35946298073402 0.5325867855502551 0.1586362937203913 -0.17374255323421045 0.5110772015321908
Ni 8.493613537554447 3.7591345514104897 9.648242954888996 0.05433872265188061 0.3422403131297138 -0.49952266392537187
Ni 1.2460405928367002 9.207477121979379 2.6029436773541805 -0.9770240863846464 1.1283967565640889 -1.3461676516631074
Ni 3.4243241757265066 5.874669840514495 9.468838220064796 -0.30241649626455663 -0.19027140412716909 -0.5336568866049196
Ni 4.566601338359193 1.8386176287840503 10.24540519119186 -0.739108598016953 0.8389360491292519 0.43110920834798017
Ni 5.021173292804476 3.6011271063906003 8.499776099223855 -0.21515171230861654 -1.5247497923778062 0.8791385894900666
Ni 7.388674743864528 8.037048831271326 10.16159079734381 -1.974945327933276 0.14320916053204366 0.5137871442641861
Ni 8.24823374786994 9.307619918562532 8.193300222206888 0.5109280775488362 -0.40505801978688305 -0.9998361991831555
Ni 5.368024380297365 9.06003219726427 9.713257185271626 0.27467660714712694 0.07997262116990098 0.09437671241037295
P 6.075816152784471 1.135335275948764 1.7235974896068622 -0.5179649297909596 -1.7586921550303647 0.05509899785667285
Ni 5.057959678843805 8.116384679087577 5.305681185828832 1.487311702136006 0.32176353333260066 -1.4026488745792878
P 0.5090246000873744 1.7927562695864956 7.764766891776012 -0.5819105794049848 -2.611095642518432 1.9142608655690256
Ni 8.140924529184515 7.860956929432001 5.886274579386107 0.007214001249935963 -0.6267305639331529 1.137512602822428
P 3.2280147305934412 2.087880010077491 12.344914264811283 0.496875456110512 -0.44565676714485186 -0.18889509260493276
P 8.606957145607971 2.3248771441436786 12.461331201403445 0.9887094931423746 -0.16916290428332803 -0.35301015005170816
P 1.0255842345888062 3.038198101307602 3.7457138823429883 1.0181401396986658 1.0033773795671945 -0.8593441804719587
Ni 3.300661294071411 4.9035167335901875 13.44763296455229 1.5556233420282113 -0.5823371254194422 -1.0475149933163574
