# total energy = -340895.8894112525 ev
CRYSTAL
PRIMVEC
9.02645728343349 0.00000000000000 0.00000000000000
0.00000000000000 9.02645728343349 0.00000000000000
0.00000000000000 0.00000000000000 13.21113264259593
PRIMCOORD
 96 1
Ni 6.433255312639202 1.8206093308415179 11.3785767891332 -0.13624455628875246 0.5465977630363038 0.8556587612005716
Ni 4.519980372540139 0.38746699233456 5.996598641983097 0.5150210166712873 0.7133039782490231 -0.475061188448898
Ni 2.7597490136763847 1.6724219835610667 4.736600902172543 0.3982132289509077 -0.5215279645518696 0.6161008521334486
Ni 3.4744638920138478 4.278694146058215 4.972788985647584 0.0746910610559875 -0.004663724024256484 -0.46816266155685177
Ni 5.164478440589814 4.44610784710046 2.813337284574513 0.34148338035903125 -0.8772082052365731 -0.4367748912741897
Ni 7.126613593323895 5.941548085024211 2.5041567552333968 0.6766187070128477 0.5502176191770781 -0.16921664033939887
Ni 4.8056767682746555 4.580078524345783 11.253982795591048 -0.029862077666755023 -0.03720746228823269 0.336538120538614
Ni 5.50047025564861 7.7911413698230625 12.466843473439411 -0.09940244775973849 0.4378233871433621 0.624233508542912
Ni 1.8354397999638778 6.524711376636615 0.39923388189506415 -0.37296036792139 -0.657588429854274 -0.026258419475896713
Ni 2.704904259940865 1.4095715509115725 0.24148119795669146 0.19387840475213708 0.4549898716203196 1.3189764359602962
Ni 0.42522376001071277 0.06633994693535222 5.006041551198322 -0.22618894395938466 -0.4751740598776784 -0.8254081898461464
Ni 8.82608786900895 1.9139338714721197 1.368462357044279 -0.35477495526161484 1.7016573736035596 0.2725970989102789
Ni 6.8726361680677535 0.7035969910471346 4.7614110223367065 0.09793074831021845 -0.713413507243694 0.7785506060626592
Ni 0.7398580747710201 7.494270220118075 2.620904049561875 0.4937914178685495 -0.27173835045440947 0.0122343372826628
Ni 7.68074779869314 3.85816053319052 3.7683563108543314 0.058921456926556585 0.05660052210286381 0.5085217821001887
Ni 7.788216797701549 3.86625726526767 12.353465755570689 -0.41528278283868475 -0.2816869770266891 0.332935233678704
Ni 8.050561748749795 8.862933867157137 7.094404486221449 -0.6881182230120149 -0.21627734127262754 -0.5574676158712721
Ni 6.814623127867263 0.715799858488716 0.4651234086178748 -0.7262109161186783 -0.08177110783122046 -0.5859240714397523
Ni 1.794631187120184 6.582715390379941 9.094754950655673 1.454837383657385 -0.20999922157339962 0.20887719215381448
Ni 9.20021646559055 4.817799300247469 1.4394581505854214 -0.7030085098602861 -0.7457775253966963 -0.579253344287796
Ni 6.527392234414668 1.9205231852026874 7.061931806569783 -0.42787707456392765 -0.2998358800215739 -0.20633848489236076
Ni 3.3696576978691613 4.278387246514599 0.4246596064378902 0.21048490296056654 -0.3337543871458897 -0.8433462623818058
Ni 5.9855249843328755 5.586510445346926 4.962470842462089 0.27703765118013574 -0.05246413133698707 -1.1368055494530744
Ni 5.239759093347258 2.7716007519342414 9.523733716847094 -0.8700070595024437 -0.43171187492898555 -1.0092382092233458
P 0.16152303509626054 5.608489868544093 12.466552821518693 -0.28483477862705137 -0.05756442867802989 -0.3666863619872201
P 3.938333525731482 6.11566844374017 12.586232811780134 -0.07684847371862248 -0.09604330147951846 0.08329011557890817
P 2.4164457683138085 8.393368538968286 1.3570339596274683 0.021768759135659285 0.20599215729653553 1.0394841525920808
P 6.456769233554446 7.7779176100761 5.720195886545829 -2.147043403585528 1.0107690440455754 0.980692279264853
P 4.636304326027571 1.021090887437365 12.498061475545121 0.699285552482744 -0.2468564996110652 0.4509247004120105
P 4.031414352018625 6.332050674903415 8.08912367640508 -0.6896169190447284 0.13756764597555018 0.06074925416391474
P 4.774391067740208 1.0699059677865568 3.6853381790149107 -0.004097052887509073 -0.3973423963101802 0.7336951403108655
P 0.3413454068034523 5.534915216190864 3.5020866562306745 -0.28325020774875087 0.6945814621388554 0.40731827657596953
Ni 1.8297531319498264 1.188639985337087 2.622687677497711 -1.435913293059372 -1.1433657191690954 -0.11739168524830751
Ni 1.8988867673777958 6.559002887407063 4.856558004668954 -0.3175703211868595 -0.8678840996221698 -1.154319904187754
Ni 5.945140614975945 5.743769382078364 9.198317299003 -0.17846901217560232 0.6353800120780349 -0.6205781711785119
Ni 8.508636396967395 2.6432535575028138 10.099434836321059 0.7799107196349795 -0.6684135454942359 0.4576663900112182
Ni 2.309391986334997 5.257631478534278 6.948210180683065 0.2376648058094681 0.08835518880664138 0.19282193846316467
Ni 0.6668538945106294 0.11448977739147159 9.247554817547522 -1.2613302462017375 0.2764434692395626 -0.7528832832035421
Ni 1.2379515208303626 0.9975137813219639 11.504980587336968 0.5854910976673917 0.08325720545844371 -1.265698293362446
Ni 4.065642677588915 6.5795651568293 1.5254631371007938 1.2520115399039728 1.2224392255634948 -0.03844544846039186
Ni 5.591041726843836 7.997215386903691 7.855444948021954 0.2069838317858435 -0.12409917917547014 0.19801145308390414
Ni 5.379967052493708 2.712802409960381 4.970873571437137 -0.4929123576977059 0.6562316587160634 -0.2997985990257353
Ni 0.937605185116789 7.494423669889883 6.909884746205508 -0.1742583165283644 0.19795566014530425 0.29647364841756035
Ni 5.150667961127117 4.839092712700084 6.936822402323498 0.03782452704694131 -0.5733133246542772 0.8039070825495768
Ni 8.195436386250632 7.249003326026315 9.039439918501849 -0.5772280863276511 0.39125788067899714 0.8244571387867866
Ni 4.4567590665553505 0.23464275400836535 10.411112083714059 0.3752982720259472 0.9311586913110996 -0.5059146834946447
Ni 8.018174820441196 6.9874797825801 4.7159781554873 2.269963731961549 -0.03111857578167544 -1.5641282941754289
Ni 7.345144121292447 6.277612111740328 6.979533792337609 0.2051367512747757 -1.049779620980818 0.37740143441187907
Ni 2.4943440936491497 5.095398963904835 2.4408885116713486 -0.9297191306510957 0.06740943979290971 1.60688728240951
Ni 2.197120912114722 5.420495845165282 11.297142800526267 0.05532936869992407 -0.7767176666189783 0.3790325422573988
Ni 1.0771903187188419 3.481098338030242 3.712565584407903 0.610608975780942 -1.2927079891820705 -0.41580445967010976
Ni 3.6495771610179752 2.6796121269640834 2.5889855943801487 0.47807297869202825 0.1715314045155046 -0.09510896259070717
Ni 1.1730332408985233 3.379243795378563 8.099282953944469 -1.0104078040514146 0.20094765289409264 0.26746029190434584
Ni 3.868956175960053 2.8597350796948753 7.151133061567338 -0.6500910930359644 -0.5962215967110184 -0.952072044424999
Ni 4.067953450623197 7.107089366475651 5.905376363226261 0.47480896322877575 -1.1513183983572686 -0.09712702146200047
Ni 0.6916098559318005 7.376222213312096 11.141384060975678 -0.46222444169554594 0.14404631172135834 0.9804369687209373
P 0.25359831405520383 5.683824680044529 7.932545334543895 -0.6256211329190581 -1.5157930974051508 -0.44806794768950575
P 8.567434738941255 1.6374083562174064 8.129087412858114 0.03470423625040475 0.9819024975228702 -0.2882602593688326
P 1.8450349239304442 3.5188740612664415 10.2422875474169 -0.3532526050798174 -0.308307664938011 0.31464980510595486
P 4.102037352878845 5.988801588283829 3.7516050116472255 -0.9640312736694043 1.4014828792956442 0.8223555190627515
P 6.698344306665657 4.009281479049649 10.356814333282749 1.4923698333852038 0.5830596054077636 0.6342297005236754
P 6.277043444938923 7.85967925907813 10.14327002025223 -0.12887628884913932 -1.0117676605134187 0.3446579214322709
P 2.3795726907941255 8.57665977816405 5.618086797802093 0.8828723455008859 0.38914803342484594 0.8453650925840474
P 6.959416527253613 3.726049306121221 1.6811956999256032 0.5403960051009661 0.7675781662115555 -1.3688136711973975
Ni 5.249038291313044 2.7566529388687337 0.5841318304662261 -0.03484744669648837 -0.6427673056810413 -0.16911790997800552
Ni 1.5264731976575754 1.0965340164237822 7.102027329297428 0.0696972073858219 0.5585595633838703 -0.7366071717513378
Ni 6.8002891138889865 0.7530276757749903 9.177020275967518 0.11859316175557641 -0.30792097102255356 0.5896164326896749
Ni 2.8431354249681435 1.7936292503748512 9.179848264997364 -0.45420851336960477 -0.3357845302020411 0.7224385935604397
Ni 6.671445464313475 1.8995727781223481 2.742789203308763 -1.1441190523953522 0.12179444230169346 -0.927316948967506
Ni 4.098183055669321 6.907360948782129 10.58226273802268 -0.10275619472331979 -0.2181100236059921 -1.555613057615566
Ni 7.970253359351355 7.208781432898356 0.22638354570224284 0.2123571802826149 -0.4914555706465213 0.5624203318908572
Ni 7.43799928615046 3.9457442470640793 8.16344932999445 0.8381698603871889 0.2967736961564824 0.0012405572753204442
Ni 2.944962888248327 8.320669452960079 12.399043948380454 0.8337647893409575 -0.40905222854794066 -0.7884840631262873
Ni -0.12188876432975422 5.070964344358743 10.268709792830759 0.4101570315763452 -0.3134467859367892 -0.7115335166121617
Ni 8.709303566206094 2.295364871900336 5.8681205639227745 0.21645757560423365 0.008497238837733753 -0.2616943359548461
Ni 3.447980266691265 2.6791608041058255 11.56823529121327 -0.1619455605992824 0.06812214958921817 -0.5404960210139401
Ni 1.094620407504768 3.226164108314594 12.638245063257225 0.2651077325117692 0.5162096376627496 -0.5553924785097983
Ni 3.113270208549923 8.5925553692319 8.072874248216356 0.4335836380304017 -1.1164097594055418 -0.1916780546667086
Ni 5.609979233976344 7.709515117678509 3.5263687286506746 0.1343329410883364 0.06765292326228349 0.9591263801686193
Ni 3.194815222579989 8.205022483760033 3.533581770571355 -0.28790647557383964 0.023303964833263094 0.34861587763875446
Ni 3.5323234824425316 4.376288200927938 9.012264866560415 -0.4104318825042867 0.7380747574357999 0.5641905364174026
Ni 6.9371302045128305 6.064217637898751 11.422741438750903 0.4299015611931241 0.25317035764423496 -0.0402930431920919
Ni 0.5892164337873614 -0.0448253862821905 0.37601422348340346 -0.2981011567186544 -0.7950452612835727 -0.04472562504214878
Ni 4.548531056553544 0.11217178319145821 1.7598287788741886 -0.045238045902193054 1.0146238990152914 -1.684300627492667
Ni 5.95996205764114 5.0948844558464215 0.3236770195483658 -0.5148397538984165 1.1699069599927336 0.05410500937451972
Ni 7.735989716543926 8.700277109040933 11.538299046025012 0.4880390887658046 0.28975998384281065 -0.49621236860521634
Ni 0.1864676494721835 4.728942855913621 5.605021001055522 -0.6775579309976654 0.8311350650275945 1.1104951936933198
Ni 7.768584253367324 8.744894886808323 2.4883297652400027 0.7285449635684936 -0.45167469120415754 0.37282409945384176
P 8.716290044051929 1.4481867346641322 3.54444150118676 -0.15070726868130171 0.6304432368980497 0.6942158512693205
P 1.7713790334627288 3.115301161412084 1.4894890947147603 0.4888623559980484 0.2043062849536804 0.3886610664860983
P 4.748602479619342 1.0983122284853188 8.137343913227086 0.05821388933657071 -0.012586064195126713 0.1475563817571459
P 8.455389326150108 1.6681705222362757 12.390800085051513 -0.9041232844598622 -0.18684386650285886 -0.36862317399861677
P 6.216575208389508 7.735520340771338 1.4066153861899824 -0.03561543521076447 -1.01033838426606 -0.435811756029972
P 1.7859657882416293 3.1773580544225672 5.936171024490925 0.5999543242805732 0.32236285747949645 0.45247893227300784
P 7.034300015895791 3.742170558618199 5.937201845899186 -0.402388700484836 1.3939186937951413 0.05189977419308481
P 2.3554269178773186 8.448059842931999 10.172505812364472 1.36317241375122 0.20354755241078493 1.1911782106666842
