# total energy = -340855.3353194653 ev
CRYSTAL
PRIMVEC
9.39662951801395 0.00000000000000 0.00000000000000
0.00000000000000 9.39662951801395 0.00000000000000
0.00000000000000 0.00000000000000 13.75291712547986
PRIMCOORD
 96 1
Ni 0.7337047917829461 3.231500824061914 4.570644538047667 4.180256614021762 -0.4485127485364082 -3.34907552624758
Ni 7.773183071211287 2.252550584598133 6.895739920005513 0.4458796817889353 -1.8590723933223403 -1.518808487192707
Ni 2.865267196211338 0.544559100484241 12.084303043659407 0.4758618299733224 0.10966346336611436 -2.245415096087907
Ni 6.725881750054494 1.1934001138654704 10.285077806125969 -1.1115776281242211 -1.832429593923831 0.48642829263525905
Ni 8.286737053582486 1.8873787758610174 4.305186001030863 1.3509514462049959 -1.1453300419843178 0.39300520238740705
Ni 6.991966102584187 1.636141097661124 0.24347982103110755 -0.340925193862716 -0.9991839103111372 1.6610848514978358
Ni 2.970359098555939 0.6902933039752006 7.296637713427373 -1.2716835644116034 -4.048095483773764 -1.0629930343472982
Ni 3.938850889583603 7.24645501452972 5.406079118203568 -0.86451364048804 2.877981807086863 -0.4157463527386646
Ni 7.630166372920439 4.476770331788454 7.7517352647823206 -1.1061304889667207 2.0447811177794915 0.15305108632312994
Ni 7.336155238043808 5.119979005553682 11.737550507720567 -1.0081897133541733 -0.010347147562278954 0.3511946941095242
Ni 1.7618961878862491 8.322669764112328 2.0321996269818148 -0.1867237959852268 0.3611888292077586 0.5263809217687967
Ni 4.55157689782613 5.705163493251501 3.953688167284079 1.3983757011252305 0.16279865262819704 -3.247022785349188
Ni 6.660481209968799 7.737776571923512 1.4917515518262365 -0.04971536494725631 1.2661981158170001 0.03987318204585391
Ni 1.910024652528622 6.0733140334839 4.4622572377996095 -0.468840918570799 1.5362325962064252 2.145871237654298
Ni 1.1282344895128407 7.6342726999344395 11.852566190292825 -0.9414096796151465 -0.9715337526940364 1.3131588008372546
Ni 3.5186618161623273 5.071680330835223 13.102692815716246 -0.768624862308515 1.0592142840311565 0.16252817257562976
Ni 0.9145043969172667 8.76437711868249 7.67443013500775 0.5949617561619883 -0.3728426113966031 1.1910211162635294
Ni 8.36125232411116 3.408213835103811 0.5553276376880065 1.2299129082327205 0.5043355119329831 -0.34058452269384576
Ni 8.843919585898785 6.120175023915992 13.061475440855341 0.1838603583945027 1.4020048132373852 0.061473533924448966
Ni 1.0508438504114335 4.958977158739269 11.871738133099843 0.711700124097013 -0.27020365897743787 0.2901487346407971
Ni 4.876277424070561 5.391898664892745 1.1118026038163096 0.22930434965991475 2.7917002129797988 0.5511776690975023
Ni 1.6215105458057462 5.928859650906685 9.716751811095932 0.23217550056012273 -1.8856550289068752 -0.1178737670910486
Ni 7.943637927124293 8.611644305672014 13.24147351350844 -0.7345870559975156 0.5805916034832452 2.2673975138962694
Ni 2.5589934600686393 4.045812721163413 7.58777347973127 -0.6307664245654233 0.7549620201094417 0.5528838531553317
P 5.529192815926094 3.8272001399717865 12.28850589378474 0.09466416174380471 0.18239585803383426 -0.6587685662053041
P 1.7088710086184928 3.8640913066925395 -0.06809831236423117 -0.058403122529241354 0.452547323617098 0.9446528691427925
P 8.092433552448576 9.461184166104156 6.353049809093548 -0.10005113708733092 -0.1884600619500432 -0.515304352239661
P 9.051970355731745 4.196525258869517 5.808764150522596 -3.0468983996873398 1.8882515859894577 3.881926372011437
P 2.0814379646325403 9.013791850793789 13.745174190371902 -0.15419908388464412 -0.7748029660947688 -0.09327962269145226
P 6.130981147637048 2.927886334017528 7.9362860043422465 -2.0577302217409916 0.9116764142167718 1.600075144583683
P 6.279419701047069 4.876775445424661 2.830556987156373 0.5374112114410293 -0.880518757667045 0.25078283124866485
P 3.410807304796865 6.805132921761788 1.7670981618792723 -0.9783844570672826 -1.191150699862858 -0.1516143538766034
Ni 7.057968026946534 5.640890548684523 0.6883115548510522 1.5486955045601263 -2.371270852943168 0.8997493237618827
Ni 6.858346033615997 3.6682937414963255 9.925741304198224 -0.26369156889053297 0.20927519892318155 -0.18343535504194214
Ni 1.0350857030373368 0.9497924986755748 3.1744895946354865 -2.6169611001602733 0.17179262859669123 0.6821301237493801
Ni 5.508670577485409 8.628483065418218 11.480769757883236 0.038713357409797845 -0.8085304402542012 0.15335293383426493
Ni 0.4714890315453918 8.020164076328015 5.579654594714629 0.1023579308436366 0.3806423099466799 -1.319827728216998
Ni 5.222430455058617 2.8763646154413967 3.851380486207781 -2.900340634398037 0.9186430753425922 -0.5858268837402556
Ni 3.4421544602172496 7.650895337206221 12.601398615622317 0.021154265480111956 -2.515037171530262 -1.4907320406714648
Ni 8.68878123578171 2.068611565607113 10.015493209173586 2.5381061375345837 1.073753615297912 0.6128635761430736
Ni 0.7376278845251556 6.2038708012929025 7.532650972798696 0.09898670037855854 -1.0302040128417356 -0.8453486375238151
Ni 6.407862227258474 6.472576813403616 9.981454859115193 -0.6211769811047754 0.3567917285813275 -0.6706992562046191
Ni 3.8382129895379413 2.215189586411247 8.398094628359436 2.200596911331952 2.6789671095494247 0.7017934065062623
Ni 5.002060704183654 1.3954652308198974 12.662998219147 2.574154032297076 -1.0809583605764674 0.731108867640928
Ni 0.2578707588387575 0.6872224855125563 0.45353583156152233 0.04478321775296158 0.34095039067369665 0.2871220319993313
Ni 4.1549357774874345 7.505614051248614 8.57906995046209 0.6694872381743889 0.32508668416856273 -0.5193124449577895
Ni 0.03187054767365744 3.2933306450050006 8.056307271354687 2.7099537877389266 1.4418265732200135 0.4665991737244738
Ni 6.620996573554991 1.3763430901482891 2.9622272555401117 -0.9314443408723185 -1.7633527937308275 -2.1473041134460824
Ni 3.1407387814343655 0.8481059347975044 3.3369385223655894 2.337474473219013 1.5427853097232782 -0.18502198280277166
Ni 4.7924125073658415 4.668527346375925 8.784827003077389 0.5319044226901872 -1.3811248844645827 1.4917645957010373
Ni 5.902229603406274 0.7957563731780473 7.550778010425035 -0.44956921482538065 0.4810282046656103 3.1617272093044777
Ni 4.398533996048007 8.501985641476601 2.5197127305111344 1.1463165742673032 -0.25224116096174626 1.8123659904047367
Ni 8.563317441065587 4.996225397374283 3.8291283283087956 -0.22274006617883574 -1.0924270233376994 -0.36934282577346067
Ni 2.5788673310860606 7.950177981132863 10.237299704671985 2.029446287194634 1.827070643604763 -0.48783957116048887
Ni 8.301856230162642 0.05392537635686685 8.69834888375804 -0.2880260318708394 0.34686804170971225 0.6209049583903113
Ni 3.5306707084366837 2.906753314670871 12.428167055744465 -2.994792680131036 1.610592756285555 -0.3842850489055898
P 3.0446394533515475 3.7331492770813073 9.928395851981874 1.2752422282971394 2.861204587628524 -0.08243856621189029
P 0.5040652660811809 7.724574307725178 9.821906670856995 -1.7487679539381173 0.8817071215481913 -1.3433646349966735
P 4.959014745256559 1.2587536708045532 1.3084966074499054 1.8966791479315208 0.2240965802067302 1.0927597240867697
P 2.5817708895467617 -0.2886616338032416 5.02585202996569 -0.796733447619273 0.032704432211556576 1.2234319284940673
P 6.208174457522679 8.6067862483122 9.287895286787435 0.3189710581891281 -0.5296043138021008 -0.038021987769728066
P 9.01771964185066 4.29890153533987 10.332620991846888 -0.3189746577335539 0.10263869530884903 -0.33164145456794497
P 2.953445165775156 3.381198525801171 3.5990011175451846 1.8773318537531605 -1.5907525816311763 1.9491671905279075
P 7.961529109354633 1.5301283256429021 12.169460936558924 1.049973739269495 -0.8323362844245472 -1.0924213669107443
Ni 7.091645546438937 6.728287287161095 3.726503980824324 -0.650066667555932 1.0517562850912145 -0.03364314197574206
Ni 4.524232706497197 3.357763332270463 1.561368359489009 -1.0698391107348544 -1.7960677674653456 0.4708214393359376
Ni 3.9980684475749904 5.837618380183681 10.908579868875721 -0.2743318222131985 -0.26043243852328696 -0.7469358073708555
Ni 2.091370201826589 4.962031063269133 2.6303965669656493 1.6362641929097306 1.9256863337971482 -1.49689677472128
Ni 1.5681188979944063 6.713045954399744 13.948895933075912 1.6578306062265966 -0.35355239570842334 0.5065345764668309
Ni 0.6539076759120064 1.6107138187140129 6.115550942626313 0.4398170205346232 -1.7799502930781925 0.6146132118443285
Ni 1.8615098553357414 2.076974565704278 10.083707100078488 0.48834762114515895 -1.3735437296832151 0.2823672909231653
Ni 9.609650909402145 5.242670794619621 1.459060678412711 -1.0503822875618232 -0.0931541528571815 -0.21587573495883464
Ni 1.6989575646830892 2.8472914443170945 1.9950115267744657 -1.9386313239935904 -0.42749475152384436 -1.3192767408095343
Ni 3.00214789555449 1.6189452660006607 0.5579079521000083 -0.8665679519139076 -0.6487284083604827 0.0013881385967782545
Ni 4.409368309657032 8.929137617225967 0.30773209301357496 0.8359098607084186 -0.11364173128757202 -0.36543680585083516
Ni 5.827545193549792 0.9607489684657934 5.3995052363294365 0.5403276137568759 -0.13053593593974938 -2.4567440922163235
Ni 5.959755768119583 8.156471581282487 6.549138669798765 0.2798584084583825 -1.523485580953402 -0.3670458022091679
Ni 3.49363859227609 4.541785610071921 5.443101837734838 -1.4445835671398604 -1.598765167523008 0.32485965575942116
Ni 7.047105523449541 5.794271729118262 5.990687592523907 0.1461646436159418 0.6924587593688978 -0.8133589719910959
Ni 8.23190772148478 7.508433040045411 7.439708912168291 -1.3334476329932776 -0.5773746392078443 -0.3584179513308408
Ni 8.083854429876988 8.06009975094931 11.22986190137257 0.11444648657705453 -0.9747090650982244 -3.5028040982537094
Ni 1.0387221985852053 2.396319013234793 12.221502288736596 -0.14603017492060658 3.038139422547787 1.1562204636445765
Ni 3.225308445338283 2.1193345706908175 5.627501291562669 0.009333875806416184 0.7877803521910433 -1.406948530395906
Ni 4.862173083457251 2.39701436380467 10.619961459567364 -0.8976780430551508 0.7226653648592651 -1.1032030309072804
Ni 4.7423284730760775 5.722725793455548 6.90859920723357 2.3930259852320725 -0.05725409652646268 -0.1437488350855976
Ni 0.4749122236076359 0.44516249517210227 11.765839999959358 -1.8104245504076497 -2.404602634326078 -0.8883667929565539
Ni 6.863711508959234 3.4678824313026864 5.046316948967506 0.7763386860130048 1.5841841843850395 1.082813411507335
Ni 8.63248602950967 8.776780669388398 3.4664090398248932 -0.460237236062188 -0.6230464302133464 -0.5135063797989736
P 3.7625325369732576 9.781045428247419 9.52373001020163 -0.18862409833173321 -1.1912532868789936 0.6416532466812562
P 9.061075689545401 7.54912984164184 1.0990175499599018 -0.6848416091432721 0.14507680986840177 -0.24388481857725097
P 5.7180838585701546 8.282762279379003 4.3464719712858235 0.13355826770584095 0.5457534127581376 -0.053902663555726524
P 0.9799838686892732 1.4635532068918735 8.28365683849052 -0.12000006940543205 -1.3509483608812023 -0.23879789097264684
P 6.1857728932174645 6.9138613196542575 13.067402834632075 -0.4884250113503137 1.8592701111554433 -1.3765251809090422
P 0.2404465890857537 6.751421788553477 3.2145107785836173 -0.545530498114054 0.669679556690853 1.220146829984892
P 8.69921149432986 1.8211419357656047 2.013412945977026 -0.8328646461241915 0.29670710458460514 1.5448717599386619
P 2.7782356154248844 6.40402840249483 6.94562192676484 -1.291787277140014 -0.6095885049362275 0.881423014648869
