# total energy = -340886.36187350104 ev
CRYSTAL
PRIMVEC
9.08924610139096 0.00000000000000 0.00000000000000
0.00000000000000 9.08924610139096 0.00000000000000
0.00000000000000 0.00000000000000 13.30303042446422
PRIMCOORD
 96 1
Ni 6.690439579454993 2.147525278912039 11.50265188300577 -0.8970676631646615 0.5365840875540436 0.07030115951840796
Ni 4.854729979226991 0.5286569153422681 6.363983851984841 0.07771982057998228 0.07047342343021411 -1.2412296187971203
Ni 2.7992333176610695 1.799861613382264 4.764174728683028 1.446999889890837 -0.290572452441777 -1.2067205292766572
Ni 4.201413143908058 4.614083097957284 4.9447235143584125 -0.9132578997712788 1.504035185538274 -0.3011993360280038
Ni 3.659857679343482 3.0794002412242008 2.998649560510485 -0.30177114937107385 -1.0915039973027976 -0.8666975355132363
Ni 5.008529113460438 4.778062187887288 2.516028768032054 1.2790981117081197 1.8396942459060446 -0.30014621217314114
Ni 5.166772889064971 3.3174748658312967 0.6753000860758037 -0.3886070733197114 -0.0584368039806542 -1.6924104010839947
Ni 5.590695329857355 8.307761862253349 12.409519602364412 0.07008698662507284 -0.3360717224251567 0.5473436400633929
Ni 2.421811460211177 5.616145219098751 11.551712906990868 -3.0536668287594244 -1.0393638249641326 -1.7723128311375926
Ni 0.9531983337979881 0.13477897772396646 0.22927896110034604 -0.8089788406455294 0.2316833914150526 -0.004191412373528265
Ni 8.141201426414574 9.034474360295233 7.3783128197406604 0.062014751139899654 -0.28896114209059914 -1.1941316368680532
Ni 8.469223230997686 2.69854264872672 1.5353291021348907 0.9069512408269605 -0.38288534034458577 -0.5441025074182758
Ni 0.6186577218706153 0.21162400936374381 4.772981299285167 0.7211656403852871 1.514140392293076 0.24331866166113575
Ni 1.7263387012131044 6.864553178850767 0.5110546812333803 1.583435479144473 -0.47452434210882144 -0.5089411290257944
Ni 7.925322740924438 4.2968047823325035 3.4487444856137977 0.16428320759352352 -0.24620009697398887 1.5005228015096415
Ni 7.908680331209798 3.953694829127706 12.631892554234183 -1.5887913441397474 0.23054850647966102 0.054791236808266926
Ni 8.344836897330367 7.684775841362464 9.220463059795966 -0.18147206066798424 -1.1964443441616297 0.47177994659446487
Ni 6.583259188764088 1.276121071286664 0.5115000542951047 0.7429919922317592 0.24426611317606964 -0.3559388936627289
Ni 1.750243418607701 6.820379442524631 9.373701387541487 -0.43213096474427515 0.4279164124422953 -1.1242755353068636
Ni 0.4486497349642474 5.033560897378582 1.5650882029796238 -0.44732309910368123 -0.12633809580831787 -0.4015073263211473
Ni 6.8101722190895995 2.419175578825461 7.278393827805095 0.4879820102756241 -0.3800782099130938 0.1873488311637354
Ni 3.0350265414825968 4.667527865364214 0.3792015318475585 0.3132642376123379 -1.192197653070134 1.2674548710422364
Ni 6.193884972616896 6.280959950807099 4.722775030284204 0.8531527069492663 -1.2691661973063884 -0.5708232112425718
Ni 5.370244753549926 3.355431557785606 9.647623998994318 -0.44539580017398134 -0.5647134988004081 -1.2655468553862461
P 0.27872173342406675 5.532824099571654 12.520107551439818 0.732534287233545 2.8109971135361977 0.6253087438849618
P 3.8783177107423876 6.318998445976828 12.661491684346542 3.10027218732279 2.397880485110896 0.9488543088186498
P 2.7143397585487006 8.513242450139142 1.5466233994103757 -1.998116880953733 0.7446979191792723 -0.33356361129132234
P 6.671615750662517 8.22025060024758 5.989330578914567 -1.2424357232900796 -0.5443009965823272 -0.4237535393138573
P 4.74807676481323 1.5232122280821394 12.469714952892623 -0.3523097815505739 -0.10008867519348569 1.0195568175405345
P 4.353694374033179 6.441648733628038 7.917804116502838 -0.9090670016183827 -0.8964811945335722 0.9914212356465829
P 4.951921288390649 1.2364556010547176 3.7347594301547558 -0.06761795625929 1.1466911839979026 -0.4046116762780838
P 0.40190101520165156 5.889186173674291 3.8181296316111033 0.907971968781991 0.8258067108361454 -1.7740799503403446
Ni 0.9052652852610517 7.886457124354365 2.7762629747714787 0.025828788137645838 -1.143055129907212 -0.07858345413185822
Ni 2.2487885703543196 6.995801893367105 4.881546891090496 -0.8711401446656224 -0.9843584152625305 -2.6085769898616364
Ni 6.216371767610902 6.100165755485459 9.398564111481098 0.057098801895521016 -0.9131807666764402 -0.4199040836607801
Ni 8.7970087151807 2.791698332596385 10.217498827812257 -1.0335135368309425 -0.7372969987295109 -0.15725998219815496
Ni 2.384054731672336 5.756428644295784 6.9245467481142775 1.661638667118777 -1.2082719329241773 0.8455381278268018
Ni 0.5401448135609108 0.6369107460043903 9.595249944784758 -2.272174366459622 -0.4870852094929675 -0.7413246318316652
Ni 1.8056696416769966 1.4568789096236743 11.411938479578664 -0.7000640825199814 -0.1659860492172432 1.1901757375440987
Ni 4.338069959888194 6.975142036850787 1.558117660101329 0.4485680272543759 0.8134337910930893 -1.7291458088318155
Ni 5.604183771155295 8.213979020398806 8.088907357571202 0.8578830225453999 -0.21192034985551247 0.2682516774573896
Ni 6.850501204291053 1.0303024089532582 4.8938128287802325 1.0436061451802543 -0.7953486514566044 -0.5924567303519473
Ni 1.285137603475044 7.743265140386885 6.686169451610132 -2.5440358727554573 1.245021738849701 2.586876622070067
Ni 5.541140759805896 4.806347921929867 7.031090891574148 -1.2405469909077989 -0.0660729803696733 1.2789191629280943
Ni 0.8398245307752666 7.660516643367719 11.513333565090228 -0.013256607899590073 0.11764776712317157 -0.218075827933947
Ni 4.635679146827838 0.5190932105351981 10.51507438454112 -0.712949680233398 0.7722200358589411 -1.1639823669781826
Ni 8.443146183771413 7.457381080990597 5.008324605421891 0.15750886498416744 -0.3355762708459769 -0.4846745431689459
Ni 7.385839624483803 6.195930053002366 6.774328776866942 0.5679150364568413 0.6967825835552324 0.8826836265288477
Ni 2.5596771459302783 5.760409734112832 2.7073001373996077 -0.7064319337195382 -0.6176465993540138 0.29213156939878077
Ni 3.3092672765509468 4.8100745128545 9.43291328163544 -0.08617849287029675 -0.24883110683893273 -0.48521524616376427
Ni 1.2994077199425407 3.6436969996751962 3.61460595842305 -0.05676841513929577 -0.2747051463922172 0.8252750067023916
Ni 1.6273931675410227 1.090318701332163 2.6814784979903648 -0.09509379308205558 1.283727125839699 -0.614338360916387
Ni 1.0205223800876364 3.8664744229989814 7.957633193165622 0.4671974694301051 -0.7090009799982951 0.24459032928470778
Ni 5.207974441897558 2.631391298114067 5.446220853257032 -0.07158002623083155 0.9125706438962671 -0.3794076662086304
Ni 4.338633493149968 7.256245152768155 5.775404263499092 0.7467095502926624 0.4519798811494022 1.5731307547843552
Ni 8.580139301859383 7.372705663786013 0.5679279122909726 -1.245315873051352 -0.2907058926958477 -0.5940742113507124
P 0.22672488293004886 5.998329841535247 7.711727274069102 0.5830403221340539 0.2723415312560471 1.3705512227137944
P 9.014123538148276 1.773111961940326 7.935657213805676 -1.1517667987485969 2.286126971984973 0.11229293056916145
P 1.6139683509661866 3.5536861949760756 10.370856224682441 2.1554290565460623 1.0666249746729308 -0.5066297072837985
P 4.341314820766472 6.577223929315414 3.6239451588500255 -0.16208799971441762 -0.763970137145323 1.5422096397254665
P 7.084376597173319 4.198513674383771 10.592697455651992 -0.41795647301610594 0.9208639942533109 -0.8094622080398511
P 6.14855690202874 8.064660884521079 10.218310497494135 1.843472224891238 0.3377020589397281 1.2094322717808654
P 2.7583589776901567 -0.091935907035309 5.884941495718673 0.22882561025128334 -0.06523968583510055 -0.38946093667957443
P 7.21098979614926 4.473054354575323 1.3208965157084358 -1.715852434157019 0.8249965562300243 1.2442411519299346
Ni 2.6773647051794165 1.7252479916741876 0.39978140299768966 1.0639505131645612 0.360020005710638 -0.5930799657582431
Ni 1.6319468798660008 1.657196805691928 6.635724135435224 -0.6779374258242712 0.25630761772163596 2.3802357754459393
Ni 7.074142105999815 1.0426819622199655 9.435413733253407 -0.6846436341998532 -0.5420088581140406 -0.9742426669847672
Ni 2.747815452147293 2.0728934787116473 9.302144479316224 0.5796948027005887 0.36318503370218097 -0.6638315825505082
Ni 6.22462480312204 2.8050049889711715 2.6974292160724094 0.09681797486201389 -1.740485402214351 0.7875435535898888
Ni 4.040315345010026 6.9522007795489005 10.258684928926376 0.47918060993391026 1.2283273089131554 -0.05288707780701859
Ni 7.684739484377833 6.747292814171038 11.571521101142217 -1.141935157370156 -0.8185142909397902 -0.13009961973327916
Ni 7.774750289076954 4.445795705348557 8.372953571394415 -0.49959516903452017 -0.5993184904687872 0.0695146590613706
Ni 3.0519961640589126 8.48539299991213 12.230274214588036 0.47019126195110633 -0.07708475809914465 0.3662670150616143
Ni 0.008622967829754188 5.245285797374676 10.302571445073932 0.5000253145934034 0.0796445484065209 -0.26834192317835076
Ni 8.540455653135119 2.588871804588622 5.635389879988325 1.1302330384418795 0.1716476183783947 0.24762937322134768
Ni 3.5888161313753586 3.1896982433471766 11.527142856777534 -0.7376836926449684 -0.855519664519546 0.3777454480148591
Ni 1.0777210061576723 3.4921792662273177 12.501961780410703 1.092131346474151 -0.3883671893947634 1.0146264701184526
Ni 3.3021049505787254 9.130693120120021 8.17358186585117 -0.05804831029298389 -0.7737097330305901 -0.4881367906859335
Ni 5.839949727238349 8.288519928137623 3.2973294606475005 1.2068850798789794 0.057000328644443765 -0.2298774485545654
Ni 3.5488688945125255 8.68449293699526 3.6731925123813576 -1.2566580375370486 0.2575170646487049 -0.08505594923007932
Ni 3.7304902112345113 3.4116030990398283 7.478179094048512 -0.5406811404415528 -0.20167527508873656 -0.30591011124011186
Ni 5.101666618837786 4.853275699841769 11.517763663667465 0.7865858176623098 0.6242887872608797 -0.6177075344989362
Ni 8.177331179891198 0.31572132775797673 2.050223080945259 0.3326603827507626 -0.3471328653353248 0.9933449350318568
Ni 4.534506747847136 0.4198486406645298 1.2036034297425395 0.5959590870782511 -0.04877896917591599 0.673294527735621
Ni 6.08509578535609 5.9375773202175735 0.03525173229779555 0.48756472023254743 0.44981141274317377 1.4554539341954613
Ni 7.8578987129270566 9.140691290893429 11.554453314707398 0.6860058046547025 -0.40162559706656636 -0.07079738242853614
Ni 0.46974405744690106 4.819145580519826 5.621527870673305 -0.6070572538739416 0.5903841640936348 1.298995621962995
Ni 7.616579227441682 6.589658018059066 2.673816263479473 -0.22762696195749185 -0.18732851944876125 -0.5972258696058166
P 8.739882803079924 1.9270383456199793 3.6013829231129133 -0.4048389617975415 -0.8599054522920675 -0.20761683738415213
P 1.826029553070113 3.2245282346232575 1.5997954894325765 0.36272609178789145 0.23634454433614782 -0.006338283513201987
P 5.000975949903438 1.7215214007495545 8.180019778904628 -0.923197527482494 -0.7667183893144214 1.2383942062308542
P 8.594273079634513 1.7363096042480368 12.718721213853515 0.358782276648795 -0.09663208410345293 0.11623160350193532
P 6.5892126449973425 8.12322289751476 1.1800222895111554 -0.48224742178469204 -0.10676145922797098 -0.3920091570227249
P 2.390671702875098 3.7183560676140606 5.785620576180281 -0.7114815803283037 -0.3566590596582051 0.033805378585219197
P 6.970679216987385 4.082607607381531 5.753481001766862 0.8753593249532926 0.563735708268171 -1.5747145543317074
P 2.2952891536968116 8.934910757884433 10.084135954639653 2.6789563109161474 -2.100861762823143 1.069244671683965
