# total energy = -381161.4914009057 ev
CRYSTAL
PRIMVEC
9.29535367698987 0.00000000000000 0.00000000000000
0.00000000000000 9.29535367698987 0.00000000000000
0.00000000000000 0.00000000000000 13.60468969502339
PRIMCOORD
 96 1
Ni 7.218864715387758 5.126601414384056 5.129226422297457 -1.7801364409470697 0.09123868100202352 -0.44776712861963525
Ni 4.091247726614455 5.350647327049346 3.2982118284767528 0.08099386334556374 0.9789081907812367 1.340583986927743
Ni 8.4327914450282 4.050868709702949 11.3540794654809 1.005143470328682 -0.8021353353611347 0.5609118656661307
Ni 3.161461371962711 5.634508841424015 8.010441242978704 -0.08798983504742265 0.35583373554343234 -1.0113786526051163
Ni 4.733240632233712 5.958396149265752 11.93297272089289 0.5964134010068503 -0.3434153072744215 0.6025007448515107
Ni 6.87939839457556 8.645998975161534 1.7660382116810152 -0.18497030362922984 -0.3583752710183635 -1.171305640112473
Ni 6.347973722419093 3.9597556517456343 12.801237776412774 0.9429667396896211 -0.016564846337216634 0.4778752608589254
Ni 0.3498799056754482 6.814823571720074 0.435078330009193 -0.2571285709610346 1.2301630765703138 -0.1472391076270432
Ni 5.343378360376972 7.82490319250478 8.034943795598117 -0.9596495996619407 -0.8102091135082046 -0.28964145598707536
Ni 8.734983397098423 9.117719589854236 11.328530256023498 -2.463963492782898 2.6931007207373296 5.449626442698524
Ni 5.181936655561357 2.2801038106141305 13.59187454373444 -1.2222903586904563 -2.083510416028889 1.130616389923227
Ni 1.647620051933288 5.22304071006934 12.043170999274398 0.6562581410786247 -1.3628834217558914 1.0974964674408068
Ni 9.101517788179107 6.510967751319473 11.57578201945296 0.5871618005015952 1.0135034122576028 1.2227582994658102
Ni 3.223526449291929 3.2462628846891537 3.185769651687683 0.14169323810814954 -2.007512206125704 0.5157578948373118
Ni 5.362164270408774 1.9222326892759702 10.187124017667626 -0.29440673858620264 0.9513565064152132 1.3062044810066085
Ni 3.1088961462181057 1.404128259116324 9.234959098739996 0.26474572118666023 1.63049360897454 0.4162099226386445
Ni 6.70318637257017 5.937249219368497 0.3555984073338179 0.14745148074816541 0.9689528793407377 0.4435497481041781
Ni 2.611957236663317 8.610565086472157 8.502156163697336 0.5322582064851801 -1.4476796895666808 0.3704710258406329
Ni 1.0003566807088695 3.298976836094574 4.2668657755119614 -3.0435418245102808 1.4758579517731099 -3.114108836095566
Ni 8.947596024588494 4.731084110151882 0.10678130632426625 -0.16242044335317188 -0.7532393809913802 0.12925269835195158
Ni 3.7174815502765997 4.558283482991456 9.885535334059087 -0.24703030618476815 -1.6624295384511885 1.4370535773114024
Ni 2.606138345183896 3.8920389993054134 5.59310547652364 2.03649625206288 2.3467993501643645 2.337394254800381
Ni 3.5357480881134213 3.498427242602442 12.537578783989177 0.0041081086311026025 1.0929229891375114 -0.6274820973871967
Ni 7.822040223534075 2.7708799005988625 3.844603879323575 0.820516923192116 0.13654794646178417 -0.831670111595458
P 1.0475770780179046 5.139270981614807 7.005776165783075 -0.1212172296419848 -2.062141977655442 -0.1192757896448978
Ni 8.428998940677396 3.420364861381718 8.989271743355237 -0.29227580828612887 1.8364973362353016 -0.4769617479057205
P 5.894202435916108 4.0957652685617365 3.584019789937349 1.1585678808308306 0.9479942748111996 -1.4669264536114348
Ni 4.65978874649828 7.538197299867008 1.0181396220655454 0.8692840652934901 -0.3436734460318146 1.6362395103193819
P 3.2806649891066217 1.7788797429570842 7.114450006141223 -2.2445728026922698 0.25914842960454076 1.529367493655476
P 0.573311395454493 4.14672239809877 2.2836695083321907 -1.192581518772114 -0.2631220695403081 -0.24994310895618893
P 5.997464521291318 7.017248491444259 5.563066611180357 0.24666546664618164 0.8634384051459904 -0.14229590468915493
Ni 0.9432739130169826 0.6802312025503939 13.27432759672036 -1.2256693024650183 -0.9851189475776388 -0.6804486222818991
Ni 8.844445483458895 8.162287354065555 7.711179186426553 2.7977173657081558 2.8439846242058118 0.17192478329918132
Ni 1.0909584942071304 3.0089989789188536 12.885777160162029 -1.2638627828156042 0.16308404507909977 -2.1532533890509824
Ni 2.358835457308526 5.986291506022527 4.675618734021367 -0.07310031953009992 0.9111562800472437 0.18486385995835258
Ni 2.318019558768374 2.31967413174495 0.9092464113576941 1.4155272732038524 -0.1757852946958521 1.8736490055849346
Ni 2.4543916943827147 6.743091326437825 1.6422222399810524 0.9320758038087303 2.151428162916785 -0.33870478917262953
Ni 6.997263480772128 2.3760597479017624 5.896381266847059 -1.1909920627978068 -0.7784937846827948 1.5482846422749528
Ni 7.599974221228395 4.405663068932982 2.0892859991812434 0.10473208750276801 1.4467070412407663 0.6020022079485374
Ni 6.110570386341779 0.2775713484575378 12.155776774290366 0.7184865508912271 1.2221291505222436 -0.37730836047744054
Ni 8.891080273478469 1.1625791952437672 5.3782740480812725 1.0316219762351846 -0.5964339698321406 0.2014364196050531
Ni 8.495209745801855 7.856498100074349 4.960065855685499 0.019689508009127377 -0.4810174060323328 0.3611286653937845
Ni 2.1490857987891596 7.435604479965469 12.831399340426229 -0.24851717514293975 1.0760699221359145 1.3865784513799864
Ni 5.6286155871141865 5.436778075369331 8.536684684926497 -1.4450828753737823 0.2296545339104819 0.45037731254897273
Ni 8.215233689316001 1.2865420335337858 7.7678427336620155 -0.341688811501618 0.2467580263599879 -0.021135496427034568
Ni 7.775572749882921 1.5100302249710167 10.039947892330392 -1.9945759576800102 -0.005354836554010133 1.7199685132079217
Ni 2.5168564719253754 4.677180353459934 1.5510571280424514 -0.844874526100874 -2.978669549316928 -0.9505862039080918
Ni 7.178792445151684 4.484738643718013 7.420446546522192 0.1450349008868728 -1.3742147876083108 -1.5448090250215265
Ni 4.5791236662132775 9.041358258379091 10.261486848075556 -1.8765055011971232 -1.2023835924642003 0.1218461214752353
Ni 1.1849809979041561 0.8807775312713985 3.3276530025706323 0.8965814675568624 1.306487559464666 0.6499085447115129
Ni 8.628653844968884 6.710009162260097 2.4903117300758852 -0.4348445070206962 0.10399315245421445 0.9635898152566115
Ni 3.7849751142255967 0.7272461725404272 3.837883338525459 -2.2451232758791013 -0.9922573583946331 0.7604747223975549
Ni 6.973820598486028 9.18707222456343 6.342384426178557 -0.23565086070323285 -1.4718300615606392 -0.604868730863055
Ni 5.752541243989001 1.6039504797762316 3.3269177400849737 1.2644999021789707 2.032110721400674 -2.0643623823455286
Ni 6.726610664148668 8.58219566667153 9.681260638928505 2.076492847060475 -0.7129856756776559 1.111977177555485
Ni 1.6427492865415685 7.0490014200284445 6.974675771035719 -0.9507569251580014 2.4334581251051897 -1.3919579705243446
P 4.046146669972046 1.3117789191034768 1.8769987090742069 0.8265502738703894 1.2893352160550957 -1.413746527154346
Ni 1.6997576914030474 3.2150769726868282 7.942104590439957 0.5097759662222638 0.7768271956136492 -0.007843150193502622
P 6.345203706986398 2.7473254740671513 8.497611665224031 1.3036269500874194 1.7235518596838058 0.3495741277869657
Ni 3.32228958342746 1.0884301579732607 12.56140091671036 -0.05361315733976573 -0.2073532993101203 -0.32489025188704046
P 2.274638142579148 3.0299971831552925 10.638581690609547 -0.17545156550551722 0.421793587374009 0.947368725412059
P 6.974378319714087 6.8978124904553235 11.25861525240934 -0.5075213658601324 0.6686089493344937 0.9927733787991031
P 8.144579705074667 1.830877952119829 12.806067642247768 0.02371251312559142 0.563363669640733 -0.3431620536130348
Ni 7.1485081824680545 2.367703224834671 1.2173120974947635 -2.0986544707591794 -0.6017661806783313 -0.7728183315645724
Ni 6.176939212480855 6.713392671043658 3.0385935263504495 0.10094613809777453 -0.6882678612160017 0.26851572975205373
Ni 3.802794307462097 7.759919374082051 6.224498890203627 0.2563965778910165 -0.06280407981041443 -0.6708419524300705
Ni 8.25675603474503 0.2709781540064948 3.3289720132749925 0.2146871139673722 1.043061585530694 0.04020536857429205
Ni 7.593895059842548 8.016517615758412 13.182495078378848 0.12943164713197708 -0.6992919802406472 -0.2720571672464089
Ni 4.560886182055733 3.4351816553404984 7.4080669943300315 0.0016105390202294843 -0.46079876499261285 1.4215295135338746
Ni 1.543084503087341 7.922076821140341 3.111065681795257 -2.1763732628978967 -0.27121204563729423 1.8012667951677817
Ni 5.0365480267600535 3.001014270003802 5.05132578023287 -2.18251022903357 0.8463151152021425 0.14225656681078727
Ni 6.273248373212925 8.962589430269492 4.02433512227802 -1.6484949306479675 -2.62198812106122 2.0021882228096293
Ni 3.94040272513197 7.6594180087857335 3.7042849364853327 0.18619954805064062 0.05130070715650519 -0.29798442863513197
Ni 2.4232615545031955 6.983469175731456 10.732563294749848 0.5616898814827358 0.22448481678408436 -2.7885711804325135
Ni 9.188029646004932 1.8998773633845865 1.5365136174854206 2.142723693164252 1.064627484626928 0.07083852007911672
Ni 0.6238418682520611 1.969899263567453 9.645602732212524 1.9527893606615272 -0.947995303252464 0.5674352686069454
Ni 5.811743352347514 0.8210446582108492 8.085443593728142 -1.2256600464936374 -0.10441738447582662 0.11795244284778394
Ni 4.273353002929674 8.215549731345234 12.584895852977743 0.08592883875333589 0.5617937540504518 -0.9339925612154689
Ni 0.9014503981248029 4.961943517153299 9.784044013582967 1.181551229099881 -0.472000033025071 -0.34612910666115876
Ni 8.943320161840038 3.3886305235051344 6.386708391243204 1.8346937073676595 0.5076717753950676 0.04098235594963264
Ni 0.05712366724861117 5.535550504858663 5.028660919059913 1.3316139222186485 0.15680309716639446 -0.09185266043693859
Ni 1.1299617987560893 0.8397004332894383 7.447003372331624 0.8485578884897321 -0.13091028856003262 -0.39717450327374826
Ni 4.662465808392965 1.0001707736328496 5.953520736197132 1.9245923294020206 -2.24647284792846 -0.6102881021064134
Ni 5.084800208340999 4.494907760776298 1.4844215252492858 0.5343783381519763 -0.9489700084609077 -1.5456993980462799
Ni 7.472218878587572 6.692840643789666 7.666759479217757 -2.8051319130046726 -0.601797291026583 -2.362607006620583
Ni 6.339663676121007 4.811972278928107 10.7435559801549 -0.4484795813056276 -0.46409209103190396 -1.465163191063425
Ni 2.0314530964376165 1.8705226360810563 5.363757494050264 0.7306224149228128 -4.646125337338115 0.9937018041506435
Ni 8.112798890429078 5.9651445761252715 9.627304828255271 -0.3947851771059653 -0.3699593763115371 -0.6799464858344999
P 4.501284373483778 6.607490705188965 9.921941516756052 -1.0699388695375123 1.8422152125556854 -1.1221345777044611
Ni 1.7177999731307712 0.1867408692557724 10.800028972637442 1.0754819108429283 -0.8661756015714954 0.4789420115605429
P 0.09087602643539024 9.027982244259466 1.6353241579253368 0.21837561856255291 -1.7156094649082776 -0.9829584495912104
Ni 4.7269197916490375 5.125876376787579 5.970853782429841 0.2511592407514771 2.672766380055352 -0.7121158714781929
P 0.06937401402293744 8.312230706229345 9.816083239064222 2.5755126032074998 -3.2175245187797556 -5.16554371174615
P 2.0345205631919434 8.698824470812568 5.025341548217579 0.5515630774613791 0.012439768425249544 0.8098571294854247
P 3.580988575062846 5.8357253651540715 0.08494280210421758 0.13842176644572934 -0.2639893026366099 -0.99107542227139
Ni 2.4679536155783612 9.23978617596885 1.353607081672557 0.7262574530858975 -0.7857815765934596 -0.6352416867279577
