# total energy = -340871.48380161286 ev
CRYSTAL
PRIMVEC
9.24646207897320 0.00000000000000 0.00000000000000

0.00000000000000 9.24646207897320 0.00000000000000

0.00000000000000 0.00000000000000 13.53313189928970

PRIMCOORD
 96 1
Ni 3.432277470342449 4.178661134316524 12.155391627375632 -0.0550419193664923 -0.7374450942716009 -0.02232026076375511
Ni 5.72569594809691 7.346425064498342 9.093628213607541 -0.548661587543868 -0.9443700477950512 1.077440834341512
Ni 5.751206936921435 8.82670966866501 11.42687582668699 0.6850236432470912 -0.17762414767680376 2.456206474545299
Ni 1.7577431912118007 2.4894804592822704 3.7921192604067437 -0.44789414111580284 -0.2178583126065022 -1.1456005220368852
Ni 8.976659543897819 5.471556938367999 5.268258675631754 -1.124033851609703 2.2453680449000557 0.9645447229707129
Ni 7.144695001727533 1.1625021960763204 5.565148702696726 0.0766849515575647 0.09131735675875886 -1.0169944561299968
Ni 2.1457247392643795 3.6972533336060986 0.7843098774070416 -0.999303466608137 -1.6742147040115747 0.5914133766890975
Ni 5.866417854193482 7.9548792539180715 4.822139072728475 -0.5831254256486925 0.8173765777909214 -0.6556994403616773
Ni 6.005789776829244 1.199894888648404 3.009836207483332 0.5007305681905442 0.3337546442562059 0.9011359196967642
Ni 4.800827826971764 5.607082332786652 4.705090883445034 0.01153268322994788 0.05984628273367113 0.28617252360186846
Ni 5.505093856260914 3.0744856209169362 4.848407346795743 -0.05129299384702134 -0.026457679970896368 0.26375867468304254
Ni 9.053765791019137 8.262139188183733 9.204383260812703 -0.44040940270298345 -1.5989068353071947 -0.7519679704781244
Ni 5.552324784465218 1.1044991395717012 0.5406933415028163 1.0864708057542645 -0.6920576672757373 -0.2353137890787883
Ni 1.0398478768456851 6.032724720811064 8.1573934166716 0.5159540700085179 0.3490411381016312 -0.5980432233007893
Ni 3.5625508743108187 4.278032862079181 2.4782413846479066 1.2537987137113826 0.2609397171770087 1.7830926953619164
Ni 1.6616169716323297 8.848013517252072 10.459148504619678 1.0007769658298697 0.37374455438558213 -0.10121173305433537
Ni 2.15376916125689 6.22120460344938 5.912016781844134 -0.11469948312812504 0.11476607470000234 -0.9748928989742566
Ni 7.385223219303599 4.756084197061697 3.344780973803909 -1.7678555666971876 -1.3804065182413192 0.33714978598068385
Ni 3.4357356471530225 9.101569999871183 12.22104058335796 -0.048054432305065634 -0.6796832048707843 0.6727854493096864
Ni 7.529625217300194 3.8374389449031714 10.678182396490238 -0.737141189877937 -1.1012657046752519 0.05846508611542834
Ni 1.8337953416582369 6.041249958830713 2.1347704556614744 0.5130422956783616 -1.1713046116712085 -0.04475107896344551
Ni 9.013543681056582 5.455754734706849 9.9670702866916 -2.299962592316484 -0.9022443222695946 -0.37619995790461014
Ni 5.077750119217395 3.4522868142410617 0.48236296024126046 -0.5152022794441579 1.212134244093061 -0.5720030904832859
Ni 1.515985194181707 7.916256781891961 12.70685339859394 0.09163488799917767 0.8176169759365016 0.000660773512450475
P 4.268351816301987 1.7888297966587208 6.345794207189249 0.43215127645924933 0.6342489837973851 1.0891907757885886
P 6.584266936249296 5.070149527403782 5.896818372155525 0.6867833062506753 -1.079064228877548 -0.38827565812222165
P 2.732107623746038 4.7157788689406015 7.471047030855421 0.09425432789989574 0.011599017691509056 -0.16897521375255414
P 2.3122812603575897 0.3516429521553758 2.9621864145476944 0.6514614910209298 -0.47257390325066995 -0.5543154433955356
P 0.3998993130021728 6.951619627445219 0.7557410835791567 -0.31288242879288697 1.4218431881195512 0.2103954285705538
P 0.24275384099399394 7.344307624686519 6.53636748883803 -1.0761216013094563 -0.17594007510616153 0.3281193003472994
P 5.2004414242962715 8.369333422849452 13.597414371536543 -0.9207166700421691 -1.6490867985956954 0.21181082086084166
P 7.031398102101979 4.42201876928306 12.928539175783412 0.4251522194335969 -2.5962107549867994 -0.24246762651475012
Ni 7.8558958775619505 6.531922714525616 7.912700592583548 1.0174515982720735 0.4214714281478999 -0.6284354624394015
Ni 8.197737579933348 8.544729561672364 4.065745188927857 -0.11594184017565838 0.6752871326856177 0.8726136438873552
Ni 3.058960811117596 1.3334600331102606 8.233259713230622 0.19789163967658824 -0.529748552689449 -0.30712932835919365
Ni 0.05460868028226227 3.7870549731362857 12.84188688123098 -0.7011066648518829 -2.0132053998557393 -1.0118311667615028
Ni 3.154097659256609 7.291242178922131 3.7261041445268246 0.14520253681298864 0.5123599248993563 0.027743745772171573
Ni 5.552555946016726 6.595196254404639 6.828060079578875 0.6666291999003034 0.9206698759646338 0.5653686158859038
Ni 4.934624132985129 8.35680446675767 2.4349623943282 0.3639273111848442 0.9500208183229251 -0.6982226584358685
Ni 8.446097550874535 0.5751946653886264 10.759340443286401 -0.17489517878141492 1.148881506781002 1.2285455955715485
Ni 3.7604806411748197 1.7722508901845009 1.7890803757805565 -1.1749509501745443 -0.2855688285795985 0.9861486743937339
Ni 4.331172279540052 6.4929118910929695 12.054420261676533 -0.8741645333142429 0.6097929076375498 0.10245640409471388
Ni 1.510927379434692 8.839784166018356 7.524935411743181 0.3378882068086052 -0.06860603120417216 0.08111959029015062
Ni 2.9223813200240634 7.908045923582364 1.157547017058175 0.38488822970722747 0.39327388266776137 -0.29305330988210176
Ni 7.149188782288867 2.116783313015462 12.37090631578602 -0.38578631604146457 0.001096575498288434 -1.0820955595047042
Ni 6.033871282106548 6.123922576112364 0.23400391394627812 -0.9645259539176356 0.2556843823153403 1.5385728143038275
Ni 1.556900788798787 5.504511329151112 13.152904577677972 0.7688014970956952 1.5486250563335073 -1.1606088225202593
Ni 7.924227232187989 3.47141774424394 5.379474196647522 -0.307797815181128 -1.1423779013345294 1.0018046357634358
Ni 9.210715238031636 1.6616816968667523 7.060031621164287 -2.946138409458442 -0.15952820940704138 1.3784151988429034
Ni 6.230802431068031 2.088683314814037 7.715563247518118 0.3196241183920947 0.5884098139760834 -0.9444757201349798
Ni 5.012710505084844 8.947024632994376 7.2539206841079125 -0.5456132876358475 1.3084135728427853 0.07599820990318525
Ni 3.4519816809930695 6.839284359873942 7.878678235432464 -0.0959977929535637 0.41964671623433536 1.1536110510461874
Ni 7.391039243939564 8.032863914935122 0.9624928998949447 0.17888810199089192 -1.2613770402792728 -0.9716764489194879
Ni 1.24045911770719 0.7964514067384963 1.0164922383274295 0.7711458289581559 0.9498488115214352 0.4626450741727323
Ni 6.7009387945268815 6.031439462584674 11.646640189060319 -0.7983247033657929 0.16853349822944524 -2.987179900780784
Ni 6.781641915389677 4.753208547360925 8.56329183425853 -0.9781921385508188 -0.7273514574810248 0.370601123660594
P 6.207464360827689 1.7296524394724362 10.084348712880344 0.7801529175527726 0.8970185550942809 1.2729876279350076
P 0.8839220131832674 1.1775646827726418 9.082693347574963 0.15501052404234594 -1.528172187795794 0.9662002562962649
P 5.730550340678597 3.3390176540016885 2.677124461750331 -0.6642972093330173 0.1809879219427141 -0.2267497015588611
P 3.8058992628152937 5.36616576380405 0.5529476776714075 -0.43036615953436846 0.6475117623445622 0.15579419628590588
P 1.2903622734469367 4.270016179472851 11.053645159559299 0.35119083745478225 -0.027874872033397155 0.32831239019471203
P 0.18871751671326775 1.12700502822661 4.925721639313418 -1.1869124934117945 0.5667778375286044 -0.3036999909626705
P 5.1830025968504385 5.119534881268149 10.166846572029055 0.6580327164805442 0.06014813024480608 -0.009072651725229535
P 8.364525262578066 3.290778861432806 8.32785656798531 -0.29624559156715435 0.6006338668461011 0.007607122923296576
Ni 1.0349657448778167 1.2783418727684728 12.313877836382563 -0.9029994552680642 -0.14324926974135976 0.007220943228471436
Ni 0.6610573120811013 8.329952740934392 2.510233218730536 0.2960568725951159 -0.6910086571859325 -0.5267637590295121
Ni 8.093576184823426 0.7772612993784315 1.7397384802878737 0.5925482616244891 -0.6150418147413149 1.6271406333419074
Ni 8.987514890356678 6.2593277665242315 3.2375173906727377 0.464042211630575 1.7486928777258077 -1.7304984662049683
Ni 1.4782133966651492 3.1528678798025815 8.405874516265778 -0.632059175234918 0.2702972471325087 1.4407089146758028
Ni 6.9284017612116635 0.1917669999007735 8.852603461018834 0.3191906303991019 -0.9629408688187028 -0.06210499686086079
Ni 1.3718883294331041 8.522047990238308 5.050916886318239 0.3778922580053685 0.30420289874101797 -0.6125087639068162
Ni 3.8167823486603334 0.9698521590487827 4.386399548134152 0.31896643020343773 -0.18026672750597342 -0.1407499003582737
Ni 3.1370564296793715 4.494307609670931 9.805403294735907 -1.0509952385554737 0.671694787348669 -0.67504390632656
Ni 4.420289680877772 0.2799837958338153 9.914020559912714 -1.6115378938076437 0.5657468251609289 -2.436824727584577
Ni 5.381098800031527 6.019169407430581 2.5087722777249994 -1.6392178762214156 -1.3469312693020095 -0.613998203968149
Ni 7.378667477702806 8.398376560181033 6.652224733808097 0.8766003964492451 0.004919805899120559 0.0022126913806026407
Ni 0.9093266676940982 4.012687140333117 6.352424845132731 0.4236486383048768 -0.18985488541504078 0.26236333699741266
Ni 8.8528586633717 6.817425723563258 12.081649243151872 -0.4140134292079579 -0.2113513647259199 0.11639975364868341
Ni 1.896282932262129 1.9414611458890334 6.178645912524176 3.14556551194295 -1.197641964014157 -1.4507218188271145
Ni 8.503518080269354 2.4367109003038134 3.2699021993929325 -0.5788607368350676 -0.6157169864314687 2.1710099417034545
Ni 4.535315668908614 2.8179980098246937 9.225251601036723 0.8232811162008143 0.33568091474464123 0.5187036077291969
Ni 4.658497036476689 1.8095511181359807 11.833289272210683 2.335658503056197 1.246517349558621 0.49836361062026424
Ni 2.679717169712055 1.7635592158477653 10.88415658534675 -0.874696751668629 1.9018938593632406 -2.4672223660398287
Ni 8.379458298805543 5.225055506300943 0.9013821074918394 -0.3771522945155505 0.41143486984750427 1.242380444572112
Ni 7.231343597695139 2.7320706378977966 1.075380181251225 0.5106920502786302 1.8661488405531474 0.7635824147886011
Ni 3.1583695247284944 3.9874258059842216 5.00959999524774 -0.3603033412790117 -0.32625370789347036 0.9495184247652099
Ni 4.837120190558665 4.295675111690342 7.1907618003584375 -0.438864941033999 -0.7817071494137698 -0.6040066399730758
Ni 1.564935964329237 6.446762798949728 10.584438065537514 2.3756134461825797 1.1346661345125684 0.7899393075155751
P 6.902252766504973 7.26402059461644 2.9492885246197025 1.0323048612348222 0.408169054612039 0.8523842042143579
P 3.5849920377313045 7.548626696834227 10.29070200668133 -0.45873751158821 0.22908297767772806 -0.523408469404034
P 3.83250133416294 7.834018748327146 5.801788782976413 -0.5413411426230548 -0.7719115034795867 -0.4534788342924319
P 8.388519831624693 0.5495486782180202 13.260993869871134 0.7425993847790308 0.03763426541300616 -1.3221499485922714
P 3.0059415976635098 2.0797050001534307 13.216091200813628 -0.18309905474844596 -0.6050713337921644 -0.014303046886233432
P 7.374802456561577 7.85511917474888 10.717401265319241 2.6324368271983696 -0.5256296454250688 -1.8696879640546575
P 0.07104888982557696 3.27405201156562 1.6243010246953469 1.3949327368819524 0.3253540788973364 -1.443341210092327
P 1.3430393678047903 4.722547279168782 3.9071776110547956 0.9633265342928957 0.15427416009695366 0.36926003625166726
