# total energy = -340890.88357024605 ev
CRYSTAL
PRIMVEC
9.08863804316405 0.00000000000000 0.00000000000000
0.00000000000000 9.08863804316405 0.00000000000000
0.00000000000000 0.00000000000000 13.30214046978599
PRIMCOORD
 96 1
Ni 6.507019559980089 1.8728320396063096 11.403007119503387 1.1429983085273476 0.34040017459718147 -0.0730157302360936
Ni 4.616301080527979 0.5504270114763024 5.952002786246606 0.050437587825261525 -1.7296682569941888 0.4895305857096667
Ni 2.971512060317494 1.741937473214429 4.725798266163269 -0.799208648632643 -0.7368938497538212 -0.686286826230231
Ni 3.402976978406769 4.502311381063531 5.062582296501717 0.09552085331714516 0.6144579172133869 -0.7100600173904287
Ni 4.932758371681907 4.733753551121109 2.627651616328669 -0.5711147743410616 -0.04305620775952585 0.6622341561564015
Ni 7.4355693634791065 6.029593398852087 2.522485166763767 -1.1151229222733183 0.5991405701300263 0.6756044068157203
Ni 5.137498122904647 4.378578661520478 11.707506489465692 0.5986384336826271 -0.12971806802414435 -0.02250023798504512
Ni 5.600746008545124 8.105629209836653 12.25466340894173 -0.546880070163413 0.1516171820900808 1.8130725295534582
Ni 1.849310644118031 6.522006724261453 0.3109977462274187 -1.1250172985688947 -1.6250798941581366 0.9776108121260519
Ni 2.904592417744003 1.5789872801273561 0.3662330356170878 -0.6014347654808416 0.11579400174388446 -0.4028054763072804
Ni 0.4638831814459756 -0.08981755748584362 4.786522184121474 1.150025390577458 0.5233411065012085 0.3680888987617016
Ni 8.480844546520613 2.1356209225847036 1.45909814565076 2.63067485020194 1.4674026219169052 0.09061056049972137
Ni 7.071905685862227 1.0072028779022495 5.077640352160518 -1.8064190287926827 -1.920367492687396 -1.4561293629959309
Ni 0.7952567455038315 7.472323816089076 2.4169460830354104 0.9117062390134428 -0.07687392763991922 0.6956050183073632
Ni 7.5834233286272195 3.982123177519629 3.9574802440857346 0.9202551570247184 -0.14226093768616144 0.4863987249489043
Ni 7.530654695626853 3.7687764859849113 13.00491776272987 0.6910261406874293 -0.2899998677677586 -0.7279464107525463
Ni 7.927137445542101 8.72869170840831 6.956487252483267 -0.8953915610138191 0.6235930467454357 0.40223571984673945
Ni 6.918943906083352 0.9195611403854529 0.4119297992861432 -0.3504804416513189 -2.3915303745231524 -1.3847113162642604
Ni 1.663657032974652 6.734953515718317 9.390965318477289 1.201995355886846 -0.7646810471694186 -0.7871491463649475
Ni 0.05818364360002365 4.678058376641909 1.6163161346673318 0.8487581774259964 -0.9280031764012533 -0.8733224970289217
Ni 6.3165762365406035 2.022394668723431 7.026509756115375 1.0844470904560162 0.5058329224141159 0.7531460499466255
Ni 3.7229515725181805 4.2995256870393925 0.5765704790659596 -0.7350220866524051 0.4227523517428526 -0.5781714240775269
Ni 5.833733247085316 5.529200249161921 4.799585283710076 0.18185206971522228 0.5031762015175593 0.40646441321610643
Ni 5.380591927048767 2.875472421165779 9.292542638407095 -0.17181936806956857 -0.0034074830196521963 0.2058576886012003
P 0.003405512708445884 5.294113535212998 12.620725578161917 0.797745176713239 1.2848913213511293 0.455568369831609
P 4.205585523296407 6.204804164780615 12.642846414513896 0.6222283051874251 -0.22129073532681887 0.16117525809216113
P 2.5042197307078187 8.584918541781926 1.1035878853030197 -0.3642836660829984 -0.20838225479526695 1.381473783163569
P 6.312295487979947 7.721943262412711 5.819726746858506 -0.2832934022818605 0.3319119346205123 -0.04333620089378988
P 4.8179870493380195 1.2683830719310973 12.564962238896719 -0.7508521117061262 -0.8145115975383004 -0.5215295072137662
P 3.9150672053741427 6.235978193576904 8.386520842248414 -0.13658805567110024 0.2729215721292332 -0.3571480834794817
P 4.942855848647702 0.9938880230373622 3.80662066630703 0.21950433285035748 0.0062030434869183495 -0.06801493458739254
P 0.24379453814417731 5.614033597495611 3.5979628031851423 -0.3624260440489694 -0.11077032327704794 0.04504701293730951
Ni 1.4347142384036573 0.9592057799217244 2.7095929600084303 0.256025824815159 0.39141086131709363 -0.9282559158420078
Ni 1.6991572535222628 6.415178871645832 4.882098302728405 2.340025521775641 1.96215666080904 -0.8732587336705218
Ni 5.674209470574395 5.534371684259614 9.47498159824282 1.2988896925127502 -0.1271050558813295 -0.3239546274466485
Ni 8.807008503200617 2.3395063418229385 10.074376374252255 -0.243413021147155 -0.4613371539945861 -0.2705918955547921
Ni 2.3633185737314735 5.311309238560689 7.073120836780612 0.07882282383617392 0.16954959819878543 1.2207957764228008
Ni 0.5931745120711899 8.915381424298852 8.945024017569725 -1.1441437349857004 1.130248207950531 -1.4072488352451442
Ni 1.4785032969285898 1.1772967405618833 11.58381012447517 -0.07793167948047224 0.5895092176878493 0.06194584557517719
Ni 4.020449964526611 6.828002992924266 1.512306668736764 0.45367552368427033 0.6847907013006787 0.15194114108840284
Ni 5.689832839525072 8.073982571857448 8.093421351096369 -0.15088801723354012 -0.20352158426885594 0.38842246811273107
Ni 5.094499775897288 3.0051400214097 4.943926490219773 1.8666895435479658 -0.5382154525098796 -0.5481450529187657
Ni 0.5148513552321877 7.324469850940963 6.711661153910991 1.1002331496456792 -0.5558403646804944 0.8978109690885893
Ni 5.104260973252161 4.642567244732431 7.160116372126151 0.11722687753566907 -0.004940117614094718 0.1272968601771614
Ni 8.315376800670691 6.962887471456546 9.412275448307803 -0.8068941902023588 0.6746942362966252 -0.7574629321544245
Ni 4.718130182170433 0.44458436723430234 10.321862717206068 -0.25101191654033544 0.494192252851394 -0.15392243318448975
Ni 7.974580136596511 7.360070046508037 4.473683079808304 -0.035921910707589745 -0.6366123418232391 0.5427246532341428
Ni 7.031597575742244 6.068892670139303 7.038374973198043 1.2132909834053234 0.20825292830625422 0.2262737903637071
Ni 2.3635003464941344 5.373993575764189 2.592321353314147 -0.8653795880327613 -0.7300413456083621 -0.07267480195690709
Ni 2.6467023107193115 5.5154764055810475 11.393655819728316 -1.2463044622168664 -1.1438272321865461 0.24068713757555968
Ni 1.0258164087986923 3.303229174896778 3.718812606712399 0.2914628254665303 0.5575619753572914 -0.9122119750052677
Ni 3.9865856988429464 2.3870399192586786 2.426682741067324 0.06573925117933839 0.16979745254353337 0.5241795432421037
Ni 0.9668129700390695 3.4211269887584272 7.905768239563724 -0.46926849302652085 0.3489974293478893 0.8592019984671395
Ni 3.773029968631169 2.7801053412359074 6.97291587477253 -0.7808638275768681 -0.5368057166465465 0.8792002959659375
Ni 4.2418764553615915 6.914235991530443 6.196642567737156 -0.45641297722009133 0.441618078299104 -0.41647423204362466
Ni 0.6529913839437187 7.25433283046838 11.511127376461525 0.010547436498543125 -0.7478431496764734 0.23492143873637605
P 0.2117979875968495 5.52424694137942 8.074931425678535 -0.05553685672503983 0.47304261535697245 -0.0815376516641757
P 8.544083290650228 1.5698077556129968 7.731975301183947 0.007632576844593306 0.41496807981174344 0.9703795844849352
P 1.5043059405882586 3.512049724641247 10.436753100709499 2.094049110776684 -0.3027440548073044 -0.044156897022872336
P 3.8393497610878797 6.29250043412621 3.863766387432262 0.6669870974603546 0.6224257659102119 -0.0038625682791998
P 7.073696147574433 3.786672014468845 10.512256053135822 -1.945629095467662 0.24074832983079827 0.10402092036835632
P 6.568222449167904 7.773557638370181 10.379620103677654 -1.2616860868792594 -0.06820313933879867 -1.0740981431215242
P 2.4338464056437767 8.54541023181765 5.92832506618244 -0.4626659001083387 0.12718758829280677 -0.5633680405161071
P 6.791693883582815 3.936598189111288 2.014383034209166 0.8296489674003712 0.7803228674717335 -1.9356778977922209
Ni 5.5745979966364 2.754866193140487 0.6353630614208962 -1.496914515333093 1.2070892254699856 -1.1413579447104472
Ni 1.582404608065375 1.3963601854822758 6.936734006364943 -0.016571274095119846 -2.258635451432923 -0.36080830593988833
Ni 7.305565483624263 0.4599178086285352 9.40595702707772 -0.37035095532300083 0.3716251940497342 -0.5300529713037452
Ni 2.611683787992751 1.9054238959513508 9.222214756533718 -0.09179455350549354 -1.1789999234329374 -0.3716460199853406
Ni 6.518344003093842 1.8638797310452764 2.5149824959849516 -1.0837050700836692 -0.8626249081057595 3.111344643086867
Ni 4.171185027962894 7.154066974584806 10.45127947103752 0.04224811003593369 0.014725222025316575 -1.011840165622567
Ni 8.399592121611336 7.049002317766994 0.5464907223008876 -0.6078524960817273 -0.24925353908833203 -1.014233091334776
Ni 7.530300238739666 3.936861759617146 8.281460729749668 0.46895918931621816 -0.06255931078946 0.13213824742986274
Ni 2.8653022350949193 7.971853545156603 12.26964148458496 0.7966763691290925 2.2273497539457643 -0.8104248290634365
Ni -0.22749133906115027 4.865702399536421 10.359441509294703 1.5588094530656766 0.16734050636260858 -0.17702353797832737
Ni 8.778033924832522 2.4968124906294005 5.519244554951002 0.6431750826424214 0.2985572704194665 2.3820149788335496
Ni 3.4556274591114047 2.7687445435696216 11.285615542785749 0.4184917766942857 -0.28067473371209084 1.0628174280013825
Ni 1.4636706394954868 3.5177573893887897 12.818926963111753 -0.8518956946137134 0.18798183676204402 0.14218174770879385
Ni 3.197301097456328 8.368099990480392 8.071738587102402 -0.48266419760713647 0.7570924361888832 0.30620450255207915
Ni 5.630538564345192 7.807512790435177 3.527275011241697 0.30348041875269666 0.19833155542748424 0.24606511405802137
Ni 3.3169984616683164 8.554389806293083 3.6551621472753584 -0.8860952233135578 -0.5765968805015553 0.15786290588947652
Ni 3.454482290706643 4.361046678561865 9.411583802945879 -0.7842481706680686 -0.18689605989703295 -0.6085199544623972
Ni 7.113077216604847 6.0299296784630085 11.53880864162329 0.21147709167050677 -0.36584046904715706 0.6959289773056854
Ni 0.47457596420948406 0.06405308610633363 0.3192129662358634 1.0405655585817175 -0.5570786079629697 0.948818827595024
Ni 4.695899373297044 0.172042466675355 1.2404255121700876 -0.015691185483011686 -0.44681427778806276 0.5587063733743798
Ni 6.066038837765532 5.557229609164182 0.5098935031306205 -0.22669339439962896 0.9072088653637215 -0.3358459795675958
Ni 7.993275465236152 8.712832034866175 11.81327188028356 -0.46824442263738064 0.40360251828727906 -0.5339093689353579
Ni 0.25331125113327174 4.99872370725143 5.91140474857018 -1.7435707260078939 -1.5953723397913748 -0.4251239372988227
Ni 7.978533694184379 8.843253992075136 2.4506004011782028 0.15669485372330433 0.09418285123201199 0.34490654710796725
P 8.514926939519473 1.5600647355343902 3.618673991762688 1.023300857963999 0.0417490589123281 -0.809302285423219
P 2.1181889146455544 3.2229946774584 1.7322980636105387 -1.0064123097387763 0.14351846424234638 -0.12589458051299607
P 4.715385413454258 1.0756494116820892 8.180576846473048 -0.45484409007107474 0.1678876371153302 0.3329115795296202
P 8.652310793538334 1.6445254497046264 12.528900340512486 -0.6812412933865235 0.9407599618462895 -0.7784238506768077
P 6.413442941762424 7.795124976659859 1.4033757052571605 -0.5036953072458229 -0.4809220181050491 -0.8596812520964033
P 1.8834839234982192 3.2055354036048516 5.8161749070761175 -0.8971797632624935 1.1680117998525499 0.6618942563184794
P 7.065234625472583 3.9466502228864178 6.107584820399233 -1.2345516925563125 0.8256735276923909 -0.41352466249699743
P 2.1743476096695393 8.842027025927177 10.191927002137223 2.2708836726726567 -1.071797777123122 0.7833194882062121
