# total energy = -340890.1763661076 ev
CRYSTAL
PRIMVEC
9.13471826329531 0.00000000000000 0.00000000000000

0.00000000000000 9.13471826329531 0.00000000000000

0.00000000000000 0.00000000000000 13.36958352980458

PRIMCOORD
 96 1
Ni 6.73263454704673 2.0665656029234256 11.459725236726142 -0.7148967766574398 0.43852684096828987 -0.24682950302787166
Ni 4.785870775351161 0.2935112893568273 5.884127915001257 0.3849571352719499 0.46095354540292227 -0.7575673189427727
Ni 2.9840384450784834 1.758241454281879 4.85016366355025 0.3298787062405673 -1.6872090593887137 0.2659194297797872
Ni 3.4617020025878933 4.586459873658128 4.741028442945706 -0.13860148655670324 0.042865689015274565 0.06752668209706435
Ni 3.7699439387642433 2.659016031283713 2.8000990158635757 1.0071396748231043 1.1329378389675522 -0.7365521501436864
Ni 5.120429835108713 4.892911405036868 2.3289147140834774 0.5596355700568684 -1.4464707568602442 0.008578485697630388
Ni 5.207849089767547 4.4151747697806165 11.390417388150071 0.35322046629030135 0.4636966553656982 0.23168647673884618
Ni 5.712999014807618 7.949744420687582 12.674566046327572 -1.5496912928144924 0.32105879395609227 -1.8553898022644304
Ni 2.1311480616943714 6.1802581281105065 0.1736793135583975 0.8463485395432391 0.8008541546558658 0.043004528585984
Ni 3.0150782180493 1.8513150996025531 0.25799185050464263 -0.3731254327443445 -1.5420152643264733 -0.13035621582877552
Ni 8.10761062330137 9.163310023606634 6.834023526486101 1.071467647477213 -0.9463317995071121 0.09874321690918479
Ni 8.9304112444236 2.5193553223517484 1.4361741218750015 0.5265297886418352 0.26742995288704263 -0.6413755675398373
Ni 7.269719447456423 0.558695817094319 4.5960348854380015 -0.1503470571284056 0.40997242636936493 0.20701365658251444
Ni 1.05346139430825 7.7896402120767805 1.8319403619712695 -0.7753076736453293 -0.6395691104587179 0.29611163709245136
Ni 8.215382030455489 4.031023324072929 3.8657351627955765 -0.34385290903247234 0.7989096293349854 -0.8743157141801265
Ni 7.697470903873266 4.152177093617349 12.691852587342868 0.8136160823072246 -0.8788971629032218 0.041906667536114925
Ni 8.035656446817814 7.535256575322424 8.90350127762115 0.21243945558377608 -0.2673721030659137 0.5947288142155757
Ni 6.930876204790303 0.8082654572755087 13.600877641963077 0.12918636389039043 -0.3414784952630248 0.2422087164264087
Ni 1.7177381130951215 6.869125508709455 9.073869255775804 0.33076650816215936 -0.42828202331183013 -0.002488313639492489
Ni 0.03824980616854052 5.1145014028962175 1.2049332940734303 -0.3941894525034953 -0.23256193736526398 0.7245340426368877
Ni 6.852920518347411 2.0568919361853166 6.731451601019737 -1.1713004979061505 0.5424122642000465 0.2977527722403001
Ni 3.6106344506503403 4.1661258085456705 0.2409355043918972 0.9902454701709268 1.3607056973782823 -0.5454009145147253
Ni 5.93558469696768 5.60492616194778 4.968819087624535 0.1906293016872201 1.9946700600557128 -2.718201372459699
Ni 5.5243762154920235 3.4726179910223034 8.803308946286304 0.43233588166622966 -1.395596081497564 0.3522524459500772
P 0.3680505911348921 5.751867241408803 12.467003321974397 -0.727035983123135 -0.6637009705099151 -0.9367688384090255
P 4.22121729494561 6.0620366031580915 12.595056544292467 -0.4323189123853652 0.6824108882145925 -0.2674803465090039
P 2.697180884571551 8.942058010326424 1.2891809745193539 0.59014273750679 -0.47908445067567823 -2.063926580359691
P 6.5151277682921345 7.904564103702985 5.509351430741464 -1.1322030176840565 -0.6910500519468292 1.534072612440629
P 4.824647654768795 1.0771842578765878 12.582235967081008 1.270278713644277 0.2567380203908352 -0.34424140272014264
P 4.02960744272788 6.392494174374178 8.203309586677316 -0.0158693629320888 1.0438406297885636 0.4038138629671368
P 5.102078185933207 1.1462701327966252 3.785771665258221 -0.5493429298816087 -0.1961206638190945 0.22655995414555818
P 0.38852058149695895 6.219793189151617 3.1504483497698486 -0.9670415212506377 -0.18800034870480525 1.2169488918728848
Ni 0.810940102809898 9.004786121271273 4.273160043928529 -1.0258351943500785 0.10945263290688892 0.17893463895811118
Ni 1.9238082244690633 6.778390351287701 4.630849124033168 0.4340898882428589 -0.6449931096877666 0.09094866056543047
Ni 5.874875358779319 6.057259145458345 9.474021074154383 -0.5603002002240608 -0.5203123469772136 -1.1243683521309862
Ni 8.889423763164022 2.55626871922493 10.117298902386423 -0.7408638901451627 -0.5685647542256982 -0.1662508728428556
Ni 2.412195941327425 5.403432544469771 7.012935206718332 0.05794032396020989 -0.055217268602092 -0.5043010591506217
Ni 0.6341778218066357 -0.027832573356321763 8.910065486231165 0.4344254172054066 0.2637206223562555 1.0057911312150098
Ni 1.38231125509383 1.3058262583061173 11.305306476819586 0.9197977577723255 -0.26148427682656905 0.07812785465167835
Ni 4.166582544463428 7.057291572107293 1.507714495617069 0.2505807425401878 0.5231274478285056 -1.3772299202855507
Ni 5.967419190435395 8.251975712186239 7.837530799997351 -0.9456972512469067 -0.18192277505215768 -0.27587422699965386
Ni 5.457637963189261 3.204550546171925 4.558800859950554 0.3489984577891538 -0.5826099194648547 0.17397832339410035
Ni 0.7790599357504071 7.311328089564154 6.717159420681262 0.4195004204644582 1.0679673476334381 1.2284319528118197
Ni 5.021290736800216 4.917291968326777 6.862955006460549 -0.7534047029246508 -1.1285957599487724 1.4912668301290124
Ni 1.0472315163900343 7.6499155601163285 11.476677447049637 -0.2143994075236243 -0.29285687760057955 -0.35565915763878103
Ni 4.744536174794085 0.1261303641043092 10.040022838989154 1.0214105829198215 1.3899825919655289 0.26271840634398624
Ni 8.345560901734803 7.017181023809807 5.02904885309925 0.550955011563735 0.15149634024150038 -1.4003109704747303
Ni 6.962354444242168 6.2039992611155546 7.077363288749075 1.4571596040326582 0.16578524606034672 -0.1792107754376333
Ni 2.3602285286049485 5.481159862953785 2.4666078046817415 0.14825160805195758 -0.5681677758975957 0.17792599518793875
Ni 2.4032987256495044 5.110253758861071 11.36439988333092 0.9279252719754665 0.9397952839401751 0.19410928981602052
Ni 1.4860177125799048 3.2473923752576015 3.8135001028252935 -1.05506195242568 1.0347695207252308 -1.5649091382055111
Ni 1.9397848468722292 1.2549367423495488 2.6034723763251932 -1.8503303854636521 0.49520603882788905 -0.7816269309951377
Ni 1.415662111808501 3.5977270936145063 8.218349900449079 -1.3093648810124612 -0.4811066233120295 -0.4526838491949623
Ni 3.809871792694626 2.884990693953538 6.771426955485566 -0.11891583520231779 0.033777353560761184 0.8031313807258168
Ni 4.098866877296665 7.015016095559637 6.112707799345971 -0.045814487230953355 0.7464418984535726 -1.2188260542909397
Ni 0.658446028060776 9.301335617953026 13.379209998997709 1.014689205035588 -0.5873860006972594 0.8338285526993574
P -0.02476239451715417 5.706796541044468 8.220662811136604 0.8809000522658637 1.4201665717480767 -0.16018358360285317
P 8.884545823562368 1.7827316341920494 8.047527013320337 -0.5357801035955095 0.13016004065756936 -0.9431989103050852
P 1.943055076043375 3.3384198436667214 10.334220145694454 -0.14485363811400215 -0.913626595964607 -0.025152330895911523
P 4.211096027008099 6.307376868740843 3.583703473995673 -0.9194948818199261 1.0356580939777713 0.9473525274621427
P 7.133438584315866 3.975429428163455 10.298416617101424 -0.6543388125687247 0.44228322268692866 0.1416544144504141
P 6.454655932781008 7.934617327091445 10.51257004074784 0.4741237642362931 0.4072061764781374 -0.7664221982302414
P 2.44578430071933 8.722943521141321 5.650374126180182 0.8847333099690247 -0.16625318683570078 0.9091225374466665
P 7.168534172236371 3.960384547032515 1.9419050150024608 -0.8543444132645222 1.2410840943581916 -1.8730831057791355
Ni 5.609520925280422 2.9686829835234674 0.3966102880722842 0.5991873642075617 -0.1877149562539025 0.36955005668826035
Ni 1.669552473771679 1.1339473977355208 7.034927954630203 -0.453009093744865 0.880128978427794 -1.05515425502917
Ni 6.984396519633156 0.9406841614955066 8.969653994477348 0.21453567599117246 0.42727852174798026 1.0973270317424777
Ni 2.955666009867372 1.7125039194776177 9.140062165392765 0.2376370378953262 0.07428688363903335 -0.45604762346087263
Ni 6.805602677267707 1.8934170165014625 2.645011594573425 -0.36973337634366 0.8177213627248497 -0.7414729844840714
Ni 3.793959113319946 7.167849068359734 10.480577516652582 0.4577916027351729 -2.172221445513052 0.1934279474782798
Ni 8.23366973660251 7.347200128544848 -0.08565351360078187 -0.06494863695724297 0.502212037832077 0.397559911637625
Ni 7.789028185946984 4.061423666758884 8.103839811564363 0.3472503647497955 -1.2115937982085585 -0.1344483836202781
Ni 3.1422334975530575 8.607033079932759 12.302463294130332 0.3675343118098122 0.5536217597626207 1.5009727445628664
Ni 0.19407165881444552 4.891961394327931 10.33690757983454 0.9908046851085065 -0.07631625536423632 -0.7987432789604503
Ni 8.859717659073057 2.4969752623816186 5.593298578953503 1.0884487554162414 -0.3046037337238625 0.32305448422988237
Ni 3.7694415292547103 2.5475998715058874 11.308461608539456 0.27742794464001896 0.012874541969822987 0.24196574717766714
Ni 1.2565992610901868 3.3721817627073745 12.786789715207993 -1.0639433140757095 0.29605481571258685 -0.14948959422411673
Ni 3.451343231973148 8.744254819063897 7.853374055512532 -0.30997065446273064 -0.689308129555058 0.48980440819634347
Ni 5.726774170087192 8.171252206081734 3.1811455708023466 -0.5538621579082009 0.17139307916542743 2.1894959163227843
Ni 3.246287074336628 8.533480327737053 3.3419275755151006 0.686462689686463 -0.34847575251646434 1.5014543121849755
Ni 3.545376022721113 4.528828935555455 9.149742226433721 -0.6169817120765052 0.04961149237954036 0.6468648727891827
Ni 7.565857881812192 6.039291154453754 11.131408843492501 -0.8018681977426771 1.340896118851523 1.2559846656191078
Ni 8.040707946068215 8.90003830589271 2.343072614062132 0.8549285679027663 -0.09412757251404434 -0.0967423844290721
Ni 4.770862433093642 0.5956631088057956 1.518704475270156 0.14252884663556745 -0.06687490744567837 -0.2385677772397117
Ni 6.154169372488184 5.723613557536308 0.2804148436510416 0.017459590237344128 -0.012938305328222878 0.222748550819268
Ni 8.20746222964157 0.054138735275497125 11.264075098579923 -0.06486276211165604 -0.5222663853797909 -0.4009874492619352
Ni 0.1341296369679184 5.09251413581536 6.120809381055158 -0.3223996242547028 -1.3534734412959013 -0.5437844619572247
Ni 7.27070599703878 6.412955943489726 2.80668971515682 0.8314379409799938 -1.168612409551026 -0.8178853991065399
P 8.896073838126574 1.7222689333992784 3.4421062047724145 0.30291811849132344 -1.0270006754130894 0.9361818555573039
P 2.127576386817506 3.4470864532196455 1.4929281270155796 -1.6644236860630819 0.11957223783939408 1.1597022515455897
P 5.025693671047401 1.4415224994719449 7.8914767927155545 -0.1995813686741853 -1.1008263031449879 1.0494605470785023
P 8.669149164747813 1.7573736560381392 12.656209829792887 -0.5325184021251023 1.5113304336481068 -0.9726318708542216
P 6.4465991111917615 7.881955675773976 1.224992222109515 0.9530642331349393 -0.5697937415367929 0.6106282590546516
P 1.8339591347277586 3.424514564164057 5.84490160744055 0.24189195651693826 0.4698428774727521 1.889343790612372
P 7.094570357714681 4.040934493488272 5.799364122968266 0.7383125844782188 -0.05646965295195436 1.0345892863936248
P 2.5667279717415825 8.89202715789524 10.160602948220872 -1.4318951730389147 0.09656729230378854 -0.7846618611667195
