# total energy = -340892.8152247525 ev
CRYSTAL
PRIMVEC
9.08063463909626 0.00000000000000 0.00000000000000

0.00000000000000 9.08063463909626 0.00000000000000

0.00000000000000 0.00000000000000 13.29042667893824

PRIMCOORD
 96 1
Ni 6.083362467798304 2.0361507539693338 11.343180366898004 1.0106528301826854 -0.799860680394345 1.3150899564216962
Ni 4.723355785275952 0.48223891890256265 6.090949338221269 0.02946895599339441 -0.6187442032935666 -0.05002749687103642
Ni 2.6692616968293255 1.5948046580179822 4.994954849656261 0.8604906353715761 -1.2729408338574721 -1.0181676505024915
Ni 3.4734699616635853 4.089990584639966 4.827202833563285 -0.1418945554856782 0.9631882089428185 0.12474581162053354
Ni 5.2609475300759 4.513656684524875 3.0459536725993375 0.8033458107294681 1.0653695049992749 -0.5496581471291824
Ni 7.578706932228337 6.37525039463945 2.710968144663717 -1.1817394338512872 -0.8010310465533623 -0.8737061056205856
Ni 5.1962480067202765 4.279267337597807 11.881243396647026 0.19187088740380503 0.6871314336187134 -0.7848816904870095
Ni 5.480417393933032 7.804996352863022 12.398692477207334 0.04009661091056965 0.5969800721435976 0.8706467499689715
Ni 2.029503729254061 6.150595488279011 0.5434605591079823 0.1976628114952338 1.2299882415553463 -1.2384304587854285
Ni 2.6226871206481333 1.405482501885856 0.3128968836461388 0.7592346793428666 -0.23172812861005898 0.5688627450820913
Ni 0.5153895925747557 0.22388940884200015 4.748456476147476 1.2659788007173425 -0.5491966341117316 0.3271253118651463
Ni 8.773373415275714 2.159175195011016 1.4241486548977607 -0.5251233952126118 0.8224581060788868 0.03093088525090157
Ni 7.162341662768398 0.8720278943267246 4.865918120275804 -2.735056496343825 -1.0510944831374993 -0.4216889434753447
Ni 0.7257325103371882 7.440127363676733 2.323764425983323 0.8919797071187928 -0.2765406569390592 0.8374754054233254
Ni 7.6699854738101925 3.9616448915721225 3.780873969284767 0.6841733794316539 -0.0786839842654645 0.012443625079991472
Ni 7.811597974404011 3.824890530626762 12.603378159453898 -0.4793541593972971 0.5048121944590854 0.4919469084606431
Ni 8.24780443102634 9.044602897817345 6.701458580922362 -0.4744970884153118 -0.7418625066130062 1.4808155528887015
Ni 6.898594623348877 0.5149219398796238 0.4216483828196996 -0.7990883210046947 0.6164281535658802 -1.1938796687582471
Ni 1.9305974543923834 6.638843063266405 9.170355161570049 1.0331533252780465 -0.06117322907521077 -0.16336969464031864
Ni 0.002603418013481728 4.750071013025038 1.3535240172979903 -0.12466482187095304 -0.04714220490344139 0.5551795911680438
Ni 6.393193729116743 1.9928633676063499 7.19596906977058 -0.20698434600647575 0.11225976333838085 -0.23221715243133556
Ni 3.4839217723839107 3.9544802706700053 0.2903596559947252 -0.50552516136571 0.6880336337180085 0.46829327359744516
Ni 6.222450551901895 5.828923079107136 4.851776847613108 -0.5379418871335188 0.010534323872420566 0.00785240616488325
Ni 5.280579862636582 3.0810412456865133 9.45119467998077 0.14621143769347725 -0.3578296829275386 -1.0625873142684474
P 0.32568241752469573 5.624844891332499 12.506956346289076 0.18700970265676178 -0.3093227364660866 -0.5614109167897363
P 4.0289687184014 5.94797928271634 12.84215436108035 0.7335706989178592 0.7125647860901534 -0.20943692131202638
P 2.380279573142396 8.414897193028702 1.1613450934398741 -0.10029153523291115 -0.30461941745314636 1.0018884537264938
P 6.504921860396405 7.946699659805409 5.848332936113823 -1.3653341972892292 0.2631902037740822 0.8320125825365414
P 4.641502942675588 0.8808115924238327 12.594819661101242 -0.13179526226814722 0.0596598777544779 0.29521689319232386
P 4.1316888599029875 6.073010544061405 8.18734193189496 -0.9654808616317371 1.0675181759111614 -0.034853360233759324
P 4.640177169986477 1.1139123972647023 3.8677938061352974 0.30439033216147576 -0.6371324759927671 -0.428469713842604
P 0.2641611163689975 5.561888849869406 3.6574454399919514 0.6660825833682141 0.013895527035169617 -0.4517466820926736
Ni 1.365736563117075 0.8874713300279048 2.6727050735670725 0.6827158210495211 0.4392202674908887 -1.02186695373095
Ni 1.9620527735367879 6.336485164435218 4.769469065206412 0.8873586634070137 0.45289133722007807 -0.8214296648143725
Ni 6.02129632855119 5.6798553772957785 9.319340229604208 0.31319996003330575 -0.7453142126070326 0.23539375038710428
Ni 8.562339461200668 2.2821996360526993 10.231210317429198 0.1478057787637906 1.215533756692913 0.23626381169688346
Ni 2.3730150652568525 5.106395124810958 6.908789452102751 0.5962732758845602 0.37444980798272287 1.17594211044322
Ni 0.37153599129824766 9.251441598588489 9.249034322287915 1.023562853376134 0.11200239591193614 0.08286742621919277
Ni 1.3782224360453532 1.0076235662643407 11.466847716887557 -0.9508142607584978 0.945365578939101 -0.19307133546980942
Ni 4.3808160772028515 6.715429137649749 1.7000183418512833 -0.5976549867234353 0.04279472656802307 0.3521431740657226
Ni 5.679664683963783 7.773541033718618 8.011841410078565 -1.3266105554667862 0.46133561133268935 -0.6329328360891229
Ni 5.460894028990634 2.7876822559985444 5.035902156416612 0.13596610581638519 0.21591275884435718 -0.07294553911979051
Ni 0.9102609993283411 7.300031329104022 6.66711652795694 -0.6110074967709412 0.8927613224798238 0.6624025634134656
Ni 5.231208450919456 4.575550291709708 7.063449916922491 -0.23897272598761424 0.17856028633782797 -0.08494102091876984
Ni 8.06053449837188 7.508295689547704 8.798648454336492 0.6564561160220436 -1.0359545421722673 0.411791996076607
Ni 4.493343304349924 0.14364837892874138 10.476630819580464 0.4104452522407254 0.18679964352848477 -0.5282513993186321
Ni 8.14987886472921 7.471964069485128 4.678589163494775 1.1179051130041457 -0.5537739690697688 -0.07037880683387879
Ni 7.258178683048433 6.229842188675436 6.984398450175491 0.8131214020589932 -0.8446495545742615 0.002632295416524499
Ni 2.5083891697039595 5.1696054240500455 2.554898365314182 -0.05443950989580302 -0.4491251853094265 1.2437374728206385
Ni 2.477996284837816 5.067884152382719 11.524209179215296 -1.615968675885488 0.5820856715302686 -0.17644941064241224
Ni 1.3345627436532355 3.2246242440442847 3.748020232372396 -1.1655741369453345 0.6375582506762763 0.04346552738280256
Ni 3.8724458153725028 2.8158049821504556 2.681729408487889 -0.9043222878445458 -1.4778011915424096 -0.29331916194897867
Ni 0.6778357937208271 3.412666030661584 8.010579201833453 0.8212275761058953 0.23995334473332866 0.6065458614551619
Ni 3.768663239592654 2.798488211478291 7.111734376647243 -0.09716353112689072 -0.9374021011176501 0.2731961659468585
Ni 4.024128740022656 7.0029401984898545 6.088038994749623 0.5152675854644545 0.2428026412566657 0.29189219969446506
Ni 0.5616527029803552 7.441952571282975 10.996937575930247 0.3850820908855884 -0.07136765310970934 0.9113838226770176
P 9.374938232642732 5.75506119518087 8.012227337059985 -0.6826857391425339 -0.7152155934494392 0.34628054463735847
P 8.391877783666384 1.6494337573172708 8.059687275139728 0.012157975518772611 0.3652066921179 -0.11686306643834712
P 1.5805389806577457 3.329442012197824 10.291654655290865 -0.15303617392479452 0.43811186491805837 0.37688130024235095
P 4.170336041854079 6.245878589832774 4.012047863408997 -0.8584098415831475 -0.681092169403169 -0.9775750737921101
P 7.04947845213162 4.026898333654019 10.597840041714246 -1.2299990401886238 0.385517121540478 -0.973466450940375
P 6.367150468347069 7.628532375688309 10.121192069693095 -0.8644267372011888 0.6423741840076809 1.4463792255877026
P 2.4598350151239567 8.595138714303898 5.895380613371061 0.3375277381453929 0.1413566807043372 -0.7788686515237102
P 6.79004471426914 3.875896456618136 1.5199066736545408 0.8137762620341727 0.31046790581412337 0.18142192415633918
Ni 5.285056615621049 2.581097813003395 0.5236057509933056 0.5255496841167531 -0.6188046242178569 -0.0008978292239210343
Ni 1.3904812931022084 1.0019663307484736 7.109261719775702 -0.3798000165510427 1.0253446278669052 -0.24961580752375723
Ni 6.807125388435025 0.5586987724613959 9.192177743258222 -1.1561631280440798 1.078596288102194 -1.1333309606409125
Ni 2.579109153969728 1.8449943095961077 9.166646630294478 0.4305723620079036 -0.5328583019630242 0.18061922574938571
Ni 6.47193191396118 1.9926363517349266 2.7271289505185954 -0.4232884267519807 -0.08779468831748105 -0.3574332188200683
Ni 4.220815291023751 6.7075289853242195 10.68659325874239 -0.46306776353244766 -0.2685288423781762 -0.7205133515132689
Ni 8.283954438391778 7.1216331767047825 0.414827009915174 0.4039426752355172 0.09564169516572561 0.7113118875196588
Ni 7.43232709833463 3.955224882728273 8.283697456425326 0.46240107648272627 -0.09814749230671484 0.2828192908589194
Ni 2.9428612250686155 8.385158113872258 12.210699726018262 0.16340980384963472 -0.8299001641792287 1.0143202517319434
Ni 9.06526134211686 5.005418465201901 10.158684194890386 0.2381047215603641 -0.33360474894190284 0.21144623843257135
Ni 8.604918558044812 2.4068404300989155 5.860307569299656 1.0227218455320775 1.3616436358115196 0.4458038342456774
Ni 3.284165966801173 2.7034048838913805 11.479858450510564 0.9687266222625444 -0.6114466411908889 0.059283468251665646
Ni 1.0809860152734754 3.1442969480998855 12.856428211011956 -0.13494177831692888 0.5805808048499679 -0.8885362286548827
Ni 3.1865763839937498 8.803811703316141 8.097963059125172 0.19827447693730368 -1.5645743805739118 -0.19727663180040864
Ni 5.573720917087985 8.087631112784958 3.8063914612962253 0.21957529529760894 0.09047069248774742 -0.3469096935809251
Ni 3.0844646450275763 8.39630005284171 3.481002348277408 -0.1563868355645823 -0.244470772987708 0.7056886277956105
Ni 3.481597129860537 4.449447515451526 9.382044737481765 -0.8210278013902634 -0.08689171688723746 0.057392678986855995
Ni 7.457616666411179 6.578656615434674 11.675280977139575 -0.17619230032628366 -1.5793613090750993 -1.4646721103596194
Ni 0.34461826539185114 -0.011012085890998577 0.31798657948344794 0.9304454672941589 0.7786097414353688 -0.3780059007650974
Ni 4.601339294703387 0.10721051543833982 1.6606783074606069 0.019567894829598555 1.0044623851012573 -0.5885018594692575
Ni 6.25482301516685 5.758266659285366 0.43018599571218485 -0.42797554781500485 -1.0295645794855237 0.05463851328048655
Ni 7.712192264625202 9.124766742334321 11.127994746566369 1.198350045824775 -0.8974276176072415 2.248978130848817
Ni 0.15719123775436625 5.020083690495842 5.851535676027861 -0.8648861933361104 -0.9823287864270114 -0.25719953340828605
Ni 7.9303272751583656 8.956702352402266 2.4476052160986437 0.25137367075512834 -0.19153767243410239 1.0546526328024028
P 8.558471110751617 1.7990553778549006 3.6631871254119877 0.779496000695064 0.35848017202734395 -1.336501589328253
P 1.9797418502380866 3.1792573922990646 1.5950906980159754 -1.1790343762152984 -0.43508567649722485 0.45664437650460715
P 4.7222842703628345 1.120913566739395 8.512119918187905 1.0553080069982148 1.3802175421589649 -1.2933582211715597
P 8.363936670211613 1.6869004567369625 12.441367828780958 0.39685980024680684 -0.5709021441096233 0.3584099809110408
P 6.35117763163373 7.730417098783059 1.3842247356857837 -0.10206405375230164 0.19530819522012816 0.5829277078155896
P 1.8387014296402555 3.14052848463426 6.145812717899867 -0.694358804605088 0.5484962656105973 -0.2836651837989824
P 7.050332031808171 4.074816843794037 6.051197951071573 0.38566033198656163 0.08968264936881329 -0.6360006763811692
P 2.3355665271068746 8.697114243747219 10.138416217889718 -0.5205188065610649 -0.8907790019424724 -0.37677434235084145
