# total energy = -340861.8998852754 ev
CRYSTAL
PRIMVEC
9.33346896864962 0.00000000000000 0.00000000000000
0.00000000000000 9.33346896864962 0.00000000000000
0.00000000000000 0.00000000000000 13.66047527712025
PRIMCOORD
 96 1
Ni 9.358482544289298 8.352269268216975 12.720948697920683 -1.0723377087869919 -1.6589186970844527 1.5989258614705883
Ni 7.165369368720533 4.1693725359282725 1.8942573697567067 -2.3323572065971057 -0.8641847963937116 -2.057292619982941
Ni 0.7252926639981531 4.379226249501697 3.567037123836968 1.1251821062815333 0.9674492982120177 0.8159177338572078
Ni 3.720675354540229 8.176576050626416 4.823035493254159 0.2808022604288906 0.8846970574144505 0.18038062737601837
Ni 3.762647963948684 8.934248384751278 7.5322904294518915 1.0407707326139881 -2.3757314598176826 0.06779047728141228
Ni 0.9666487016265947 2.830402428494996 8.178704081523708 -0.3607273161903078 -0.8035288732745515 -0.9332608252557669
Ni 7.341799930350066 1.0453111770756613 7.206897705011833 0.06626915554087942 1.131869545604038 0.9995299807966463
Ni 7.876057020665685 5.392271624770592 13.452603987632365 -1.3250059299838277 2.2800123744468026 -2.386415164783774
Ni 2.8224316460989938 5.248732207360625 13.089958588980174 -1.0109369370820072 -0.3002511131821216 2.457986192153541
Ni 8.54759077079441 5.5593220502081095 7.455477847528454 -0.44710172712149454 1.4113839404594402 1.3813184885326275
Ni 5.5573060209369896 0.757928071171291 2.7412202003075996 -0.2828231475136613 -0.3344524416541788 0.22186537688336627
Ni 7.3847712209252325 4.235714832498274 11.360010404860393 -0.4716483061126071 0.5059555640349093 0.6715106963623209
Ni 3.9225862861241945 7.079305452475179 11.419720338467164 -1.0771870664594934 -0.1471249506466821 2.6988486789647004
Ni 7.2347917100103 6.843430027754152 5.1873609162989505 -0.7399925432838029 -1.0511824148656155 0.5194679966990473
Ni 9.004034731326108 2.657602586247248 2.49296859589442 0.27115779536059104 -1.9120952253762749 -0.6132106750698472
Ni 3.381599764769329 4.584189225398885 5.098854431256134 -0.5368383696566948 -0.13534184196882498 -0.40759261328327867
Ni 8.69959564444931 8.521429057614089 5.986525186186607 0.09103145008722387 -0.1393681895193987 0.628532393028582
Ni 8.332566315479317 8.136507468862908 10.544220426914192 -0.4029116628678416 -0.7292401898633054 1.2809331080343296
Ni 4.647180806652534 3.238517687332904 12.22537416924468 0.7681576928641094 0.7461896732334504 2.2975496119996173
Ni 2.232453746762146 6.1096327069419045 1.9683511122047863 -0.9258431926354571 -0.5096127011715222 0.756650206445142
Ni 7.7467231428420344 0.9348215728556742 9.723976517633831 0.14015674685896506 1.3471410713199703 -0.1742511174395128
Ni 1.4589985168156927 4.893836387892744 6.763123928440992 -0.3389991804845968 -2.2275186754234606 -1.7547395981405198
Ni 4.260037852315581 6.768230269247611 8.982499618653632 -0.9124122639415319 0.5249763281117862 0.6622817215648852
Ni 5.967735980049147 6.8528941651657975 7.47237515953047 0.13072902578716195 -0.5803527479995617 -0.7427320537021531
P 2.107590600516582 6.898124155202127 4.222589175257644 -0.31295544812266746 -0.03297491226412386 -0.5139987460543599
P 6.126134279864774 2.364858335836714 8.945247877788384 0.13485461791976128 -1.7378795891603878 -2.0236749319284955
P 7.157202583478727 2.7267542569404295 3.5532263899829117 -2.027166747131838 -1.307924806131825 -0.8393453687525286
P 8.576739194006018 6.007608558966851 9.982678807115866 -0.6279901473718669 1.362556377433776 0.1302124911620596
P 3.4273150951857425 5.046970611278224 11.207545391191296 -0.239242177598917 -0.3164688605925647 -2.2488842855834306
P 2.81455419839147 8.855548575426822 12.786941922755776 0.08422959667404203 -3.1324891383749662 -0.3523987417199544
P 9.154723585873471 5.61344683605637 5.3533081257186605 -0.16166711012691515 -0.5081235182205055 0.15975960869155711
P 9.272726632515921 0.22021573068822609 1.822484861011069 -0.45622271558615624 0.16452411995973604 1.0194436890014378
Ni 1.3983589697116838 0.5296043560950009 0.4089020702617759 -0.5630024296465723 1.8825285674627514 -1.0654047291125845
Ni 5.979384149171172 6.291299344595041 1.1465578470956947 0.6114672100161792 -1.2622453018168391 -1.3299475902598192
Ni 4.9810109869309835 4.0464507512030465 10.256953989370418 1.2339901636258879 0.32985350942958674 -2.0979111648352515
Ni 1.966963225387122 8.468928295345343 2.595736621336641 1.0405254493724014 -1.1314926218805934 -1.1467989132203604
Ni 0.4033383894816158 4.616623029644911 12.022501890369393 0.3863493876337862 0.9639027185113398 0.7025757931982416
Ni 3.5376740308418606 0.2747586559408668 1.1607811202728224 1.1542029189939154 -0.9393188585243887 0.7270362402334511
Ni 8.57371515009934 2.0160946054018214 4.890928078999776 0.05760685188019111 -0.9893491836089027 -0.19144305583776705
Ni 7.871380952772948 8.155687747345091 8.307549818926619 -0.8147779638258097 -1.5393485161275875 -0.8987453079774006
Ni 1.0780249853871207 4.1634271162722385 1.1109422633194614 1.3759140296876047 0.4753190700959749 -0.3555889665224779
Ni 0.4979517631915339 4.460866101513204 9.651043858710414 1.1750795053326084 0.6807234732098406 -0.39060199226255315
Ni 7.582883430688153 8.803785157197048 3.9931071766973454 -0.8644483344677436 1.3493524771489922 -1.4727780272962054
Ni 4.511910842641698 1.6761416695592304 7.068790366471273 1.022839344946548 1.5960210291189674 -0.6701642096367555
Ni 8.24462637199556 3.4688303646206555 6.510254123641932 -0.12746089655885143 0.7295376664990662 0.6449301176603152
Ni 2.915915670078331 4.789506873112289 9.029273364437383 -0.32382118719257785 -0.9095791653681109 -0.507750451151803
Ni 1.6599761015148804 6.407641033782584 10.710918980576148 -0.44836491010463425 0.33062252638512735 -0.2047037775024152
Ni 5.532254990549555 8.643846835021536 0.12711157889099364 0.6809957530346208 -0.40248614529464877 -0.24991019883572443
Ni 1.6756749961168416 2.588030909455916 5.2135338296418885 0.3252404361376076 0.9445520818988701 0.8334799111106872
Ni 5.574610272180768 5.473603472310123 12.59228029642588 -0.5049559191258013 0.17956198812946494 0.247411857893903
Ni 2.482310707817143 1.8299105688263608 3.0774864159553186 -0.6962984448299622 -1.4955654575043664 0.3452091659500506
Ni 4.608558912560432 3.049356274195002 2.9094354426573195 1.4585302591279399 -0.9469321520952725 -0.46438159724786476
Ni 7.258088048254352 0.6218330285143119 1.1203681335088318 2.0187880361498394 -0.5838383925553171 0.13574370539293396
Ni 7.659296540144905 4.778026706429523 3.9030028017877885 1.2370096671785018 1.630456585089018 1.8792658375510796
Ni 5.184181936809399 4.279871473617107 6.904714517555543 -1.173774927588572 0.3098968638020018 2.2698593451732005
Ni 8.558277592625116 3.3657982020100423 0.1404677728121629 0.09212776847519617 -2.252552992684269 0.3387330713074037
P 6.502291741367893 8.654020316065614 6.3421620830810035 -0.09585535383842847 0.13476900018449048 -0.18688423282249103
P 2.7135473985208245 3.8708508683009653 2.5649595078110954 -1.320753582465377 2.2956603653967047 1.5807617889670518
P 2.000283709173687 8.378850987495445 8.956380839430013 1.3640234488976057 0.7191352402188196 0.6995827720081887
P 1.1809451463715606 2.7857604469960773 12.993161183559875 0.539386075779213 -1.0727940795981201 1.4458498354467937
P 0.7340222574114791 0.8371804218515373 5.868417604693064 0.019376090533766634 0.265441204591788 2.4621233542503664
P 0.7958182213057275 6.412550438396515 -0.2008525162166274 -0.3490172268422312 -0.8416447063096667 0.4397805108697329
P 4.045246733721683 1.0154440767627742 4.351940786672104 -0.5814326113273018 -0.11921228339681404 0.00340491191649091
P 2.9621536747502195 3.301845273465073 7.25618495395629 0.617081470879163 -0.1895882620172154 -0.4648922183356961
Ni 5.961155884511463 6.826555116077371 10.676289944457125 2.5866367381451196 -0.020974545369138068 -1.1741883609769068
Ni 3.799916505057858 9.07322373589468 10.574792204125087 -1.0856297979102079 0.06285575898395626 -1.52566870464765
Ni 3.490633347849063 6.678432965463145 6.676051997560077 1.1822850219421122 -1.2529060266937841 -1.2263244195505136
Ni 7.722810795654029 3.6921242733348785 9.17751685014663 1.1207520955346377 -1.2187517494095783 -1.4068821959343447
Ni 1.7071661200092418 2.8850872224741226 10.949977118174267 2.7166661667620957 0.5198186951702467 0.0908491588730887
Ni 1.3041002678179814 8.968007541573689 10.995781116544732 0.924651486320201 0.9512392641110585 -0.9148586685994953
Ni 0.2964085702801709 0.1786360603182632 8.211175219645126 1.1158412884965814 1.418565545809544 -0.02494458576047962
Ni 0.6668147482792895 0.26324395542336404 3.866433337495312 -1.1116904995530015 0.2776853120664637 0.37909399162295354
Ni 5.778182561219638 3.7585785715310522 4.857254790090765 0.018829474001677247 -0.5714261349338932 -0.7506032289201137
Ni 6.047471804415708 1.1577794766913774 5.05310550035187 0.6706365212874837 0.12972629555426046 0.6052412837111254
Ni 5.349524337447772 1.7170875973944293 0.6017352700443931 0.0872149045546111 2.1127610853638905 -1.208211769110203
Ni 5.904847066952824 8.944869872300048 9.426369529953606 -0.7167369151899721 -0.3954477503906286 -0.6696186215459307
Ni 2.831970451261422 1.2397086662371661 8.692023401173108 -0.9856794480667992 1.4265048552612787 1.8629179923206756
Ni 1.66980424421159 8.334601011688132 6.401175739911729 1.094983728321282 -0.019907023336572165 -0.6437569232878203
Ni 1.6583894118107583 6.615040045049043 7.963428555896612 -1.3005102588353088 0.5913532128751234 2.5201256417967635
Ni 9.130988574593575 6.963925110578956 3.50284619183638 0.9478554352404903 0.7819997409535241 1.7963120222656674
Ni 8.817944029439126 5.837104750055657 1.649475015714246 1.0530261529425735 0.21436804006505664 0.648752833840515
Ni 3.0357294096772476 2.5622518684983553 0.910581620911112 -0.1987159353500965 0.6657938484832018 -2.3336630698927228
Ni 4.93999972481385 7.631426802165442 2.7858220478904725 -1.0716195996740447 1.882377386596868 0.6263880929920697
Ni 6.004873852594452 0.7351422736732125 11.764824415766842 0.7741712460480409 -0.32573588771678746 -0.03398998379219953
Ni 3.737531599279315 1.2728051467713841 12.396867325853737 -0.9627521498466647 0.19034956566327219 0.27268245953523357
Ni 3.8463971799197885 7.118683357543951 0.656096192654502 -1.0665229018774276 0.6576015424803965 -0.9478976013323352
Ni 8.59172874497555 1.133484457280613 12.055779440199258 0.7636819164809429 0.20547793666427838 -0.24399229068939265
Ni 4.553594114515871 5.44460438460008 2.8875783253095944 -0.5628615331933339 -1.3129382001860161 0.4579034457226888
P 0.4196607598026087 1.6383411207257326 10.07913554092322 -1.2216609526365736 -1.3324415603262665 -1.649561938459901
P 6.966398479823617 7.587494164298955 2.338619154864958 2.0720957464340444 1.2145351402250697 0.5889975681587534
P 5.240257417646843 5.875549308239651 5.271741074764167 -0.5465216583827297 0.29425761460284805 -0.1599025620273246
P 4.580110499512407 1.6848684629319024 10.300394753428627 -0.8164854334352197 0.40605175115872 0.3846666006147246
P 7.064511904351452 2.4937162067491268 12.708134778539568 -2.4646173243168135 -0.5089275021790396 -0.49741255956090463
P 6.971317217906396 7.568612556819902 12.48231336646137 0.22347591590359575 -0.14469602949021532 0.03079950187935986
P 4.691710786525279 4.243965618959709 0.7381775177425096 0.9336704019893597 0.016825299087454892 -0.34816259215141976
P 6.170962930740648 4.9638374042510724 8.744343094146208 -0.7920141877667328 2.4206267776684762 -1.0640415302164707
