# total energy = -340862.6885766239 ev
CRYSTAL
PRIMVEC
9.22352956173552 0.00000000000000 0.00000000000000

0.00000000000000 9.22352956173552 0.00000000000000

0.00000000000000 0.00000000000000 13.49956784225841

PRIMCOORD
 96 1
Ni 5.573649830137023 2.793299832873584 10.137176510917115 -0.9840799647901634 0.7060915196609839 -1.3751177590385544
Ni 2.935535883403537 8.611696021924574 9.231315218222235 -0.01640980881659109 0.5431949080023419 0.6840239983379832
Ni 0.53975357552509 5.1355137253271 1.1779166781576489 -0.28674639382746747 -0.11643600620325753 0.9864564354421398
Ni 3.2563486912326542 7.021522618412094 3.125487097450872 -0.0026466935942277 -1.76526929402725 0.7367940909511632
Ni 2.397149234970629 3.9248424487230493 1.1532953881450259 1.2619910197141877 -2.0257963491468725 -0.944759827034302
Ni 5.01679767537113 7.210355940667442 1.7831711493988698 0.20503313581737592 -1.081639445803892 -1.7296492308307954
Ni 5.530631287910728 4.103419206022214 5.93241192830402 0.11488100301131181 -0.7762404698722438 -0.28945967899357244
Ni 4.8696178129558225 1.1910804996553692 5.259228928346246 -3.1198909899949823 0.012780439594119924 -0.5735071858326382
Ni 6.063852759746997 8.693481059214575 6.3576489269167995 1.4789648728332077 0.16854018309766458 -0.07002759414204714
Ni 6.119258502275589 5.572699806584427 3.220065170347191 0.826997388710137 -0.11425005429553226 0.28350603251329887
Ni 5.39987853177866 3.8300245640561723 1.8539635840676654 0.035520304393796893 0.45581108197003434 -0.3397964795749116
Ni 3.215838949067584 3.030944073967173 12.132466705492538 -0.8099291203739405 -0.6600062952671473 1.8511793637275085
Ni 0.7097635184975428 1.1477391338917842 7.803708369265265 1.0618522358746358 -0.7209671512212357 0.8701451277422046
Ni 8.867436828165676 1.6782488880148172 11.30421403586809 -1.7865366880464586 0.41855065495667915 3.8470257034795097
Ni 0.8485656489436941 3.4335419190862906 3.259983684262539 -0.4241255779412954 0.5960585887705928 -0.2814028701273669
Ni 8.429402182181757 5.720386963129762 9.189777052502656 -0.4021734991502364 -1.1801322372651675 -0.503469564388262
Ni 2.5212702732937973 4.277633233803146 10.412851209409386 -0.07987466213945599 1.6159889876004618 -1.3362300808344214
Ni 4.257636621550443 3.913506730799354 8.596012332130066 -0.9926147417340517 0.7943958006250319 -0.7560053737722916
Ni 7.286201024871307 4.033670874908311 10.942871194108703 -0.8520633305398294 0.21243122805365997 -1.9725382611536801
Ni 4.965136685875101 9.424141406457379 1.6634165300057895 1.6037834466732057 1.063522424488207 0.3448636096851738
Ni 8.857217157328039 4.248007256609565 12.305639396777469 1.7086615728355348 0.49946455699392683 1.5589356942308956
Ni 7.885057133603441 8.562110326596837 11.719461029531194 1.9820623985940318 2.214934925221179 -0.17007590301590061
Ni 7.500592747750382 0.939979128821608 7.903524484642354 -0.33512812756496474 -0.05702732522763727 -1.2288374157803548
Ni 5.099366712680263 8.39223135774523 3.9269703170102725 -1.429564468023209 -0.6848158981116593 0.9647550392093063
P 3.3867232826496103 7.900146828089337 12.605127404086176 -0.6334506562658059 -0.34626460379775853 -0.8422946811888397
P 0.9250001166913542 0.6655265480062189 10.113849282112541 1.8253423480597468 -2.8472671516118253 -1.6722475529828749
P 7.495851853517038 1.4961026247461893 13.12730369918231 -0.6529671290321786 -0.5780063592545722 -1.1355302822850766
P 6.765883270997 7.735580612308556 2.812391616868912 2.049353310531206 -1.1077772805415245 -1.78234861810704
P 7.519316512913199 8.12381742178309 8.763878726814914 -0.7380739861048515 2.442413791636581 1.264391144515248
P 2.5418940855618066 2.334004951076715 4.6423795579985345 -0.028451827582789708 -0.8442500051429976 -0.33782624322241817
P 3.8045768457880875 6.173972480081417 8.606932991220104 -1.8248283845378055 -0.7674439546265364 0.6430411281677183
P 1.5686549088696968 4.041473980981091 8.275788907844744 0.22759353761639514 0.5390006674153363 -1.2783861732427595
Ni 9.23801057838563 6.875440356023572 12.737004508480975 -1.9893761586466256 -0.5090696841838588 -0.3893123269168521
Ni 3.273301538705195 5.051192217386965 6.451335084497235 -0.07772496278630485 -0.09389360212636733 0.5249611586031346
Ni 2.711607030879953 2.5303277793971897 7.208228994733183 0.1253104258747519 -0.33596013654795687 -1.8487033913831903
Ni 8.663716729076441 3.0346058152330047 7.259824497168791 0.026144776716167877 1.7383693843126125 -0.8390957146355678
Ni 6.9498188990151775 8.45354015924141 0.3775744092143276 -0.2558489329176626 -0.31579651711588835 1.1034213175656737
Ni 9.072245303752057 7.280998954156121 1.4231786323783169 -1.3703442489093107 0.5735701778600897 1.6748698210970703
Ni 2.2929694677223433 7.310597260760789 0.8195871635306207 -0.320764402644125 -0.43416727844801356 0.6250148667936268
Ni 1.9471332239884362 6.346212672520062 4.93035291090859 -0.03947080440111266 0.33885211338377125 0.23921852344983321
Ni 7.6762825402732116 6.878779273752113 4.705058053645788 -1.6342055106084887 1.694774016220165 0.7085127275079669
Ni 6.622734091032998 7.194869634407161 10.380263556849412 -1.2079587725591325 0.8951105394382907 -1.4091784481676892
Ni 1.0893726383497608 3.6974547725856444 5.492596218747226 0.4608491586145741 0.38300849618601135 1.7075410860778464
Ni 5.23437151597492 1.7774018316110167 12.115120013304503 0.23223412171220006 -0.7761826200511148 1.5480997799576566
Ni 6.0849746426153954 2.4198852355254785 3.724476947362741 1.5534882979630795 1.4000250638031952 0.11752049751668793
Ni 5.216321068475594 8.688989200281426 11.919551669708323 0.644351876559342 -0.8016589099453484 -0.1042903719796591
Ni -0.06743506988097987 5.618051901808847 3.834417731222207 2.2656139396332855 0.3412478673094575 -1.715987674183303
Ni 5.0672411589550945 7.852581085752072 8.36056605814894 0.5344775827340021 3.821028250974484 2.124421038200322
Ni 1.7789975022381925 8.1057761978134 7.282274568304897 -0.3344053904663273 0.09298805959296244 -1.001478876992901
Ni 0.8355540156849817 -0.07938876429034496 13.024990774332524 -0.5231343898070411 0.8909258119329818 0.9715916025151654
Ni 2.833210045612259 1.9865914837749052 9.466018998067595 1.993481953284883 -0.806654820498043 -0.07665152721646798
Ni 5.948291156926831 5.415300273331484 9.427032060645569 -1.0149424586969746 -2.375965173095043 0.8400231115458435
Ni 8.559739879480167 2.900375788427843 1.125691208647844 0.9348029729319063 1.5997804961613997 -1.3931167667191362
Ni 7.520635477651269 5.329087941815793 0.7390177874467582 -1.4923266388520944 1.0266710599878124 0.06128070118735252
Ni 1.177282099318633 8.217961988786477 3.515557544617212 -2.7061287575658812 -1.7200482174059217 0.5251087399245925
Ni 1.7499710544710076 5.484098580892791 12.699394644033733 2.309441735451513 -1.3293608645184136 -0.48370909393188305
P 0.689803800363387 5.7793345410389065 10.79934384942959 0.12815920817745668 -0.2368294543923663 -0.17185099263845244
P 0.6448003545592402 -0.05525816605440289 1.7357207011820652 0.5350735644467881 1.7228077824289298 -0.3202941478759258
P 4.641630607392021 0.6631828491254937 10.117966665742435 -0.18902853285900348 0.3039743276699797 0.15377845140745774
P 3.7668433860437105 5.37435702527348 1.468429268776731 2.554316428745859 2.016505924983882 -0.5820766726692039
P 4.358034741647617 2.33378358636543 0.6448123451477681 -0.19053108554645895 -0.2155862287428739 -0.8393998761395479
P 6.86166040274611 1.5543123202843863 5.658317220438541 0.45584887718650524 0.9226413978687078 1.6084335438507074
P 4.689703643859314 6.041568712144352 4.730612764857661 -0.9584059570628268 -0.2870320433886863 1.3872471953122367
P 7.204932505240971 5.000730286743726 6.988199850540061 2.065334259340495 -0.8941630879233569 0.10192572840222446
Ni -0.31057376757924365 1.078230614548439 5.544056135297172 0.861680027693987 -0.4464003301790957 -0.174463490560635
Ni 7.9224677698105275 7.133284127021875 7.087178469426124 0.7614365720901919 -1.3488943065656511 -1.5780022239440437
Ni 7.023090618450359 1.3495499623461882 1.7179146772181153 -4.033060443817513 -0.6986944558659645 -2.3205478726670035
Ni 6.987626146996649 0.9400713641179764 10.240070518134022 -1.4681906650358392 -0.9582614610651625 -0.6173007859788208
Ni 2.2612313022419226 9.239947519609368 5.220633990933788 0.5388746833604332 1.7971466023518208 0.9281433015235434
Ni 8.568954185587385 1.5392226257984902 2.975372307905117 4.961459312995287 0.6161851843171389 2.4483892924937254
Ni 3.030030944533124 -0.027297958313238325 2.985510811681949 0.2210994452516192 2.1093309766364188 -1.115486219150008
Ni 4.0225565216959 3.9234035780997 4.080028334863148 -0.6483797667718124 1.2413921125169136 0.5657501675950386
Ni 0.9924979065738647 5.974652004628964 6.977764349108923 -1.0439810120211697 -1.551793683869476 1.3608103412769466
Ni 1.650439946159697 7.75595538927637 11.265916096109938 -1.0510582305829255 0.6948683972516548 -0.4971081409466084
Ni 5.127443136894851 2.00209623709446 7.43288927315697 0.30154000719687424 -0.4796716906377159 0.8795479091133432
Ni 3.9799069206550786 2.0876905921244813 2.7657242463182765 -0.6765675420599381 -0.6951093096178673 0.07398683590011129
Ni 0.4008896474303716 7.665878398842838 9.130851611064639 0.4988775741422054 1.035679691244326 0.498276964443729
Ni 5.424154861782865 6.034540382561069 7.355928141867046 1.0416906733250964 -1.281792113600515 -4.077529472764164
Ni 0.8471996442044758 2.8166261393251926 9.960345767778207 -1.8029956049334306 2.1743330925394164 -1.3003976445168441
Ni 4.8785369661146625 6.248314128954475 13.050342567892384 0.05767112945922325 -0.10241243823065589 -0.284710080123729
Ni 6.403214085675831 3.574827946063647 13.141275501876217 -0.06555490308267418 -0.40140448219469577 -0.1991702492786957
Ni 7.813685461273451 4.115492806316858 4.871238387113018 -0.5908986418362081 -1.1313090451148775 3.019332317143613
Ni 3.1741024774608118 0.368696761938854 0.40422303104113133 -0.844844444193887 1.0641238055176319 -0.2749167481823911
Ni 3.3582133525420894 6.431179827534778 10.682113710098116 1.9286659852507622 -0.3698925276293436 0.483241153156529
Ni 7.108546620535828 0.2581435357115007 3.8957191538946776 -0.02787024404770684 -0.8785328375852675 1.3829591094598441
Ni 1.684142723452768 1.896136328626261 1.9189092232996579 -0.20878720354316946 -2.496166302767688 -1.1282882560106826
Ni 2.6194270756892166 0.7609098350398353 11.519612968183512 0.710118638542506 -0.5054274594455811 0.15423533643921827
Ni 4.015537415642252 7.615001409365941 6.110997909132822 -0.8633982959366744 -0.963323191858786 -0.8047444908492076
P 3.5994547701940522 0.25483690033668793 7.124072587973547 0.028337670602428616 0.8491839521095054 0.47061086598702817
P 6.946203275397529 6.82053268409537 12.301035933135713 0.31011515046039495 -1.6913783602750547 3.5792098280079583
P 0.2265944525886356 7.912746169573282 5.584218150394932 0.834585228359724 0.18322478169303283 -0.02443756421707404
P 1.1349645453447388 2.9040652002825853 13.107810691647778 0.443113689008024 -0.4635745279655371 0.020279576184642493
P 4.6493322546387965 4.531049710575758 11.62534228841079 1.078044786474098 0.04116079050902589 -1.153564514078968
P 7.793375249013095 2.8157960216578757 9.14744197382245 -0.7963374977324349 -0.38061145670874447 1.6215543975033815
P 2.060527297343941 5.225978104005382 2.977870039730778 -1.425357886141029 0.03004642576341922 0.5632847367736815
P 7.87279906271606 4.121976947651568 2.858276832106342 -0.5268406350140346 -0.23152861100474323 -2.7623762672047008
