# total energy = -340890.1766784943 ev
CRYSTAL
PRIMVEC
9.09581582278831 0.00000000000000 0.00000000000000

0.00000000000000 9.09581582278831 0.00000000000000

0.00000000000000 0.00000000000000 13.31264587580509

PRIMCOORD
 96 1
Ni 6.513031682507903 2.139536005908654 11.540093566352043 0.573792835393857 0.660603562531514 0.07521248077709627
Ni 4.573949267242194 0.1309706530387409 6.046258060016739 -0.3260626749285868 0.23583083792452286 -0.3993028624706607
Ni 2.949982297762592 1.679369584081934 4.828376519810732 0.20644441434260574 -0.29799985525409967 0.30075582073268203
Ni 3.3834888832078587 4.309952306772967 5.007924287205935 0.6603377104646369 0.5180873143014368 -1.231897028542285
Ni 5.051279493658408 5.113522161812036 2.614843322870334 -0.09767518065598663 -0.8750173682328415 -0.9749715747309919
Ni 7.499882227784534 6.121738778620578 2.4206512918879115 -0.8003892992043055 0.18464274508648199 0.4011517427539414
Ni 5.0133772288335985 4.661660219895336 11.719508534835212 0.04026707505016291 0.11963600119779397 -0.04563965221598592
Ni 5.455097336029957 7.991356447913868 12.55453081164959 0.0658930031483833 0.09308319040993002 -0.4993334307327013
Ni 1.904136290606021 6.177823579414861 0.5600175599518249 -0.7549229393413901 0.7923911114901773 -0.496661540327493
Ni 2.843743168136056 1.699571391179583 0.03721825946967983 0.8038713442156349 -0.023964481235397437 0.44531583886566534
Ni 0.6282016150465544 9.01205252412717 4.78934455465205 -0.7135993980022549 0.47508458548766563 -0.5560861621427133
Ni 8.552104401881875 2.1008151176535033 1.4494937577709275 1.3254571585886334 0.5001847229894031 -0.9636895740592692
Ni 6.778511260967639 0.8181604533125224 4.738397070673955 0.298042535566577 0.05648302268839304 -0.5665137852339404
Ni 0.8724879424763388 6.913420402287912 2.6953849534368626 -0.46133869665648286 0.8872823016431235 -1.0537380914079337
Ni 7.735791308777157 3.6502691633402473 3.8037956206296637 -0.033202969114529905 0.2886058156337094 -0.8065316646566175
Ni 7.67901522597503 4.0539323768416216 12.845318588249127 -0.40283890064837724 -1.3923420933366408 0.3240253327835839
Ni 7.719673523015323 9.015126909898898 6.808300058016175 0.23743854873127496 -0.5461784161106981 0.09338400947980045
Ni 6.757881950523035 0.657597472848527 0.3235954749428542 1.8833420645029824 1.8390039047072395 -1.5491256501190094
Ni 1.7132151150186072 6.593429599183328 9.484048964103915 0.8696982700127732 -0.18315304791483294 -1.4863251698530209
Ni 0.11215686744631562 4.572257445486156 1.7205399755569848 0.42465239697904283 -0.30482022061004277 -0.2672024102572689
Ni 6.142786496596247 1.9012620127839333 6.905668947984168 1.1451341239234278 0.4257993660992925 0.335380609895403
Ni 3.417534522094171 4.318365936473699 0.6850968530368751 0.7700919337723446 1.2622990378729098 -1.4467492073326118
Ni 6.164652838002256 5.644499510363293 4.715752127427532 -0.12098505902652068 -0.012895110795113275 0.9106680275569156
Ni 5.305543931122465 2.864417957660124 9.334853934342595 0.23481962305118914 0.46804490503206486 -0.866530928028385
P 0.1590976445236842 5.543172121318805 12.538568564339522 0.6599605296308764 1.0169751728562872 0.6015990589728478
P 3.908863209169222 6.3749299098093 12.620521865532595 0.6638557509202244 -0.8186988961467707 1.4167246359460632
P 2.234942018807005 8.342964307061418 1.7267433219957944 -0.8852583292345593 0.2260655310076429 -1.0931831847774336
P 6.206575453451632 7.707985399593225 5.956330457030551 1.1730426774082379 -0.8335580726467902 -1.3878267219647904
P 4.855846793388222 1.1950173877965704 12.44116056236319 -1.216235667855944 -1.4849686558251265 0.7124048634735214
P 3.8073902870704517 6.164798371056539 8.426838644571024 -0.08056088957320319 -0.39880715378116477 -0.013637645388092642
P 4.76345149555035 1.1099351259364147 3.66141699529832 0.5762037588281947 -0.6521932269806316 0.6010683832803584
P 0.2591352468745891 5.313648303082846 3.9701635507963693 -0.6535484554569454 -0.08929775522556879 -0.9948670281033383
Ni 1.7897109266760702 1.1571696978671169 2.657842882921403 -0.5971297103475844 1.1149182624616798 -0.3843940636796283
Ni 1.9145691914349283 6.5158240979869575 4.7814366523149525 0.5533296824434987 -0.06038544306659278 1.1077669961288792
Ni 5.777644063400385 5.512410071969751 9.382926230917011 0.18785559559682485 0.8256179918641072 -0.01245853747832693
Ni 8.700830087543133 2.2287932472635514 10.059328393542073 0.8829132260411504 1.6506430873392217 0.8986535195945426
Ni 2.419014045027229 5.103152931694378 6.892662840839219 -0.1766299020843345 0.7294584765216986 2.179274752815408
Ni 0.5175419188961744 0.19495880826217574 9.10747399991254 -0.2129667888421558 -1.7090865761880953 2.19059069204886
Ni 1.5011916465601691 1.1366040581337609 11.401309607461487 -0.39510270834638406 0.5748832402445584 -0.405687682951082
Ni 3.983448899489222 7.230764322967724 1.4424253992407237 1.0598609164762198 -1.603380297697516 0.14420417745546132
Ni 5.588441997016687 7.84496838693703 8.068156059822147 0.3150118164310639 -0.054301955876674225 0.9977566909463073
Ni 5.266213623202504 3.0476440730023286 4.875716603205789 0.8864963154067184 -0.5445794470546944 -0.4792091491790005
Ni 0.5581783859783244 7.644396550687479 6.991828154446017 0.8526767957541123 -1.2080125086152034 -0.2512008926226899
Ni 5.1505057492316855 4.875411893373384 7.155400940388901 0.6277240381946738 -0.8138641937622886 -0.42549700436752524
Ni 8.223208795018355 7.243516656849266 8.9186739685913 -0.02466767795000913 0.6579280725818798 0.6147224837286833
Ni 4.712405776760614 0.1737919350983134 10.40733430959612 0.2667696935952244 1.2815622569778962 -0.6109619882449866
Ni 8.14151927248617 7.105869674945296 4.496172764707042 -0.1366325357557905 0.5637084545746613 1.1634434637555768
Ni 7.400246660496085 5.918165323126442 7.025549072704959 -0.9428546395917892 0.9321529369035688 -0.20270397346356706
Ni 2.4974563612857255 5.088645105345549 2.729425134833639 0.14352874865499152 -0.34031147153811714 0.5022500901588641
Ni 2.3450468701879315 5.409854747779753 11.52832539975009 -0.8378371596381183 -1.0913672146146172 -0.10048308241842693
Ni 1.3026754647023653 3.3838618116594588 4.105473817597509 -0.5586068716820379 -0.1530217757470913 -1.233644607361011
Ni 4.06192759901129 2.792670161898642 2.544219769953187 -1.0455614691344122 0.2243513765300136 0.06424158358788937
Ni 1.1409700497622486 3.450970741315673 8.310112948801816 -0.9985398489692352 -0.16337020886095088 -0.5167433986790326
Ni 3.9047700920175146 2.92712451242428 7.193487850276332 -0.974675897867444 -1.1542453421960768 -0.05904538409893057
Ni 4.14438117007846 6.715104328379747 6.160294123026482 -0.43560478222548843 0.9335107364830438 -0.19191176794406947
Ni 0.7938500661761488 7.680952634760172 11.4455343739133 -0.4879133618212178 -0.6599055080232248 0.7009781096938186
P 0.2683811437295013 5.5785184618777715 8.181712773334347 -0.07768176825319524 -0.24624174884520175 -0.7673094859312012
P 8.59392696335643 1.5449607126357592 7.824027999588895 -1.1935009452625895 1.530013611879907 0.7262042312504589
P 1.5860738004706858 3.4128683685412247 10.579759143565763 0.9802729323392474 -1.1287456552630752 -0.028960906008724318
P 4.087668757987582 6.3358815721820125 3.9910648261361654 -1.1805263873797927 -0.021188461152157056 -0.3763151433262358
P 6.867222753368975 4.030692567235817 10.49774035249826 0.6884869192053433 -0.10014523946303398 0.07845747007695521
P 6.594939504621514 7.6218025440100545 10.170475625424299 -1.8607235557725181 0.6868015610831204 0.7717173851909097
P 2.3675681103382145 8.408035773957671 5.8906059105532025 0.329427991856394 0.09092012132034019 0.9714573909301463
P 6.727420063098439 4.0912525094492995 1.6615645244720074 0.924667427159801 -0.8445474817787585 -0.058091247715777374
Ni 5.2034070144635285 2.959014442944026 0.3543411518233009 1.2796879227733189 -0.19538635675623123 -0.025740342188897602
Ni 1.5100509712396422 0.8647283019382909 7.247790780737238 0.4637424210019691 1.7598964597511109 -2.7501234179792764
Ni 6.846247801920449 1.142370805409722 9.459806795586736 -0.30646521241263347 -2.2320767271077884 -2.223774634999996
Ni 2.699438048998642 1.6450601665347342 9.196109997041965 0.559828659904281 -0.6215045396475232 0.2487164356379394
Ni 6.501379942349377 1.8702998554852408 2.3864519337130132 -0.8292111085320041 0.5548777436569089 1.2062844701805033
Ni 4.098783845008441 7.091725681232174 10.545213234805354 0.07574341357990182 -1.6179029167937233 -0.6845101939457825
Ni 8.123864293838473 7.204559277380905 0.2503559653749716 1.1827647897920082 0.761302874725805 -0.048607733705374356
Ni 7.550482251595528 3.6649316185592524 8.173245478319847 0.44976333311405764 -0.16176789737083752 0.10067797203805241
Ni 2.9022474559577924 8.390735532129789 12.553106406880797 0.4308896361380063 0.08049686910448717 0.0963261228272599
Ni -0.06755371505336653 5.031778064384496 10.335139909274307 0.07715597765671228 -0.9230221782468941 -0.1643955648016717
Ni 8.809252212983914 2.452850480148009 5.670016002687036 -0.4799370284839605 -1.3635519085778258 1.3089234225996682
Ni 3.9019958681702462 2.667402585424613 11.125458070139326 -1.3444244437197557 -0.6535551403251648 1.0522021143793814
Ni 0.977181692982708 3.3864723108206585 12.86869574467491 -0.1278391058338766 0.16027794308887236 -1.2628788216357798
Ni 3.119801180478982 8.339016722963994 8.047334827662207 0.23803427333374488 -0.3746562675665741 0.43306298964024126
Ni 5.6815740559418675 7.946104763847771 3.6069548880592914 -0.14770267752702304 0.041463923571741494 -0.27449945813931437
Ni 3.0895121135563475 8.527054524913426 3.8562739304224976 1.2235599694314991 -0.6022446629766467 -0.8534918354562397
Ni 3.259194559034347 4.114510510686889 9.304914146750239 0.12057085430723753 1.6220261949334773 -0.0386292823364238
Ni 7.213545943482877 6.069619753555505 11.658149979986351 0.003048042797704428 0.7011241483533797 -2.069447767288236
Ni 0.8027412262112462 0.23639206881652483 0.25747162214781744 -0.2954297805340783 -0.5255283439605143 0.6187256913508054
Ni 4.691267100626019 0.3645684872130336 1.3732790068245484 -1.4907922044854391 1.3222029133173938 0.9839128430846797
Ni 6.149344579854871 5.785339123645595 0.328418986110744 -1.7993191845231076 0.3376177267560379 1.3433939455727122
Ni 7.810085932988591 8.894898415429415 11.51330911729286 -0.0823030690752905 -0.3236684636647974 -0.48822086575930757
Ni 0.17791506844246655 4.88278860006235 6.121034762470485 0.29609518203221913 -0.868034509157105 -0.671220933036044
Ni 8.419769376459232 8.59507303615891 2.2387213303104145 -0.8581113365061221 1.3614009236730942 0.4834764090957867
P 8.722569087526646 1.5521009281115155 3.5357055430087283 -0.3690173241132419 -0.6847637047174852 0.5066721304859596
P 1.9142508378786844 3.078542559589772 1.4378320122149186 -0.3994704983967765 -0.17746319661890728 2.2299141722388307
P 4.683490178037775 0.9332852854846204 8.183217221282996 0.012558296280984824 0.7797438550398119 0.6771277854387823
P 8.509554175135905 1.6585856447671539 12.398892305909895 0.42462308640300417 0.4730019919270241 0.53816428755697
P 6.343149129080266 8.055500141589068 1.3563989916909072 0.5082173634858925 -2.875412760808106 1.4496496688088583
P 1.9259207696689966 3.021584560469792 6.187398744805089 -0.15668071265591724 0.2484223014362883 0.6353018505419318
P 7.045227870388779 3.904251630511632 5.9382388792200045 -0.7134261056491842 0.34298850414964804 0.48547647024495105
P 2.4449007370578038 8.517940517388958 10.226787821615899 -0.573747069757586 1.6177162547042137 0.6325535983728331
