# total energy = -340873.91795445915 ev
CRYSTAL
PRIMVEC
9.21510617846645 0.00000000000000 0.00000000000000

0.00000000000000 9.21510617846645 0.00000000000000

0.00000000000000 0.00000000000000 13.48723936939269

PRIMCOORD
 96 1
Ni 7.492913427658981 1.8478868148810992 8.153899172299127 -1.9534426779748097 -0.9927600090626645 -2.2001989045625847
Ni 0.3298694703860446 8.660614824144627 13.175643647429833 1.4581476789775403 2.1747673518633577 1.0915759881913139
Ni 8.726696350662182 5.877247288868023 6.333715731169209 -0.24967057202109255 -0.09866814069687524 0.08928464259944623
Ni 1.8748041400739284 6.303897490546492 6.337963895124668 -0.19929880443675999 1.1592014006497713 -0.13808083816654285
Ni 6.342969540809277 5.308896399243598 6.8091000219549285 0.1655160515593601 0.4357410506930367 -0.003429337396523126
Ni 6.292277241635792 3.2120174149991816 9.717609620857393 0.5199886450892077 0.5445365096319008 0.5769936017193418
Ni 5.906781704219964 0.4828522128453799 4.681259202409112 2.231475088968047 -0.8587854797550113 -1.1126325517512967
Ni 3.881236857023713 2.47370310673164 3.634014909560273 -0.5422582551206855 0.39699246916992925 1.280138894267808
Ni 4.625826652609405 7.421312052531189 4.761872029884071 -0.3181285076831747 0.9203022082125699 -0.48467274339673305
Ni 5.642999289415191 2.620103498836563 11.946025952426345 0.9413713701780432 -0.8384493393008204 2.1887351268973596
Ni 1.4753569318803046 1.258009437187366 5.800186884830873 0.9176719696785746 -0.3945370656509012 -2.81175404630688
Ni 3.7035788247085613 6.791496404592428 2.296175928924444 -0.5228001463960739 -0.42489588044841664 0.11294830476497322
Ni 0.7517895580551059 6.475427477242598 12.966726131883213 -0.22995715275256526 -0.957608657972512 -0.6193638391554366
Ni 7.175867699052582 7.11627360729564 4.758904765689585 -1.491021546887426 0.25005598038496935 0.0825951463944126
Ni 5.6647653702455445 5.816049768633316 0.5920466136918132 -0.13778953217836915 2.3127381468145973 0.6828073523220628
Ni 5.041593813872697 1.854466400703653 1.157139041766021 0.02781162289562952 -0.39905680789812564 -0.6008886631693844
Ni 8.871272151740682 8.193519521380459 10.958314931633566 0.4072149182288858 -0.5273227168567757 -0.22336407291607982
Ni 5.179894127633047 3.1687064158871316 7.4404785519042 1.123308543407904 -0.7956371292313008 0.9153366366771785
Ni 4.0180074631558504 3.415440884232906 10.645721020829512 -0.6330454504075871 0.06030162510353485 -1.0227079615750063
Ni 7.874345103243232 5.2120456331441 12.779591284358098 -0.2615269571390464 0.6663247812860073 1.1141662147870037
Ni 4.161790765101663 5.180391743367526 4.383002153821768 -0.41059951843040254 0.2800029044560468 -0.6432992669251114
Ni 3.4717820435033473 1.0653123515635197 10.816253933035423 1.2650172081350215 -0.29048837736840294 -0.9895391881325215
Ni 8.721287083326272 1.6660911998848176 4.091677629624209 -1.216968946477543 -0.33756064826585735 0.7223609462449688
Ni 0.5339048226710541 0.6697447030775922 2.219230713714719 -0.693286911697148 -0.7679548328246839 -0.09736870515916135
P 4.91378029096118 0.5422251420536647 12.52135083441843 -0.02896193444998883 0.34294350984432553 -0.1951613852296187
P 7.85733401720901 3.320995260850055 11.799136238182516 -0.9150507300056434 -0.4137336931840101 -1.2043540859270097
P -0.013161014666346773 5.029540454970875 1.132732833011071 0.7040744892309552 -0.9794589210783842 1.023268976284799
P 2.6894471729468132 7.256545953781517 0.16417725346387116 0.7736577967467321 -0.003501328285039131 1.0688263531996238
P 6.9350401137771955 5.465497913905338 8.93096668815514 -0.1898147762057247 1.0330581944610788 1.1612917075198967
P 4.697013347958467 3.483411507520242 5.4846266313429535 -0.34835902443294203 -0.7038988828850393 -0.8028894399183398
P 1.479549805198599 1.4283598902906334 0.10909395618891815 -1.1363064983294688 -0.30614742406189854 -0.43639102557220977
P 4.470211154310429 6.690157881776425 10.160045299446274 -0.48083228660472027 -0.06274083067264677 -0.12839780655082403
Ni 3.0030372367304436 2.607312931439217 12.6438149881843 0.5569248559939246 0.21932486984969973 0.45690791457863894
Ni 2.862304134934863 3.2767903964371814 7.525542275670885 0.36521209143453875 -1.5762806132672467 2.2172874846137556
Ni 3.9636014761861604 5.439078204446988 6.9269520150706745 0.3277873709291774 -0.33404312203090214 -1.0816839258885822
Ni 5.573683260623523 5.011801375547323 11.877685803380627 0.029762061753781002 0.43634217461214536 -1.9106250685886512
Ni 7.341177489067701 7.894498540489626 8.391841507825154 -0.3366972718242976 0.037946911557418514 -0.46820354209711623
Ni 0.8470488753148921 3.6941609861782387 12.067707743676339 -2.6697869857120535 -1.0334487450312784 3.6004214290885668
Ni 8.357870940351397 4.019223857173466 3.2393512629919825 0.40010221844350446 -0.9111506236202888 -1.2519416058979858
Ni 2.5087020800566537 8.32868669903483 11.638058024931707 -0.8182623228299843 -1.2336502637879656 1.3881056866577899
Ni 4.706541767763118 4.851311086071693 9.053255754903322 0.5980208547032861 0.9226550247154626 0.03552698926201624
Ni 6.781627025858598 3.8304339765758977 1.0916196367263027 0.33803424546816624 -0.4236717782333284 0.0898392295513356
Ni 1.139669043443335 1.092745722703216 11.267563758889178 -0.7789630110097293 0.6140167159109103 0.3311683715862684
Ni 7.846616848705326 6.661084221734188 1.5472697775974569 0.9179365361938707 0.011832730968869944 -0.1256516112642546
Ni 7.342578185209198 9.102608177636194 0.7290826148823395 -1.3981759264095985 -1.6404170387358394 1.4680713658491555
Ni 5.803001178262537 0.3495151552811466 7.047109627756173 1.3134925300275895 0.7477480188595058 -0.14293456671441834
Ni 6.163846306609271 2.6249137842698587 3.3623959684480775 0.927118459803455 0.17483887162218276 -0.9892219140024188
Ni 2.6797805265492514 0.242868731297369 1.4946423061232192 0.18231152585014407 -1.7852814754831188 0.4154180228649684
Ni 1.1537405106016543 7.364086243066118 2.1745070388231205 0.09611632080929898 -0.13059481420214283 -0.3062309849146403
Ni 3.3947990463582265 0.8236231538589894 8.09483863519082 -1.0883729078729836 1.7121204779184127 -0.2921508526724904
Ni 1.9038501547975843 4.171392905755866 10.426391356794234 -0.5858968177462426 -1.2610358548897702 -5.321069484862017
Ni 2.8026271072221745 5.515130475866509 11.759011822792372 2.3536156017552496 1.9613513912989253 1.52777263836453
Ni 0.607285634804919 1.7807547662574217 7.63203757191308 -0.44617458732153475 0.8344476743405952 2.77288745114867
Ni 1.6802271727864952 4.797771319084244 3.0329835673292584 0.4522670733725179 -1.468806187132651 -0.7552517834357186
Ni 2.448269413636053 8.30397178422238 9.283685014349338 -0.6037996661685923 -0.20686890347453404 -0.17591282141265188
Ni 8.653399395994683 5.493797505027275 10.571527436329333 -0.4443989834783508 -0.40047631395347155 -0.9445726507241602
P 7.704870085228399 7.506929604180137 12.928840987298221 -0.4647194402032577 -1.3061813410781569 -2.183987842020361
P 1.2709750916023987 6.627532020081641 10.677766552619333 0.21384919144710912 0.4070899626152473 -1.2225585247501782
P 8.072036776424255 1.044043886467645 6.220746822825692 0.4615320436142116 -0.4602197525606913 -0.7564578879286779
P 5.934482313439287 7.539514219682309 6.496466486194241 0.3974663234825542 -0.9820768183172055 0.17818361972469957
P 8.535197228843563 0.369293537705443 9.39834028712637 -0.017777378588079065 -0.08956360729244575 -0.14787776965230665
P 1.2854704536456447 4.5459961876503225 7.483057871584442 -2.016890047796178 1.2051053622707375 -0.531510272575562
P 2.3111025579375712 6.5054871536476 4.235087719769162 0.2031588016127985 0.15544812580039682 -1.3593409558202718
P 4.478661406690375 0.5000227202167593 3.0735263485406144 -0.24997113398064688 -1.2724412685132345 -0.6219118023882709
Ni -0.05159353655926503 8.203748289255858 5.306189922554405 0.869053951560555 1.5714214854027324 0.7874260541754181
Ni 6.262199135018402 5.5166601834947215 3.0883083003864953 0.030773790847747 -0.22221350425140438 0.2830018391833707
Ni 4.000480331174761 1.0491306250867622 5.63931140391633 -1.700562083656852 0.8419036163980081 0.519897370926982
Ni 8.219782574033509 1.489069009897056 12.956718526556473 0.3980620480850241 0.9764350466503959 -2.172410164485091
Ni 4.619763112733718 8.484938039661197 0.8154355320055732 0.12624296499135032 0.3873042953478878 -1.3725284010448233
Ni 6.8617523742158895 2.815362383982356 5.5939002821026556 -0.23602032822750965 -0.3420883609328818 0.44602880577228987
Ni 4.785524442952347 7.449040307069095 12.133538619305417 -0.6018445993247505 0.273005132981975 0.5305273398370024
Ni 5.2165333898606026 8.681035499470648 9.461797351399857 -1.0393951924227003 -0.18052049538799234 0.022594597471064314
Ni 5.998886690629526 7.8761604791634605 2.411303015138609 0.5797667935891048 0.3000467104807994 2.396737886866021
Ni 8.420118982692227 4.147664007306179 8.189586514056836 0.4603341666513685 0.33694641172062617 -0.819275337475531
Ni 9.18196867217938 6.116821619701018 3.9665023916160482 0.27581226341346693 0.9317456741628213 -0.07242051985425593
Ni 9.176688416330189 2.7341772984127477 1.10428395716879 1.0231319364863025 2.1596546645916352 0.8773938388848179
Ni 6.635457011408526 7.259402636701674 10.651251006056565 0.7656141005066492 -1.538723738059395 0.646393589579719
Ni 2.492160964438328 3.6636958451006993 5.37357262206656 -1.108325953956143 0.0959150034317703 -1.476430022226496
Ni 3.9511887281427707 7.997615578801081 7.191867887937316 -1.1265291072277308 -1.1714290530642149 -0.2613456943661757
Ni 2.1933887914147356 4.866497581079493 0.5268368362202153 0.552404599526068 -0.4022634877608814 0.6707797317335674
Ni 0.1801792853698445 6.798435379556551 8.297498172121058 1.452492537574292 0.03587485951973822 1.3331565841154203
Ni 6.735118384897212 0.5677565152749084 11.188730368420291 0.28494405051140603 -0.34369967128405965 -0.4057349912492496
Ni 8.693061213053888 2.5393883836828506 9.810145874236836 2.1265378274330087 0.3826480275227991 3.35919950205546
Ni 0.0014541437574215942 3.538176883631501 5.679530734900276 0.25106282438292893 -0.12231226247837645 0.4646721319050901
Ni 2.568157945220685 6.0054847066644665 8.900323695528055 0.03858531647236581 -0.5401342667991471 -0.37901788696937955
Ni 2.7816350953121214 2.519585120471831 1.6766793569017848 -1.966558646531478 1.6265495367251277 -0.7249629026441902
Ni 2.409289514435208 8.67926619908139 4.398161925021605 0.37344450664666007 -0.3002727104486764 -0.46602298950602966
Ni 4.441902348082298 4.3709276001757 2.1381055263353717 -0.5447385983403781 -0.5892384805249659 -0.5650197171869172
P 8.26602397691527 8.328659053716247 3.185726717027548 0.39586375488212466 -0.3078782907100762 -0.4957138317022431
P 7.421026384239172 4.868773712309424 4.927306223832811 0.3318646263223446 -0.023773705380830023 -0.4995524887220429
P 5.273777629538061 1.4541345423154002 8.781892072232703 0.7770925334598939 1.2840929938195496 1.9165874568196735
P 7.250058519020904 1.7572193850378097 1.5713709663373838 0.30921243614046745 1.553409365096028 1.230319913863152
P 1.6887880064407708 8.50149758549191 6.932751081398592 0.21644651986064012 0.1847895550769914 0.42430067006657896
P 1.5074347165418038 2.316530255485868 3.565742952300391 0.3971845305760772 0.7087670096106181 0.5279498089178133
P 4.417519177092833 4.170222587269221 -0.03995670045741465 -0.640541244564 -0.9435478090040719 0.30072856703917245
P 2.006690739923218 2.1615413844080877 9.393497748821392 0.13763243777521458 0.029766432629155185 0.684409663812176
