# total energy = -340886.1377624483 ev
CRYSTAL
PRIMVEC
9.11143071728004 0.00000000000000 0.00000000000000
0.00000000000000 9.11143071728004 0.00000000000000
0.00000000000000 0.00000000000000 13.33549985227412
PRIMCOORD
 96 1
Ni 6.776207571655048 2.019548648733019 11.392437477686785 -0.07069839495682663 0.4149662800395305 -0.9334189481001859
Ni 5.190107911496479 0.7608910348809839 5.802715876091243 -1.1799021235322322 -2.0270057960739414 -0.32210240472925816
Ni 2.556248371742132 1.578528061119104 4.517493885585109 1.3667123085836785 0.7326543577511769 0.43667050448584155
Ni 3.6400166260719207 4.467553221932636 4.682200309985207 -0.052075894759632896 -0.7454563946118516 0.24211512827133788
Ni 3.9147809348975144 3.0388717526342557 2.3607033984744406 -1.4222386237857572 -0.9455679247578941 0.3062078449861888
Ni 5.363252432010233 4.837003520190369 2.551561451710964 -0.008758720029236527 0.4200735193591088 -0.21145883683806163
Ni 5.6787448367520765 3.1206559559774885 0.11698712758976978 -0.5792456309783122 -0.6565332491168823 -0.1359463083220433
Ni 5.903942961733287 7.933058612862741 12.074935583788301 -0.1462111805831611 0.8840877059652258 0.21574512291824133
Ni 2.1572497032256974 6.623636662009054 13.684489889250585 0.681074428791356 0.08678347344414732 -0.11895825840447899
Ni 0.5191192171768075 0.14285447978355748 0.5278634573671486 0.9408514931188313 0.46251523346308737 -0.4746564968113116
Ni 8.023280001176543 0.2431421769045798 6.661282360867481 0.821708629507372 -0.9981333575594359 -0.3934145220106837
Ni 8.420620389277595 2.550745067506468 1.140176211602251 1.1407105409344356 -0.25672850730913854 0.015184163939606107
Ni 7.030735392554469 1.3472435003275904 4.5835982275721285 0.6750724455716502 -1.4678116844298656 -0.39552231238230595
Ni 1.0215827387529657 7.53905300845416 2.307654825757755 0.17885313498789843 1.6415526950021793 -1.0377548286058
Ni 7.888203038769744 4.204943561865941 3.857173002181614 0.8345978267652143 -0.20605514932398705 -0.6567931876464881
Ni 7.65667246934518 4.242992897111188 12.518900985854149 0.43186562689803043 -0.6546781981860145 0.21324832463831664
Ni 8.702336719844599 7.111061766961103 9.373322533062405 -0.03292297598026588 0.30409208419476663 0.7917673618632493
Ni 6.975182998639173 0.8761816140457859 0.10369628340340906 -0.4790196588760137 -0.1572617819703679 0.06995200370910534
Ni 2.146133757584126 6.253767237932049 9.233767302390989 -0.2614608797878013 1.4966034118505773 -0.8070839376156616
Ni 0.2853381243313674 4.972098705458876 1.2596234255225325 0.05324728935991475 -0.2914252873603755 0.2579862909756396
Ni 6.870501769560475 2.206779441346666 6.864115567675084 -0.015117829478044933 1.759822669090382 0.718827993391046
Ni 3.8887769112409205 4.666965997597743 0.34899695827724153 -0.7293096096486601 0.24023976562549595 0.14648217485636064
Ni 6.381810175719755 5.809785435290666 4.679947053135076 -0.40668938474271893 0.30933019266525436 1.2819762045868632
Ni 5.594555215663455 2.8556499895962575 9.334557039352052 -0.35219228213610315 -0.9529580465743782 0.842395211322446
P 0.35542051702913313 5.68028466856636 12.470386261130287 1.4539668081269734 0.08100954707484757 -0.5128795448482522
P 4.256514260498149 6.567810925168146 12.504591483698338 -1.648376402792232 -0.4384926452962449 -0.012977128985958295
P 2.7281446262289224 8.749005468677492 1.2635814310854 -2.1700601761956753 0.045333433829476764 0.4375817034462013
P 6.751178471099804 7.967600047229295 5.386554916418691 -1.365050090389907 0.5429069444482779 0.5672457783039586
P 4.827974092214307 1.3160824068077757 12.190473993872326 0.6915362475546284 -0.7894430846054469 0.6756720268288622
P 4.090576881789709 6.126334766011543 7.999606681532338 0.5152213056075514 0.5973996761795196 -0.4712724108304271
P 4.939826017374904 1.369475391610733 3.6972273004025977 -1.4260703388270215 0.05277626326076717 -0.8465056339463938
P 0.3236808476501055 5.905346122084764 3.3469037177930505 -0.400165210470956 -1.9812519868775944 0.7385930918331152
Ni 0.5146281929089956 0.13616942296616333 4.549578878193493 0.7648803076644181 -0.010674963215342906 0.11657278889143795
Ni 1.9447620242854637 6.937616569229175 4.425411943090971 0.4048129936556125 -0.11549266845338174 1.9566717264350688
Ni 6.149559803257745 6.0247058662688495 8.999275517938957 1.372939777550629 -0.053727571430442954 1.4337314549167048
Ni 8.876119040518114 2.620411067814218 10.150716191505696 -0.25864577893650936 -0.7638608652609683 -0.3137015822600726
Ni 2.3972539033442466 5.642955136358558 6.59171111944061 0.9217445970860512 0.3727726773906161 0.4793541593972971
Ni 0.2764462789611957 0.24640589143639197 9.120681689492793 1.6752056071699344 0.10278164864461653 0.43753696625119487
Ni 1.7663419853073905 1.0079611496266139 11.311464191689536 -1.912201669047152 2.3659815795197705 0.9693298030641821
Ni 4.480208999388491 7.348177643499014 1.498136995553409 -0.5495187933378407 -0.9826591731832367 0.31350129332380844
Ni 5.762369549127767 7.843465913277846 7.615890615986894 -1.416847534677173 2.0009934311705795 0.21976941358628604
Ni 5.63352480542493 3.218075374665751 4.942870146423141 0.1017650344546441 0.5966933941411143 0.0035596923268003213
Ni 1.1942534648623246 8.387044766581537 7.197476399464209 -1.1151128949709892 -2.709621086989856 -0.8507204433586898
Ni 5.567002248761724 4.337168646415517 7.681647812458386 -0.2766072485109365 0.10735512694791188 -2.345291141049954
Ni 1.2088226427974662 7.749135269649004 11.810838938206274 -0.37215484130095905 -0.5333282996209072 -1.3143376516367042
Ni 4.92447325638634 0.3101039045349371 10.050125994880329 0.36358406891281253 0.013213156256164342 0.37931330672261127
Ni 8.649827543834455 7.149539339456476 4.952191140186524 0.09928597678653224 -0.4269226810704583 -0.3985479865825072
Ni 7.7881413051338955 7.064438575282479 7.191795422326899 1.245293761564165 -1.6153454404791923 -0.30396121504385715
Ni 2.618515890196638 5.630773153307099 2.6335615959654306 0.237728569167868 -0.922739614009469 -1.4958459648592626
Ni 2.389864532921858 5.1997113596163285 11.5500096517284 1.1286250705248113 1.043197596887926 0.30293611621345246
Ni 1.5258093221993239 3.64500057874892 3.590463198230732 -1.235152559365105 0.9998236007776653 -0.28601774319155904
Ni 1.487450198305049 1.6207777659879286 2.404003651320702 -0.12819083274634052 -0.9413299754171465 -1.185131747362288
Ni 1.4714049685716004 3.7158601764985106 8.113078619098733 -0.2909408915247893 -0.3048690715701072 -0.3217195674685427
Ni 3.980374125613639 2.712937648134018 6.7408151296467524 -0.37897469243626986 0.5241232360828716 0.18779440334158626
Ni 4.422925433610984 7.109367040822306 5.744307048603298 -0.6109481042879156 0.8465030628432325 0.38473190663502127
Ni 8.33206639281003 7.231259762783733 13.489925305942757 -0.10592276537675953 0.9481709095983798 1.4060134201761463
P 0.601317990623886 6.122198176403942 7.717534094018953 -0.28286325672297735 -0.19849019249253558 -0.31374400546223385
P 9.042357096444729 1.9392313857572394 7.738590610721963 -0.7391852168911592 0.28051763930893625 0.8015249554706455
P 1.868490236608748 3.3153034533060857 10.308381302142017 1.2559080467449018 -0.18086399477034013 0.08656698655796705
P 4.357760480144985 6.191426828030712 3.8259280834979448 -0.29537887269148483 2.3730839948925064 -1.294332926380003
P 7.095098540105338 4.162721191289677 10.31035483806494 1.029019505615331 -0.13056293252294288 -0.9519375757296638
P 6.636711565284181 8.0026243874311 9.874017525909851 0.3285748998274793 -0.26562709535034895 0.2581127892511748
P 2.6504514553390215 8.751875569396422 5.518830113837963 -0.7508107169452296 0.1423496407452258 1.5518147669153983
P 7.120665215080952 4.247730841155136 1.384785328874284 0.1497526180775163 1.511566718028629 0.047038589446041564
Ni 2.84741325610447 1.8009836454133366 -0.060039773610765755 -0.15253300903613085 -0.2665364945384958 1.125505551059223
Ni 1.875870495600283 1.4172921807311971 6.911989758809927 0.6319897554495632 1.0425607346348755 0.19705525981822192
Ni 7.292689029599695 0.9669505993538987 8.981552873785333 -2.145401239996415 0.10229596725744963 0.20542342927725912
Ni 3.237847179618382 1.8379304975252806 9.390979574913882 -0.2974514389497974 0.22150413688920562 -1.1454493411710016
Ni 6.281793999238174 2.596593787562523 2.515421872372662 1.1359234039584374 -1.046200388269992 -0.2315556075879367
Ni 4.251384524927489 6.943056093448862 10.152049193839598 -0.3241623725820804 0.9190745064530559 0.7688182092662437
Ni 7.651424285173421 6.34724140706064 11.511096552838218 -0.5036264016811004 0.16921329790528922 -2.058458615266584
Ni 8.171322529688224 4.519798166448021 8.260368543421894 -0.7837352355873922 -0.23267043791867026 -0.4610754156927672
Ni 3.3863179453801893 8.738727774674464 12.468492905798877 0.9513295098320197 -1.3428226464502744 -0.5199691047051819
Ni 0.4397422538651346 4.95134286597404 10.178307426417012 -1.4232133289942004 0.21233866833985363 0.7543063888033138
Ni 9.219492423672424 2.382657391116544 5.393009454035486 -0.19646981962839713 0.13606020819208828 1.1991753699395478
Ni 3.8563037716781663 3.0944970379963808 11.528259755137421 0.06887882524958461 0.48458661144083 -0.7455378985820644
Ni 0.9176668698659813 3.40834938518455 12.30699917191781 -0.038375257344088747 -0.6112370962832441 1.0274670735265468
Ni 3.3963222964576034 8.61776441866012 8.04597384200397 0.7618842011505716 -0.15283614209884647 -0.29977211666317405
Ni 5.984068884661139 8.395737071616013 3.159539898288939 -1.8815510340408306 0.9531580784003262 3.684291328430345
Ni 3.4924752262571954 8.55174299069387 3.5677392896814872 0.9815379150945999 0.03765483423829644 -1.2458146670646417
Ni 3.6231240332690735 4.4452393277718105 9.408941849698957 1.1227639837583436 -0.4782496134792086 0.019084527435276808
Ni 5.4758970516551075 5.0915222296589375 11.338375713859163 -0.860772171167737 -0.6140406271703103 0.3748082197634061
Ni 8.238510220803754 -0.0817031116086346 2.6296937935680154 0.6097651397234078 0.8394369000250704 -0.19597462515953346
Ni 4.600780563876125 0.6063666344599472 1.2293197176460555 1.6581666494097764 1.2364905614502384 0.25295001410331275
Ni 6.045069914226975 5.983740873150404 0.3838691375837873 1.1520146530933448 -0.3162500597135392 -0.5841065586150392
Ni 8.164816968058648 8.858679761864042 11.271671839721966 -0.10804084016102683 -0.23252799880353503 -0.4756165467317357
Ni 0.31592155313505454 4.7534334763998025 5.84458927886581 -0.9632424592195216 1.3214701489164273 -0.09863883012083657
Ni 7.250831116257582 6.516458900876429 2.547174297754885 1.6757820484986945 -0.8325923662994112 -0.7304997733020193
P 8.564180093809235 2.0488510103586695 3.4022192145061485 1.352468654180471 -0.19703700498577678 -2.1290048009162628
P 2.095137079095704 3.432904691335398 1.034989298111169 -0.5378986926004091 0.9508667112629882 1.2493589327724741
P 5.096870639570088 1.1098087237097978 7.873799688876141 -0.11500390174242128 0.5142663978934497 1.8595878995061779
P 8.771018685620144 1.5076229062152449 12.308266571949565 0.6498231840865584 0.9633717857085344 0.2862797386036941
P 6.703662359197514 8.331410369788559 1.3028152523416348 -0.31084920041294206 -1.8067075065673788 -2.1795490895227174
P 2.0531424942907845 3.4895595683839966 5.734078556326883 0.6473986338054657 -0.88864267232576 0.9927813492189033
P 7.2877050769226965 4.302964334990551 6.18360466464277 -0.7726280699306372 -0.21017097126457354 -0.6617196784138282
P 2.2891832219879538 8.854752735166079 9.866896031554562 0.6157110728941977 -2.452183726539151 -0.8216410094942301
