# total energy = -381164.36515025696 ev
CRYSTAL
PRIMVEC
9.31781646246638 0.00000000000000 0.00000000000000

0.00000000000000 9.31781646246638 0.00000000000000

0.00000000000000 0.00000000000000 13.63756625214717

PRIMCOORD
 96 1
Ni 1.8123898158235718 5.6704223432874 3.5744746049250127 1.1426540378140515 1.8595552464960297 0.4063623404206034
Ni 5.166608015128245 1.6763031085410784 1.518379166942443 0.4564723697031171 -1.8843159983804774 -0.15069724137897272
Ni 4.8610209112571985 1.4391833189536154 12.184101472404397 0.36600167721536964 -0.7197877862011539 0.3284316893813956
Ni 8.67511993479518 5.913924837050727 3.135085522331941 3.348081794875743 0.6964930773392713 -0.06422384297607649
Ni 1.0741392291757137 8.554202632473721 7.02235083492123 0.8249155664804437 0.7456134890150062 -0.6420623091942169
Ni 8.112594046034385 0.18039199207931175 4.347164772455228 -0.45656878607166534 -0.19448389954661988 0.2800424994447306
Ni 7.998115354786681 6.748819814519129 11.960417973943354 -0.4268411771002455 0.19626670247865555 1.497638537983311
Ni 5.079644835459125 3.082175234168099 8.938660392544199 -0.9805560107973048 -1.4410120477385182 0.03876940745871388
Ni 6.635039959495058 8.366718850396962 6.320002726317204 -0.37047128295094905 0.8498537244830202 0.4474136019349585
Ni 3.9469617663754413 6.677119217974193 2.3102854670593533 0.22076314495812302 0.42495090205606817 0.6386802800958613
Ni 6.299533347436124 0.7814461195215442 8.493857658672036 -0.3762904607358874 0.9398618755120524 0.10174086608492801
Ni 0.6649547799497719 1.8731326603819134 5.241993808025816 -1.367512950108103 0.0489445482195028 -1.1705060270293133
Ni 4.307840792260479 0.22585920857062677 6.99338453934238 1.7433215861115654 1.2879913004326915 0.10173161011354738
Ni 6.7403965085702495 8.995410552811506 2.164240809480879 0.9821300401526442 2.2341595777787457 0.32575388543891637
Ni 5.444390755114942 6.395208685359893 13.099113829895192 -0.30967369204760214 0.5438384551236117 1.7977708661993812
Ni 4.489528892589226 4.40544491816148 2.389151464350625 0.602517457022059 -0.31165318437147616 1.0766458492440425
Ni 3.347444146843574 2.422334071812071 10.577214231847787 -0.1469349461230631 -1.9350376931050612 -1.6133965442829374
Ni 5.523853092650382 7.5651537018877875 4.155706941720066 0.11311105559508261 0.9238724420623315 -0.17332140653639183
Ni 7.969239442026089 8.364929829664456 8.48022010271321 -0.07970085556575306 2.215042654443637 -0.8333809236389776
Ni 3.335480070694945 2.327348252295622 3.032680857465384 1.6701773007174074 0.25324954762160257 0.672560477783074
Ni 0.5336844519205696 1.546906593372849 8.692407279404645 0.7665425258581895 -1.2650262069960858 0.0027495377206791355
Ni 6.147494538622126 8.504622531860907 10.54813891781805 0.5699768040818763 1.4551286896455584 0.715523097387529
Ni 4.467501574820255 5.725686311852444 8.322202051169791 -1.0593094148481241 -0.31292099534030626 1.1167532587878897
Ni 1.5280566509673383 4.182860922025622 11.217989278459791 -1.105386925932477 -0.9783752010959021 -0.6803959146670928
P 6.99440018132073 6.338807943204403 7.196325646904311 -0.5248914817074638 0.6477228499141038 0.9374031295589147
Ni 9.10389788816858 6.697208429949615 7.431205433449616 0.672696489140306 -0.6130314691795056 -0.00276702122217588
P 1.8261335948883906 6.311953996584194 8.692789309873564 0.1393854159105793 -1.1067516674904876 -3.7678012733295434
Ni 7.7625982296054215 6.556127373122211 9.665038217643316 0.5215711590849792 0.28983994515112665 0.6635996690453604
P 5.508944586546172 2.1214897364454246 6.536308377819927 0.6633405018467028 -0.5707301373081333 0.6722439749839196
P 3.142815582746974 6.12090149085874 12.05436765228556 0.22435908983949748 -0.3497178524536816 -0.1289192262719328
P 3.8690275507156824 0.36840316255950645 9.174550230378065 0.31867152467083826 -0.13516726406417368 0.7924564175104739
Ni 0.8760377954078633 5.839596616304924 1.2949798618790107 0.6231605871937074 -0.08685340745013428 0.49691145155477
Ni 5.166458930067204 6.189489936754422 6.144146647220098 -0.5140062022535278 0.5659643404883736 -1.4867152062025877
Ni 1.5702570410585683 0.9479294071872594 3.230575435711039 -0.026115466140129218 -1.363833701484303 1.6949452516907066
Ni 5.846025909562365 1.1524461574880778 3.795907850745952 -0.8004751740498923 -0.6912925069749385 0.6335200760511606
Ni 3.4134701932525946 4.174549429872525 6.814392083273601 -0.5571904509504856 -0.4143247898007897 -0.2096904320837292
Ni 1.1009465867143466 7.109745429485741 12.599065763090616 0.9173611233063749 1.5760448431073566 1.7404121257742542
Ni 5.453074959920644 7.842722132099235 8.497144984268015 0.10800921559214302 -0.5073814978481584 -0.959110182218703
Ni 7.71676389115129 6.901930172209367 4.925124692160407 0.07322861757784808 0.3305695616600049 0.8952259819702324
Ni 3.2355651263477916 7.297163986848293 4.658674280376173 -0.21020079606124445 0.39181195341025427 -0.41923868216263926
Ni 3.316974887493094 5.273837445282778 0.5476788802442655 -0.8465637408778387 0.5239707696654072 -0.7233580200509154
Ni 6.6753861041395774 5.405293197856651 3.4678964901309084 -2.9735797934988466 -2.724165560462934 1.5699364162167737
Ni 1.4504206054296636 3.6287397035810747 2.996813787123549 -0.7348729626690506 -1.1566858333167693 -0.026675452408657284
Ni 2.7698606669175256 1.0636100967396152 1.084865899317693 0.8929731813803137 -0.24875577351630707 -0.8682556240289755
Ni 0.4950518536964035 3.2518992583482165 7.040774953121139 1.7256110562056797 0.29794123410202233 -0.4346727573295224
Ni 2.123651469830535 7.866715509110699 1.514901757893636 -0.916043432936216 0.4545059900053657 -0.5794634034160729
Ni 5.825256496995937 3.512062007683 11.182122208117956 1.0841552702472104 -1.378881854066677 0.004671437333740341
Ni 1.2987638270845856 8.433108291642274 9.40027898952028 -1.5734518855692 1.1313229290719484 -1.0993769722929712
Ni 5.879122793113712 3.169045235674069 -0.1543775807090965 0.3118172207531662 0.8952771469231421 0.93261110748691
Ni 7.609049934548371 1.4313190819836443 0.5694909564563564 -0.49389914709100746 -0.23214284754997438 0.8846134965617087
Ni 6.305878780346728 6.928690940666424 2.0312886156067957 -0.6896156334931478 -1.30429235158556 -1.9986488421978033
Ni 5.813898078907792 4.219358808531991 7.188715786319743 0.8869357169369821 -1.1282124084674245 -2.728785575733449
Ni 8.632090259051903 0.6014063408989444 6.651027468728562 -1.1685638157012777 0.6044380710835396 0.5875425808797817
Ni -0.06737153908492584 4.684215346677581 8.886947443776851 -0.8497714491818591 0.11362296223449463 0.3006108105143855
Ni 8.895411748117517 2.2233521044024407 2.7550341575968886 -1.0817587449905757 0.3084398196405011 0.12451441233601782
Ni 6.625945770771491 3.023445037933826 2.6893687106792634 0.29446998772397026 0.7969165101643566 0.05608115926428406
P 8.990882094082354 8.266505735927725 2.926839781941807 0.6235200274156552 -0.420935867359404 -1.3782910145602134
Ni 3.7355591498177407 9.091756773509966 2.7396373979177655 1.0389298227505077 0.0167237405125841 2.1348610025867236
P 3.136945358468441 4.239625059017403 4.602787881681278 -2.670345943539317 1.0139716101432732 -0.6940363882686628
Ni 9.089669582655375 0.10858330886512035 12.783444848771174 0.2224407897708621 -0.12782470765617338 0.34659627610556437
P 3.670250575264985 3.007679292728624 0.8857991397795949 0.3157160415869401 1.4567579977188654 -0.9706307812637928
P 7.265744310233671 1.4067293647280126 10.742283074996864 -1.188210900508244 -0.8796324984073496 0.2629302652444762
P 9.093965095976651 3.954211027468613 4.535854279963164 0.13181017466648268 -0.4324682934790358 -0.4545818375486235
Ni 2.870679439447247 2.014838010902431 8.151514564782689 -0.05774749122311345 -0.5238131610416205 -0.6194679688334687
Ni 7.468080691516748 2.3721203596898284 5.048899768745717 -0.09011228070706416 1.0728503867573522 0.6722234061586294
Ni 6.7187884925354595 8.845794376239443 12.934154005197001 -0.38439534923120894 -0.05458014923872535 0.02543129558891104
Ni 0.2755539183241169 4.885769031390187 12.966570688157343 -0.620760462392647 0.789171319001299 -0.024281498255183987
Ni 1.414761322391656 0.7847464900603638 11.07419487352142 -0.12696184543524588 -0.9172186841912396 -3.1891418538720044
Ni 0.7268949639046076 7.429793784277873 4.737267265649412 -0.10465572573887781 1.5813017206309217 -0.18137975806449405
Ni 2.8876005938755256 1.9401370775040228 5.506139923835318 1.3193947544446374 1.4451399538639629 0.26615854237378683
Ni 1.025714537785976 6.3357889707183 10.528896695345672 -1.5225090759727458 -0.33152009849873226 0.9506252846761435
Ni 1.4288498606601348 5.666490224802414 6.087332194020216 0.8028837834913849 -0.880980784905128 0.4050497922567669
Ni 7.883422353763729 4.806679406507351 1.3191083472270435 -0.28263160032814555 -0.8515005160578238 -0.4630675064221315
Ni 2.1521919412037827 4.0047508631618856 9.029118685113126 0.7201145734129534 0.9290233901356516 -1.223577452932996
Ni 4.768690669390561 8.494382251730578 0.783168983758212 0.25361798670461483 0.07473117026530356 0.24865961425807498
Ni 3.940532473118 8.269878785433804 12.328318906203476 -0.27214998407053126 -0.3694220157508283 -1.366705109494827
Ni 3.309436774094153 3.6304169105177984 12.400980169610502 1.457503360525322 -0.06102153398869491 2.4145103803580934
Ni 3.305029446977096 7.504699709635214 9.603915206179318 2.3816735363337305 0.28798977931626535 1.5307515184871958
Ni 8.028780288279778 4.481944190108709 11.124626622545438 0.24974899066751186 2.4918486492289404 -2.7370827827452344
Ni 4.878603630643851 3.3801403642933696 4.890349669890706 3.2271170475641973 -0.6346364490437908 -0.7322854044475323
Ni 0.5723813430773103 0.7000112002721905 1.2790268285658744 -1.5610794800467758 -0.9026626407539358 -0.8466676134455549
Ni 8.674616772714163 8.555991653206226 10.709744328642792 -0.13608540500306887 0.8956319591593994 -0.24133839800631343
Ni 8.381534178338022 2.956440620811716 12.569526421808387 -0.256105786123475 -3.010294375311061 1.318186593069149
Ni 5.500614458760445 6.313025545460434 10.901584189846876 0.8095881920947541 0.8255719691175202 -1.1272248477431746
Ni 8.145131860606824 4.741016754934622 6.298032247227757 -0.059445704861142784 -0.5066140235545146 -0.06366205693533553
Ni 7.887578099840277 2.6343609820628853 8.119547932350368 -1.5335041415316686 0.4499541089686251 0.12767224123870918
Ni 4.110647845583354 4.702925521838363 10.480292170101052 -2.323106891643431 0.4946033722468836 -0.645931819451952
Ni 8.340041942286742 7.610354428832489 0.8636413725822125 0.7713638585062329 -0.05087904623805431 0.09013182109108993
P -0.27825422149224194 2.8021841717147167 10.184220420251016 0.608911533473861 0.19687579681756417 0.11935652228416217
Ni 6.592597306179635 4.827942663338481 9.120913152541643 0.16277654114100998 -0.41621095107990896 0.8749456344546416
P 2.1800056229044498 9.423387173981807 12.887295638729839 -0.21869057869981046 -1.5633713614047462 0.8293630607288361
Ni 1.3746481231550154 2.107885724625333 12.727408433233604 -0.0967405846568592 2.68157215127244 2.8079063904260155
P 2.776047696950773 -0.09024025566715274 5.577819089402729 -1.7153819222785038 -2.022842408724871 -0.8092230954458515
P 0.6886676906901495 3.4880313594062757 0.902185451551385 -0.9954010462299373 -0.567238579215107 0.2509895479428323
P 7.059168322527209 5.013069037887512 12.991445530592218 0.07024588080044032 -0.5161278765822208 -0.3440313435918656
Ni 3.253492604938104 7.50545445275674 7.024737127679535 -0.5754995336723185 -1.2103002762081156 0.6618549184401118
