# total energy = -381170.6655121695 ev
CRYSTAL
PRIMVEC
9.17980141107223 0.00000000000000 0.00000000000000
0.00000000000000 9.17980141107223 0.00000000000000
0.00000000000000 0.00000000000000 13.43556727364864
PRIMCOORD
 96 1
Ni 2.0761222911374757 8.148753830280011 6.284634467365113 -1.6292198844684393 -0.034088199932960646 0.5841515529203617
Ni 8.022375501550652 5.385633546446386 4.12767484327269 0.5568181552127314 0.4575733160767797 0.08540330526716905
Ni 4.875438532709161 7.576732852716807 8.438356375430597 1.1421138490398655 -3.394992600494669 -0.59020650086519
Ni 0.7984646516944153 8.395121345819968 9.065367118562735 0.9016529685424987 0.894851372239633 -1.0358306149998935
Ni 6.514795043167168 3.2279119988205487 5.750355326130657 -2.360908535872237 0.7013005260302438 0.29132475722676926
Ni 8.70061596351332 8.944560011428917 6.605072884095185 0.2751774580429454 -0.9640775535263074 0.7028485872436541
Ni 7.373749079573521 8.400794463213355 12.899985975320128 1.0868405303888575 1.210982904097437 -0.39093006502593314
Ni 6.92923554633739 1.4693006856805393 9.309504860292249 -0.4391271935564502 0.47314571659374 -0.6089873810171189
Ni 8.442103570446747 4.340935404315484 6.456838365718718 0.26509847654038865 1.3543650998722352 1.753959782551702
Ni 7.671147112249129 1.7557380352368865 2.786039494506872 1.4433422385335917 -0.7381228370649159 0.16509464775122534
Ni 1.935965080195377 2.4827783225446045 12.150523104606124 1.679621476849443 0.16784135725842705 -0.9499025475775059
Ni 6.125369499377168 3.7713470741782453 12.73085822848517 0.9368948224639284 -0.2565973810479129 1.615682769213953
Ni 3.0894530511758225 8.775238570780044 9.898385461487644 -0.7487366080250202 -0.6132875510543696 0.8116859551640473
Ni 4.826409212323926 2.7778814048183573 10.973445797435089 -0.19955282942909505 1.1144045560500548 -0.8558305108917453
Ni 9.125392923293498 1.9327062506247425 9.206051250117099 1.4580178382678954 -0.9263389013249531 0.36564480809658323
Ni 0.9424626916290589 0.48021102774690844 10.888426146867802 2.8396610571297933 0.3673041980768771 1.333348388411252
Ni 9.241489874222548 4.182097297102284 8.859413679599449 0.4470996702389655 1.1336868013184345 0.2872539295915053
Ni 5.097424495179807 5.224941119308488 7.3506260773045895 -0.06708805189774898 0.026329381923148206 -0.4634973948706985
Ni 2.4556703683978918 8.897559427198924 4.221441926791689 3.1806543852262834 -0.28983480294480407 -0.7898567751040978
Ni 3.431602616687606 5.3212831371783675 5.459233523814043 -2.094689315463844 0.26364451770268144 1.6918511861464154
Ni 7.113813817257797 1.331429245338688 0.618440480351449 -1.1760151297730004 0.33790980407516 -0.45585890448883426
Ni 6.4059134163015505 5.839363600496369 9.075148197175443 2.0051650460497656 1.187155462660536 -0.5192623084461444
Ni 5.091072072467472 0.3281916771677004 9.136185616043342 1.2401412708289479 3.112763120700949 2.728810258323797
Ni 2.4721664718864265 3.861107174295605 10.263080619747251 0.9727573406884923 1.2546656896973682 -0.4956348988351916
P 0.5074181237509818 3.4798700135394243 10.993854332368707 -2.2509218848387493 -0.16543069093440543 -0.6534468968820746
Ni 6.579255610054475 3.6748214602762173 3.4084557469344947 -1.1597197350470867 0.9672500377170181 -1.1566184704139435
P 6.9985338686718075 7.217251821770213 4.347964378406286 0.29293298225415354 0.949706629516616 0.9457425026625454
Ni 1.1459697134639681 5.832800042347063 3.59674173972414 0.6751282385102502 1.791112480342599 0.8969560772874617
P 1.3779341202818811 7.471284471652366 11.209294178313103 -0.8079010342003183 0.5754182868124219 0.33972140336260204
P 3.684295015535075 1.034481022941844 11.469178033739825 -0.45934120661047995 -0.29766612606376475 0.39857241206253935
P 4.660374140650509 6.5987076096606 12.441778932026205 0.7391142544439077 0.5700477665291279 0.9203186632728021
Ni 7.182607250503808 3.5530513919537814 8.482558956130651 -2.6152811413546897 0.10150123927029615 -3.0480934484367057
Ni 7.400379684036648 8.371364019259962 2.0978159982961326 -0.3327267172123238 0.8181687346749135 0.5805844043943936
Ni 1.2151303387742753 7.941354572563556 2.18173499065069 0.4705530161658993 -0.4836797833558444 -0.3995782276192344
Ni 3.0331074289094744 4.088371522690519 7.788047295818828 1.1172137433640759 0.4010920931605995 0.8438836229425144
Ni 2.626478936907168 1.9167609352326527 3.84908897803117 -0.1640250688361304 1.9426368456085576 -0.3441508998888654
Ni 0.40115549428396224 7.433050597957459 13.254469522271641 0.3199743026426618 0.6573536881356487 -0.10302513211399031
Ni 8.858949181638113 1.5304748835923907 12.437533273782774 -0.5258728717841267 -0.9581917841694916 -0.908553552317074
Ni 1.1522945967714808 2.9552351718737246 7.276447772435666 -2.561600621112098 0.5497980151411562 0.7105269297245183
Ni 3.929432437659637 7.4229803555941185 1.8253429629449933 0.48687386481310985 0.42595028985486 -0.3373351625186126
Ni 2.7399229251716726 7.193962665092187 13.08995095382377 -0.17036540923186144 -0.019811635409288462 0.5415995384907639
Ni 4.733711575692192 2.3428781460475134 2.6266937442647817 -1.018614251121607 0.9691143446192663 0.6972867768851604
Ni 5.4823427563805645 8.709933462144852 3.781346632069209 -0.31316447880968 -1.7196957191625095 -0.6120696194868684
Ni 1.1345408604627294 5.922211310003341 9.614143002495629 0.7784367061926142 0.8232232663796853 1.156853212132569
Ni 2.041844911935367 0.39921763816463574 13.212389311703225 1.168666145607097 -1.2456223485481772 -1.9311473569117195
Ni 0.46944495642172546 8.175118220496524 4.371571156219929 -3.3167166503009007 -0.4476172333053324 0.42378387833116044
Ni 3.0234961766265047 0.4157642305620115 1.8217692661792244 0.804701039205782 0.8496912307632268 0.46165288546279204
Ni 5.638197428071352 5.319759290111536 11.051748587166227 -1.473067019291534 0.609795221630395 0.8678172509399764
Ni 3.6970641195709977 4.633146849082899 12.39593683875907 -0.7528789123281678 -0.9804973896452275 0.24897894527070671
Ni 5.799266227075155 7.96486404448016 10.941737844702898 -0.46074477182622586 -0.4133693678660558 0.016406466382481423
Ni 1.573886165393883 5.692367437356742 1.4128302181123302 0.7088220312182696 -1.0538036545385463 -1.754625441160159
Ni 2.947496599118669 2.1045521367156574 6.422026722063056 1.22218982855685 -0.5930100317522561 -1.5124216098297567
Ni 8.211020424583147 5.7129026535525425 12.850972260597626 -1.379466008704921 -1.175252797685679 -0.0461520730760302
Ni 4.527074241509153 1.9516441813408516 0.18549716906131042 -0.4052886477404504 1.2030009143332248 -0.3508452811899055
Ni 1.3215058798010664 4.008727563944537 4.931606066824325 1.0813849065909247 -0.20358329074472684 1.232707183148406
Ni 6.381339087398486 1.255291970806741 11.766722025260991 -0.5216794025280693 0.03884448367102342 0.27645503920378844
P 1.595752452822759 0.8608634351406965 7.742420927889465 -0.8383549798148013 -0.7374875174737622 0.08149934222707254
Ni 3.6830741019212883 0.08225377634297151 7.546194406709401 -1.522893713005674 0.47429062883146056 -1.788493040441881
P 4.695450162592463 4.27599748774459 9.254056104642945 0.06334041192985865 -0.5656473234685871 0.6326320170192524
Ni 5.626254506180097 5.47925834304047 5.13379762308889 2.007424274397588 0.10732607348218934 -1.1203422616907286
P 7.159804623310975 4.279972341840603 1.336091666575097 -0.2563294720985069 0.2796879443187893 -0.22191397073311458
P 5.448184714599352 0.5724138730720025 1.9241883127132169 0.49667439584329953 -1.1555928573629066 -1.7869218393000192
P 1.6287171203950068 5.333868645182142 6.858789748802042 -1.5920507316173096 0.5168706682855163 -0.4920996319884235
Ni 4.511652174808686 5.22183834636518 1.142154587915924 0.07341887921178324 -0.917999271111006 -0.676077489797397
Ni 6.1526243303495995 0.11537541852270608 6.936071744594435 0.5996133960013867 -0.9210095186922396 1.0561217611487617
Ni -0.041779113075693 6.605206909198654 6.085062826479305 1.898842988352059 -0.7658892085449068 -0.9602065006066753
Ni 6.995587152355826 6.94766858796509 6.673271466197035 -1.7886797025313905 0.18779337490032175 -0.4908385058878127
Ni 6.1051463964360195 6.204462670026704 2.6436626075360987 -0.7179337637115506 -0.7643648014805804 1.5743111482457015
Ni 1.401691446841886 2.394652227113366 0.8273085063250918 -0.77638085210485 -0.33232048291284055 2.154098767770413
Ni 4.812198879435639 0.9993407423886376 5.255510776641359 -1.7891689834629831 1.1599938146440798 0.03284070067910474
Ni 8.002335994641651 9.215511035673547 10.664978759981253 -0.277311987887445 -0.7734374532058099 -0.23997519911019957
Ni 4.451129742810962 7.48834972284056 5.933899033409909 0.15520849898576494 0.5478511758274307 -0.3629353795852201
Ni 8.461573929656087 3.1368667264781505 4.640859718393454 0.24549175805305462 -2.4076745883831827 -1.177869666483236
Ni 3.2534134876859633 1.9419319512402005 9.239612604793829 -0.30598647300400206 -0.5021174212357418 -0.7839056997269853
Ni 7.36026395101222 4.077162984927858 10.506479387447367 2.4226270959279566 -0.7788763648331941 2.5714528313158294
Ni 8.256093250475582 6.24166840594158 1.6456015294915356 2.2091525142114468 -1.1397967708709145 1.26497478493286
Ni 8.685001120979098 3.5038109361315772 13.33059578104166 -0.44391175942928707 1.10097028492202 0.8392355826475418
Ni 4.711248601158834 8.87302181750229 13.028389368284085 0.028521247368144428 -0.833403549346797 0.32200136037501964
Ni 0.4144193896265244 3.805697891793214 2.66708119941679 -0.33290900842645893 -0.42105619498735225 -0.878679390465461
Ni 7.905131075420675 1.8682824029438643 6.9932664985094695 0.8128630061912839 0.8266623739682215 0.565189152885246
Ni 0.8038798166626326 1.5365610920581105 5.511027800443432 -0.34972659420443 -1.4404934562308869 -1.0715496656680579
Ni 5.083048925862586 2.2046578732445803 7.366090371092449 0.5618919701912131 0.9264232335086433 1.3766174835125324
Ni 1.2518220057991358 5.18133706167324 12.096054751768493 0.056225655261948324 0.49479286254987037 0.3661261186083759
Ni 6.328233935099557 6.846424556036847 0.5374737121938379 -2.1055504265480645 -0.7578704520054884 -1.577051172884684
Ni 9.337877791100464 0.39263021253115066 0.9683589119635927 -1.7687479966044701 0.2855181778473212 1.438178177834149
Ni 3.1929920335059205 6.488660147990841 10.718989958698835 1.3424050992968817 -0.6449069777318635 -0.6545591561096469
Ni 8.688048815112762 6.853263508234376 8.335466405074143 -2.006448283637564 -1.3587640002708792 -0.3518503254156521
Ni 2.751526194403452 6.824016660313133 8.082958520238984 -0.2023969837461095 -0.8544567704726703 -0.11281846405532828
P 4.2723531065064435 3.226507489174613 5.088895541506353 0.712071905614135 -0.20605874886841286 -0.256497622245255
Ni 7.939105521169738 6.86460056321954 10.993801089519385 0.709738886605584 -0.22943727569335323 -1.4372695499769506
P 2.9535828075843886 3.593249743192677 1.3101036482244892 2.0025972853225897 1.3315010507898681 0.6006657485253011
Ni 3.9990520530503155 4.589827365297481 3.4109948800591074 -0.34600492237846864 -0.13209556711738543 -1.474756234068499
P 7.0991353144875315 8.22652510949808 8.94073846001975 -0.5221882238436878 -0.4316062025890567 -0.600737739413817
P 0.6432534840963071 0.9076997009219177 3.232046581464531 -0.13529839032539925 0.24998527504803394 -0.5172697034961479
P 3.2936944571393254 6.856614135821085 3.7269462097634736 -0.42939145432592507 -0.30684136480512963 1.19081388534873
Ni 7.075231111101807 1.0032421580717912 4.985388688481881 1.2172216859182972 -0.4375215396322272 -0.6951872140436544
