# total energy = -340871.53774559626 ev
CRYSTAL
PRIMVEC
9.25873717094641 0.00000000000000 0.00000000000000
0.00000000000000 9.25873717094641 0.00000000000000
0.00000000000000 0.00000000000000 13.55109773717324
PRIMCOORD
 96 1
Ni 5.2141227689946 0.7592664626747245 2.5018441669911136 -1.34322605253628 -1.789262571618054 1.303302219758149
Ni 3.7831108363891857 2.483674820748636 2.792528708279819 -0.9813468821297164 -0.09063909974481164 0.5213472159996312
Ni 7.298051603186482 3.4392042949956925 1.9588923634413782 0.3769872296925959 1.5802185148690722 0.19797468630869777
Ni 3.2882590994233762 7.696464331559931 12.52107942579707 -0.25870028632352865 -1.107076397819758 -0.44995590874083796
Ni 6.045770337042946 6.143366687808313 12.184347480002485 0.26628401220805753 1.2093859919239622 0.5253933610445468
Ni 4.222549030111401 5.658801408076193 0.06310199876731674 -0.3636357480863544 -0.44396626681630635 -0.11839415837089289
Ni 7.598719840996419 3.716633101971641 8.366502490317002 2.796642644586738 0.3988531765277518 -1.6215546546136976
Ni 0.6198196930596711 7.861010612349431 1.5463026563854574 -1.4876300047073734 -0.6415380612596306 -0.42548132063824134
Ni 3.686912554968811 4.829412971949559 6.397757904425245 0.18214029037960244 -0.8572222490329494 -0.18485640375918486
Ni 6.800125965409165 1.3766724028983712 1.3179868218632507 2.099885257842487 -1.5158424625858473 -1.3412902689661481
Ni 3.8596157833936666 2.5372180990406497 7.529681139818443 -1.3375703969123995 0.33265729742696903 1.0284870301506288
Ni 1.2422355360818325 8.308503907595778 10.298495444036472 -1.537169763308714 3.749058702614717 1.8033571020379071
Ni 5.467478858771995 4.321450862847922 4.684709091247836 -0.7491577547228387 -0.32586649975738075 -0.10127112553736108
Ni 7.126376094611258 8.631587548612522 12.956380815656088 0.3763737644783131 -0.656760791746656 2.6115939223110893
Ni 1.5389780692409283 5.231881027297225 4.833243311605344 -2.4928238686580166 -0.41874271636282717 0.9051401557601508
Ni 1.019896216541036 6.195984092361921 10.557891008209488 -1.1391928187383284 -2.8742969020361078 1.4246973697388947
Ni 5.447174447688753 7.385713328738754 10.010900543412827 0.5400602190281021 0.5104650218694886 0.4491269850816394
Ni 8.30449487430848 2.2530489312491064 4.2006641525567 0.0009505368387273951 -0.3811457319456597 -0.4775590151700872
Ni 6.3897694658102795 2.128880004191489 6.430565314471921 0.3237707935706166 0.0029871076527819523 0.9606129920164747
Ni 8.875129376762814 8.896804080978896 8.375743636100031 -0.11005452815694594 -1.0206168833739324 -0.09273634859347255
Ni 7.249341385808947 6.259647170614712 6.672709999150958 -1.9995600411581629 -1.2647014766668156 0.13552284763137948
Ni 7.845113360261001 7.405267782093887 10.753826260478425 0.4878151456804566 0.5823445816186099 -0.11054715152264831
Ni 1.8181382601076956 3.02655162852556 5.9678904675369315 0.35018887855282915 -0.3031736861455553 1.126741223238537
Ni 8.881480870608279 2.4493619400033126 6.573421151191785 -0.08210380858029084 0.81941751948035 1.3557226423413942
P 9.252487736324913 4.659515140952073 6.9118326319478385 -0.695100567867119 -0.5320149801261225 -0.6885907917730594
P 7.734517742208414 7.740193348224842 5.159214752812176 -0.9783255788048892 -1.0592243113334856 1.5428056214382526
P 1.3746910330981825 0.7440450984153312 11.55721616203062 -0.7718670233948965 0.3117277463631534 -0.7942744445558192
P 2.6008904360308245 6.722639592241974 5.985154309263248 0.5184912346080748 1.3162924613702298 0.028679884433195767
P 8.74084064974442 2.5074327408761317 0.23475806399403504 -0.42657661058494917 0.0776426874851437 0.34815616439351654
P 8.244535291009313 5.308432267988627 11.32652268374819 2.859313284143082 -0.7149826515030268 1.7142120703401185
P 7.167892273041378 7.197927617115266 8.67352962896231 -1.0933269094441496 1.1084928185513103 -0.09930346028802897
P 3.9931638114213355 2.1532397422489487 10.076501475400102 1.4365254727220744 -1.4056159276274114 -0.09573579754142868
Ni 1.4217346777465871 3.0306810253988505 3.5885477290005667 -1.231615492746124 -0.8626092243764758 -1.1655957342118894
Ni 0.5545863329465439 3.9103073705713904 9.82900431463934 -1.0886904391134025 -0.5925328350055216 -0.09625361771811165
Ni 6.328384036953967 8.61969932981139 7.1580150520000645 0.7413351733546265 -0.30921269325078354 -0.5917198521859228
Ni 9.054276686406974 6.607683108881496 3.7036097619672232 -0.1174896442787525 -0.07619104264028168 -0.3858156266175033
Ni 7.6308384009817205 2.8910685243846226 10.731724728468938 0.6134428456853112 0.9377607700086494 -0.8726275278444262
Ni 4.205799974183638 2.210717983929188 5.320838976083267 0.22150002312414757 -0.8467735428957996 -0.6301051368323407
Ni 0.14657970089573247 6.999142525479517 6.590549815352294 1.9729684067125632 0.6576959019664157 -0.642204491199036
Ni 5.740204227156841 8.998307618920336 4.74880640428394 0.9481498265524574 0.21658690209324635 0.46114560680907035
Ni 0.28867261765514984 7.8997862045138705 12.519710058537969 1.0587165184591314 1.1460296391545037 -0.2283424999672777
Ni 3.1554610291238157 6.974505025300535 10.128320776791202 0.8502057085058002 -0.8866950616810858 -0.3006272655746177
Ni 7.670688006682711 4.216151242579016 5.387022282651998 0.27976687718584076 0.40716658148945367 0.09019609867012209
Ni 2.43551086887676 0.23674128554170049 8.347056364189262 0.3486721847979866 0.30588311465691836 1.1849671967599658
Ni 5.015087691449481 4.277120028253046 2.2614206815917726 1.0704248080349952 2.062760585076047 -0.4024257243703585
Ni 2.7778804598644995 4.3475419847962 1.3358987752064517 -1.1242688504386442 -0.9010235624886159 0.23926068954167826
Ni 8.155392167475592 6.384140153480771 13.4647641973087 -0.3004454885811148 -1.1757449068307493 0.32505197427588534
Ni 5.696947406098516 7.4354883009154555 1.053508210866386 -0.0028801497612724594 0.048032320817878574 0.6499800213793967
Ni 4.2632226634395725 7.370464188267208 7.966907421179608 -1.0879129375174297 1.7746556203381563 -1.3754363187202376
Ni 2.2050146017006074 0.5663828902475737 2.46321023350865 -1.1157209608686331 0.653919722753435 -0.7717564659589612
Ni 1.8447941650364021 8.936894413851872 6.263832119912307 0.1799103726078192 -0.8740951135288882 -1.2076859785137202
Ni 5.705863570199366 3.0412174685419098 8.964227132483353 -1.8182476459964945 0.012068244018443731 2.1049385039956783
Ni 8.278709290693875 0.5702502648528952 11.625351210439913 3.705979869147372 0.7479099983586668 -1.0545711288321902
Ni 6.91575833659868 2.0626707731580822 12.674870757241246 -0.9132417018213628 0.34894857838782484 0.6775767000507429
Ni 3.6288139778838397 -0.04045234950469284 10.525530795178465 0.5207689748986579 1.1930162923166874 0.6984591999267068
Ni 1.8241008869830297 7.721120349213681 4.059312860661747 -0.31121121173805116 0.7908949865606251 -0.1618810259099341
P 4.025921224286137 0.29035400436409503 6.639157260744866 0.6737064184620591 -0.013950291532505007 0.061171686413314004
P 4.677708559911749 7.775080270687977 3.1485975271010123 0.20702316966421122 -0.2608078195848347 -0.11378725572650081
P 6.056714164630903 2.0795401926718378 4.198767037266707 0.8261278416209902 -0.19917513437470213 -0.9632735695677733
P 3.2000788845775965 3.848792319391701 4.424961695054225 0.5767485755880712 0.7160740847949926 -0.6627823153503876
P 5.391566470960094 8.513899737723746 11.946647915141535 -2.104113179880905 -1.033533848545917 -0.6773974941604012
P 1.7471792967962665 6.155088249336532 2.1911987137761146 -0.8025955628270048 -1.3877452179945777 0.21361573528006433
P 1.7740851876343424 2.9106507539519075 8.188345865572936 -0.5115613402574609 -0.6318372890320989 0.4987680451475346
P 7.636319573513083 8.413803527864683 1.7047279858903552 -0.3563854942818443 -0.5514579193420825 -1.45747893504529
Ni 8.804698161482275 0.3079594934998835 5.986332946532239 -0.7896148342966207 -1.083858564942398 -0.3904202152690502
Ni 8.067165658942892 9.059591201665425 3.655530990479281 0.8231597601316017 1.182876375669208 -0.9944636220173325
Ni 2.908845300162016 7.733554833520472 1.4688847978749084 2.4956477112600566 0.13655745954348095 -0.14080877862066718
Ni 9.172825559872468 0.7949987078610239 1.5160015865486471 -0.3339641891638506 0.9750214541323209 0.02480651752071857
Ni 4.162811656509452 0.31556647213462646 -0.03564150955993571 1.7587366351150548 0.2263002727262683 0.41697534004975934
Ni 5.137432647242438 0.8400739449415775 8.554631701097437 -0.4481260546209508 -1.247833240156567 -0.12791932425250874
Ni 1.883467911089617 5.355299996626734 7.786962008372941 -0.11325426604116624 -0.358484285792402 0.4242980989634177
Ni 3.3758282376018074 5.9871995643513864 3.7945787085130815 2.228829166704768 0.09776696903884452 -1.6260851954941995
Ni 1.8477477022619169 0.25914372651617 13.51464564496532 -0.7809358184653841 -0.01876031132663866 1.0128169277135395
Ni 2.846256235445776 3.8734298195706827 10.042244147079082 0.21451176473177253 0.8399997145070759 -0.1660295008606689
Ni 3.4853313246430755 0.13028617484726518 4.261170001361527 -0.014426716948291283 0.15451815778695968 1.0477330228644344
Ni 6.328930302459627 0.7114478617072741 10.626459365528355 -1.2493638178684807 0.46426924003971654 -0.7162283509846696
Ni 0.3184098303852711 1.46225091253923 9.80104848298191 0.3209965732595891 0.5923428304819024 -0.7640590973147035
Ni 1.5059891879415255 5.898269391777498 13.138413147869123 0.2977993092075194 0.07973248013463688 0.8450958980830607
Ni 4.918315368311294 2.594076005316157 0.48047199193462725 0.5619986709724063 1.3195626474810693 -0.3459694411548429
Ni 6.7867470898892 6.10394298402699 3.2627522038040317 -0.9202638987754668 -0.19048043481418162 -0.04247693821728813
Ni 8.765700359620618 5.834087824231202 8.666970739399442 0.5171208366231095 0.18909383887930015 0.8445284556153649
Ni 4.862735167794788 6.723167340272865 5.609693990864882 0.8149229740441062 0.8756105217321501 -0.40193952876255945
Ni 0.1567893106091345 4.434388941458675 1.1419189682730284 0.5727453679659491 0.3423763244869458 0.9918416110134531
Ni 0.811688507869529 3.592853041884154 12.442495892249868 -0.5065556595127534 0.38971521878222565 -0.8210457991123924
Ni 2.8446081801914134 2.208662544229927 12.03547531573046 0.8274596730585362 0.18834204831494014 0.4536485271010768
Ni 6.648171567461986 5.1876520388135745 10.162104057758159 -1.6416930772347855 -0.46069977752090335 -2.4109530020241383
Ni 4.393733825605271 5.348670740659748 8.861157942050268 0.6831153704807847 -1.369126831562442 0.22905212443979261
Ni 5.218094767332362 3.902085611774346 11.688662456672109 -0.9775789304468521 -0.7433059239277522 -0.1852623809483519
P 6.396130218393128 5.0415121279435855 0.5839985639944847 -0.917695109607026 0.18389686805939298 0.5629733761808497
P 2.917446667191807 2.0379777205547964 0.7931441827629969 -0.8110989723123257 0.19131912866539308 0.47804341100567355
P 2.989905545959454 5.350772474045929 11.619036751543984 0.3891048388917363 0.3798275273548684 1.1238680154558
P 1.5425056481842547 7.308180661884643 8.603957624511013 -0.009203777986455117 0.31852831422475464 -2.335682671425913
P 7.465634749837952 1.3043709226662534 8.504127140414871 -0.5509565542256318 0.8052669390115809 -0.15436234893538575
P 8.767496554673126 4.439851596515269 3.4534025687741474 0.2227009854107842 -0.5771686938446253 -0.3677423140555602
P 5.650987033724047 4.492237532634276 7.2675218425362855 0.6952823448606219 -0.08622348717561924 -0.6727257997163446
P 1.0867813354034792 0.8843584858495325 4.49881586554565 -0.036528948163969344 0.19014567718258218 -0.6161934118472548
