# total energy = -340888.47989591834 ev
CRYSTAL
PRIMVEC
9.09843485341194 0.00000000000000 0.00000000000000
0.00000000000000 9.09843485341194 0.00000000000000
0.00000000000000 0.00000000000000 13.31647909186082
PRIMCOORD
 96 1
Ni 6.855397661738956 1.9876167690691167 11.068803656923441 -1.1592116850624166 -0.3526831057295926 1.8326915893359663
Ni 4.794838740952902 0.6138895921972353 6.063512660201074 -0.43709139407334396 -0.2456902472171059 -0.5603606211483511
Ni 2.693200387086896 1.9162850403101301 4.871607694342803 1.036309097298209 -0.5857713479119718 -0.13865856504688376
Ni 3.538463176011302 4.657725328657248 4.766553526875614 -0.4176343137899969 -0.3620002693654604 1.3724985762481523
Ni 3.7305584297470773 2.9599028061063044 2.74628429502968 -0.46073731562705816 0.33729813863309005 0.04119987127707743
Ni 5.480642361735728 4.7084763979197 2.9804807360724013 -0.23770388657751965 0.26342700237523664 -1.371885882364818
Ni 5.023555194721193 3.1495596793181755 0.5451618354753436 1.3490812257654767 0.698341700512236 0.6173218690247433
Ni 5.764922956770744 8.107633438850794 12.58778825507212 -0.6392690627197958 0.20841645046731203 0.017754752880259742
Ni 2.5199752871070054 6.049039779979528 11.76766626116134 0.6715394927177274 -1.324368553510145 -1.346598568552939
Ni 0.3733715586619446 0.3368868351512896 0.3785067152578083 0.5992236167621358 -0.24624097751425333 -0.9394049904802918
Ni 8.28981139866472 0.3062660528632324 6.6998135169747295 -0.43073665549990975 -0.6413310874551471 0.4499029440157155
Ni 8.765368388304351 2.842478406697698 1.1484653987936144 -0.6984046925396875 -0.11225050736700022 0.7270534666246317
Ni 0.7812762265719417 0.3520921393734857 4.612934644026176 0.1890359890581712 -1.0753656969800383 0.20893452775431112
Ni 2.030515889107206 7.118114966320044 0.36159272498192113 -0.02985282169537439 -0.5500723518484655 1.188516604674121
Ni 7.936209828959459 4.204022779384849 3.7403456160514192 -0.5589118045169664 -0.0055728661020871765 -0.24757666560654132
Ni 7.399520455961204 3.877570939094998 12.39860086109545 1.0769577240575066 0.01044253548956266 0.8545056214327348
Ni 7.987761560483492 7.696629844051089 8.912932262800586 0.3668966782258133 -0.5665279263013275 0.2142916783011664
Ni 6.846472097209292 1.0439544078834297 0.37097958015547294 0.9096578411248462 0.7950437186216759 -0.41696299875458515
Ni 2.256066087568337 6.725744965971666 9.348993856857323 -0.6746261020628511 0.3457159303831401 0.7415148934656003
Ni 8.79450157650413 5.566686259551254 1.4663037508671217 0.48337742162407726 -0.9724459800956607 -0.15810510380726964
Ni 6.64554226329176 2.20299491743426 6.948072498829936 -0.17190627135642006 0.38579531490252916 1.0994075684205904
Ni 3.099572878578141 4.67986182050299 0.4975752018330923 1.1293118121791905 0.6241003253991574 -0.7075099972750654
Ni 5.929659217090924 5.808650034374785 5.0179159848379244 0.8228093187707184 1.4158268067221422 0.2161901808754599
Ni 5.603816971932048 2.9741964471624738 9.479295271025189 -0.7900742904315425 0.896010939765373 -1.1396137083258309
P 0.29228175858994637 6.2650730156496 12.674265238383684 0.541919383724028 -0.8512274649020953 -0.2623656509902578
P 4.409065105827772 6.282050694969023 13.007722873462365 -1.4364359983320616 1.3455904390033988 -0.6257733422262061
P 2.630375694857202 8.97871758571117 1.200135409969926 -0.5967000790093336 0.16991263796515899 0.7313014432677083
P 6.590642307764754 8.136957694181179 5.751001441697514 -1.8069468762716943 1.1391388255719415 1.6116769904886696
P 5.036666039254573 1.4849464437532394 12.47037659347222 0.44262337963516674 -1.0570486438384052 -0.6583759587525758
P 4.18588959884701 6.336377449104214 8.011540319808953 -0.3929103286807556 0.7731502609826942 0.168733015834761
P 4.853232495439531 1.6046545502943086 3.9810947498303935 -0.5836872116894335 -0.6517803078129292 -0.001140541362346423
P -0.057935193373178734 6.128978628050503 3.683790655235988 1.487257194748987 -1.682097192083445 -1.1496224987120847
Ni 1.1911215906227925 7.8379376347852485 2.453228259639046 -1.515358066750261 -0.6341499963256756 0.892977552255688
Ni 1.875706021143666 6.55085485242508 4.671540392043428 -0.015194962572883509 0.7197049966793605 -0.19223675538365603
Ni 5.865460661207836 6.044172117366511 9.290334428074805 1.4805738691915404 0.19948032431994678 -0.013050919646687201
Ni 8.830094653405297 2.841923402175466 10.214551614425835 0.6267156515348173 0.26268729599573465 0.6690923167288154
Ni 2.3203647262341227 5.6158814964645 7.227132411982057 -0.42162338034473196 -0.36869593621808117 -1.0579480157242231
Ni 0.6912453946311355 9.182231375109257 8.737833795097293 0.6701665236296007 -0.33726240029914817 0.47686198910306266
Ni 1.7192220411786396 1.5267901453556092 11.593352988380483 -0.6159450432818747 0.6338432637185343 0.1745089990865898
Ni 4.359633309609969 7.216887574407743 1.8071393067175694 -0.017390170451989408 -0.3280434528040415 -0.7946472545142057
Ni 5.671973346949085 7.9762247451689 7.759485470959071 0.20890058919258217 0.7753045883215357 0.3972218115719159
Ni 6.943142966860342 1.3549753027682752 4.760667749409518 0.802687865430495 -1.3862938302600318 1.0927507252257052
Ni 0.7072986729758237 7.508565196927587 6.59699665462257 -0.13123116223456108 0.04099649701701972 0.7251004566633189
Ni 5.652857535453851 4.72184199862722 7.161083234462542 0.23427892005637072 0.446910694156611 0.6420923911012038
Ni 0.9813753733930844 7.938511732961503 11.3334825840454 -0.41810148323440255 -0.033413028242806966 -0.24417123946941818
Ni 4.757171220919457 0.6261779382255371 10.315556978411168 -0.07725753623158307 -0.12442005284999864 0.513640848494309
Ni 8.18839114605293 7.6990591261402015 4.613747134252984 1.0011263787494886 1.492048188379727 0.3787350656216381
Ni 7.4733906480267915 6.5271443313605495 6.840342481690806 0.6141753529759615 -1.1505735497714442 0.6086569942608937
Ni 2.759728142276399 5.439981456656147 2.685347528019054 -0.6002093777141727 0.18634018739356295 -0.4644016518525228
Ni 3.72423501756755 4.671846099452394 9.293051220703305 0.689941906484315 -0.6140686521947682 -0.020323284938384353
Ni 1.2119115141195125 3.6440323148876437 4.090822783249559 0.3975609400788895 0.42357793296794144 -1.3202447611497585
Ni 1.1730430006936972 1.2422729910160348 2.301686549452321 1.263048771554741 1.1737458741228497 1.1832396725458978
Ni 1.501733055942057 3.5379991558369768 8.538153176276523 -0.4958863527243654 1.5223165003459656 -0.05260708467275456
Ni 5.508301603499415 3.481970994395926 5.000803648683601 0.9500768683718412 -1.714006896307848 0.2477648703579475
Ni 3.9163757634772787 7.216232487102813 5.975810117723205 0.5470176241825419 0.38099737929325356 0.14315413892439216
Ni 8.003019635627474 7.620839882244665 0.25977396092630073 -0.09818065953749543 0.6465339718123252 1.2206551370798784
P 0.2822989559376046 6.061304470077374 8.28815002447194 0.5653693872168521 -0.18864775248081705 -0.049888143079694726
P -0.09806656954794109 2.0341006724147364 8.24809416530594 -0.8322534949027537 -1.0079904528591737 -1.0288094464870539
P 2.2494060333015544 4.004403120077176 10.649068294255112 -1.430972147004013 -0.14653076870610893 0.1148501497733764
P 4.232391699062211 6.5872303947182465 3.950573140481555 -0.7510773403430548 -0.2935878422293331 -1.4294708798681381
P 6.985942004115734 4.565458101444891 10.374948831194338 1.0814247586899246 -0.9561991792194952 -0.25027478126399477
P 6.399720752116978 8.19406856936232 10.247164044089574 -0.1227568062149628 -0.3989681048390613 0.5608154492975824
P 2.3622903137496083 8.760427938213006 5.934315796016797 0.29861023514458895 1.0440635444326472 0.07927250977908283
P 6.860065158786578 3.9808199770997144 1.4034499436460974 0.8058796328949153 0.11334913974781768 0.4697431186700943
Ni 2.880992081166676 1.976762336363827 0.5953706380242708 -2.1309814650266587 0.3954289813375512 -0.6472837054941561
Ni 2.009580390653835 1.5851748014074476 7.202896911230103 -0.5098842096653541 -0.5140897631062695 -0.6690131267514479
Ni 6.987252178725593 0.8401940509025146 9.007545976345462 0.4381774280486712 0.28855387934985144 -0.5105102732851272
Ni 2.959629853062584 1.8971783272496874 9.385999920681485 0.7509287305803325 1.4506876231550692 -0.34787334304577505
Ni 6.609994678564545 2.188801359160788 2.7018602773206717 -0.18900256471707447 0.7718071166912386 -1.876804777605097
Ni 4.438180097157971 7.3157693637129295 10.671027366622436 -0.9948271760043383 -0.4962568486899066 0.1435881411380172
Ni 7.508092078318472 6.5318300252777535 11.527689584496095 -0.7909083562970638 -0.11168229356835604 -1.1252489549637268
Ni 8.035228094786506 4.172369324748049 8.217412423504786 -0.0019890054055707682 0.4778935156913705 0.35077817539739586
Ni 3.1445009495745535 8.798777840855752 12.334481461595038 1.3164469846702231 0.32830339133364744 -0.14708509854768217
Ni 0.2770346015677131 5.1971715273970815 10.761619571989828 0.4016081135650696 -0.12359087208048393 -0.851994682085423
Ni 9.021607607314468 2.416462394493359 5.9136750868506445 0.7355023687229333 0.7995282367555908 0.2185512249084688
Ni 3.6391009632310913 3.056164246191773 11.969223887079428 -0.49064053094439375 0.03403009300151559 -1.4119457265001811
Ni 1.2115657735974663 3.609985971900893 12.82411554954282 -0.461192915107238 0.492712582982074 -1.3544211499211514
Ni 3.2531453594101474 8.55268337663725 8.081012328496723 0.09427541094581829 0.7500882369569083 0.04637164528600401
Ni 5.555668055019733 8.487884324057976 3.866785654494118 0.3283548133968732 -0.048616218345806594 -0.38415340842373197
Ni 3.198827703709746 8.701160733986471 3.389230648574453 -0.28319647169268003 0.6493585857453139 0.9881057981201047
Ni 4.038931680107833 3.098126227446422 7.081850424931324 -0.4777150811319772 -0.27110277375293956 0.10580937972734682
Ni 5.163170676584285 4.865751941711516 11.629454667786451 -0.0881808680123062 -0.1678153891164981 -1.1182023325295902
Ni 7.983439803957916 0.0071968619194334406 2.524444438276191 0.3571043747257398 0.46301248481448004 0.08599491610458093
Ni 4.616709584620832 0.7876387620210692 1.312235405339023 0.8963171581518822 -1.1392606958617864 1.1729148935811218
Ni 6.366857205653017 5.75335884615178 0.3034719235390124 0.05548080667612381 0.3992452697598479 1.088105770254526
Ni 8.011499376852393 9.120998908967934 11.535906380955565 -0.002304993984092804 -1.309832307567183 -0.3070725069793292
Ni 0.2518928967106076 5.061623045885427 5.911943654709976 0.10534298161388952 0.13231102556230118 0.2266388870126097
Ni 7.048639318258358 6.717310716920699 2.75838885267521 -0.5959027799190189 -0.5958464727597867 -0.6445753054240576
P 8.830176539318414 1.9783909561913597 3.7068952205434584 -1.7038836918309168 0.5594273107008043 -0.6366295682144197
P 1.7505206568586034 3.5908974557100315 1.7026583406421942 -0.5620493217046836 -0.6542092289693959 1.0634833437201554
P 4.819504597670455 1.3038148039402422 8.12008282717489 0.40004539706364006 0.10197792179639856 0.6209622939908079
P 8.799050793899474 1.8568267689529905 12.300152157286298 -0.8815045186190819 1.4252586415590034 0.6671953568164187
P 6.1776916479198425 8.340990094362335 1.4840811826046452 1.6419584150810305 0.015587570025611864 0.42348203082002545
P 2.070667281838508 3.6774144721346747 6.221605243437093 -0.037886490633128295 -0.6669631862009546 -0.49138795063337953
P 7.5024601471830366 4.030388249839378 6.04159362094683 -2.1608885369987365 0.774439412107763 -0.6424718859278096
P 2.40336974682956 9.185870749025531 10.193498746163666 0.5641188026392026 -2.7151700418325433 -0.07790776822107227
