# total energy = -381171.0365866002 ev
CRYSTAL
PRIMVEC
9.24008848682472 0.00000000000000 0.00000000000000
0.00000000000000 9.24008848682472 0.00000000000000
0.00000000000000 0.00000000000000 13.52380350292351
PRIMCOORD
 96 1
Ni 2.8832125817440364 6.070266998567981 2.939493037702684 -0.2485930226861977 0.24709792619790993 -0.011440380626457716
Ni 2.3825014178859587 7.25213901753115 11.395954717590053 -1.0716609944349416 -0.5593604620186108 -0.17125655358756312
Ni 8.976459680784716 0.0519985988782102 5.447496111660347 1.5369285938321853 0.5744950036672042 -0.39949775209028615
Ni 3.9889832305853146 3.684716351427503 8.911632142824763 3.1184910243236614 0.1154643863186076 -1.0770873076568352
Ni 5.091723130349373 1.450130272651698 12.855200337695035 -0.7293021534494923 1.8884256496734768 -0.6235447100060035
Ni 0.31395234008080386 6.87830351092704 2.311069064558943 -1.1705607915266485 -0.7470574205503844 -1.3442357247477172
Ni 8.013060317863555 5.253812765448719 9.405305131158089 -0.9034344859229536 1.3788864820523672 1.1590995849645842
Ni 0.7952833420042468 3.9411934920872067 13.101360919376946 -0.029970321109845155 -0.09864551498905592 0.08632067487511585
Ni 3.3978947596410043 7.227994665888545 4.994232803020325 -0.21306963296860726 0.8760715205289688 0.043649618369150635
Ni 5.501558022334115 4.844920362506283 12.7689053017744 -2.1358938147266118 0.027853017656526226 -0.7215909008481637
Ni 6.977255620280528 0.21091149149966462 6.622322563027845 -0.642562645869403 1.1719049642593686 0.1689721284287606
Ni 8.80481579402121 1.380275202457248 9.411863746081902 0.8072803698971839 0.8448462439660998 0.6148896054341668
Ni 7.20717674615996 6.424458076702065 2.050939316855871 -0.0853724520292336 -0.7782801260100919 0.11951695912142642
Ni 0.696813565278292 6.054678969015331 7.739159142036435 -1.3353566770905325 0.28546572734283093 0.3885620790143889
Ni 5.781652829583371 6.129588367701364 6.036525890853424 0.5014329935742075 0.14122375467089873 -0.6355862145515698
Ni 2.866035256943576 0.17672685952990425 8.364364792303359 2.1785414741938096 0.18535494066215819 -0.60553850323657
Ni 4.698270915541187 3.7780874472363553 6.083533917851737 -0.3067608892761814 1.18124449649274 0.20564917213482004
Ni 6.218089936791634 2.4264287993283418 9.048763374471433 0.19595842720961737 0.5684045744987501 -0.2507242100965876
Ni 7.258681000295393 0.7055796373806035 4.019909807297064 -1.9022954656770337 -0.5629450940460756 1.7501118695605211
Ni 3.3544663429857247 8.907861262646675 12.510924798691331 -0.02136612438060191 1.999877829508898 0.18776560698617986
Ni 4.129663580282472 1.3455971497535744 10.53444766023083 0.524414027850413 0.6875466667792611 -0.13413728013776252
Ni 1.0472162070658508 1.161599264464938 7.446639187579444 -1.1764445040009353 2.4698001540693335 -0.5574521892523044
Ni 0.18631529952207104 3.849079048334763 6.055675050571807 -0.6205354908660344 0.40418667292552324 -0.15357867669182582
Ni 4.1654134832695515 7.2815871800588905 9.635547812122544 0.2620545475077422 0.8680975011845566 0.5286504345292637
P 5.994110187914191 3.1235565276207358 11.13728490389369 -1.4677440644167237 0.013456639725538117 0.7384097721777154
Ni 5.146221173207425 8.52887902666448 0.5128249200783059 -3.6609120302744564 0.4987960701719926 -0.6202562690627189
P 2.498824893901558 1.890050893281034 12.875891668209112 0.04888746972932226 0.07430282447863332 0.13128489829063197
Ni 5.4682013023074 7.1101742955116345 3.68186948011442 1.064234105843251 -1.5725322019684078 0.44158928194369756
P 0.6860045095754522 4.782170920483727 10.397735928608874 -0.5357664767487548 -0.8500036197973232 1.5958029995708904
P 4.446792662841166 6.8501859211649085 12.028963622721953 0.6881495904705827 -0.12771080778612845 0.04916540598105726
P 7.427432739311429 8.316458628688261 10.046847258158321 -1.8649735892981236 0.011889809459050492 0.9927234993977743
Ni 1.4121812285659034 8.309657923441817 6.760130169163698 0.03922217872541632 -0.6978524195806433 0.9952501224743698
Ni 7.348439221442072 1.3035547463958033 11.157042985454114 -0.8494698587810402 0.5396598982658899 -0.2425694421999371
Ni 5.439187423946214 2.4571243738238397 4.111858853462672 -1.3158715717827272 0.38323783858799804 -1.7059164059902299
Ni 6.851128410207216 7.469308821073501 13.418074197946389 2.0964399796063637 -1.0777056579671247 -0.6312235667075
Ni 2.1354768879152664 2.621413150021899 5.3366686403738015 0.12550840081817097 0.43387263002573023 -0.11379651169788145
Ni 1.6295912744131549 8.308308870498909 3.2224790686905433 1.0860753700880585 0.9550015593669683 1.7439039409775967
Ni 4.791032165499135 1.3980438929313124 1.60941369282802 0.10754564569216317 0.6274314466549193 1.1231745889332012
Ni 0.1743881930925742 6.930593172597727 10.275155988568319 3.6275388541306492 -2.782683611303485 -0.8293733451414813
Ni 0.7790688344411222 6.8786731144730435 5.226490747319357 -0.5655460220040325 -1.1500906965977549 -0.9011791142298737
Ni 2.99082265416263 0.44207910533798983 5.705273332793114 -1.1726994351362061 -0.41583762690089027 1.170309337637475
Ni 6.978660113755337 2.952171363339431 13.566403493028064 -0.47598884246948997 -0.567030834079675 -0.4349535217947348
Ni 2.932129611057452 5.2595046600571544 12.608242336362624 -0.36481639865801685 1.212644865180892 1.2617081983664464
Ni 2.013045713301977 0.43133565426456555 10.448639576982051 -1.061068820741392 -0.7028118204684477 1.1078266457222212
Ni 8.041325749044088 7.534238924017469 7.2055227702916 0.08323509397125664 -0.5440914516746823 -1.5912192368549498
Ni 4.9343551805502095 1.6025178146684804 6.807760978137026 -0.03925123219113885 -0.40218584044541056 0.4712438715853368
Ni 6.725749647314557 8.80803134487143 1.9472516620692277 -0.08557351229644618 -0.7375505095012136 1.5915095144018592
Ni 7.32801862552544 0.5777457829336243 13.33755421743204 0.22000518374617595 -0.6782426157695158 0.41590010470770955
Ni 8.256998658225129 3.9425610252074152 1.7620026687773735 -0.1285466734238625 0.9729352610272535 -0.16873558693792232
Ni 5.374017078697342 0.24025246899906375 8.831881861694963 0.816236036428575 -0.5518160740124496 0.6088331148274417
Ni 5.327031227911791 5.268781709061814 10.271112525775052 0.7264986225624263 -0.2938979172705841 -0.14321507406931464
Ni 5.620773646097184 8.948268170313384 11.510568777205393 0.43875875447343793 -2.3734182383034734 -0.95554071969989
Ni 3.928590011168525 8.262967755493067 2.6864495139853433 -0.3224628733924705 0.5840587360962394 -1.447309450711456
Ni 7.341194991940425 4.4824871252963465 7.529634587843144 -2.0980852285192704 -1.5798852998993693 -1.053033094921109
Ni 8.833700311141294 9.496501110098718 2.569820191035426 2.301912002733371 -0.5924595585654248 -1.1341835384491952
Ni 0.5902910512938103 4.830884667846842 3.3783676802968334 1.1218862091390807 -0.06763466842983835 0.09217224855988641
P 5.106950796444672 4.717554980553862 4.056938538553313 -0.24973973469613114 0.5309526002998791 -0.233709677816462
Ni 3.6426924282470323 3.5287066946598973 0.6728068909565722 0.39229506369425987 -0.08575220396615553 -0.9285197110263558
P 1.2299297200321286 1.1717818421573039 3.9002654434206327 -1.1372189828414092 -0.09056505197376662 0.37430685464695534
Ni 2.260024042829419 5.024196562494738 5.164767879145824 0.6179510179683099 0.5285496472853413 -1.277223006172594
P 1.9335901910001148 4.944140434430621 1.3207034269214488 -0.32506662956390464 0.08468108238916384 -0.3398250188200019
P 8.02293797263047 2.3394148845107305 7.706147077316367 -0.6234529216231456 -0.5336849116293777 -1.9067447596976388
P 9.107724380147461 8.580494161863713 0.36040226572465334 -0.11049444390784197 -0.8353041088036195 -0.10951485360339204
Ni 1.7916347090692495 2.4261793169347903 1.663860915198496 0.5412956340971 1.0060271584852156 1.0545878410027387
Ni 5.014254227107274 9.482086571804626 4.806927890003832 1.4830339006962587 -1.2658448462426393 -1.0462106726826368
Ni 4.506003150910748 6.232485994908427 1.1734210338838245 0.6970247814730254 -0.10739677881912471 -0.4813328803902226
Ni 6.174125594994651 7.189001491785294 8.502131742049153 0.5104804484884563 -0.6201415978617255 0.0727442217422618
Ni 1.7352701683038863 0.22841776345606749 1.060578299262702 0.10614979378590104 0.3067318358104588 -0.5079471405436413
Ni 2.338232153163523 4.497881112987345 7.3038955260867295 -0.18333431068770362 -2.627374582184114 0.34188267267997896
Ni 9.121233389753849 8.487991634387967 8.866367720554717 1.7746975293196854 1.8074484984984613 -1.9480217640695547
Ni 8.007728786712471 3.895085449723409 11.382065940340148 0.7738938240169382 -0.5138223683774957 0.2793830114838608
Ni 0.43217835034945096 1.6960737122503335 11.852802256617432 0.8288802075551467 1.3126191262837008 0.6503764854868671
Ni 2.564531164292132 5.358207287017091 9.604470621965799 -0.36826244822508836 0.5908497908761438 0.7219397995471503
Ni 7.520739154499732 5.236367478077406 13.355689739425511 1.8274956469573236 -0.326596950165502 2.108517222485872
Ni 0.523228335889408 6.381325342883587 13.042762125175999 -0.025344649412375707 0.9291244344898901 0.21681547316428468
Ni 2.5171387496059765 7.423505701635155 0.6449424796234525 -0.011473290746922176 -1.5333015386025592 0.2743811873938952
Ni 3.1954444173181993 3.6615884095364044 3.1485851557471523 0.7885709664131387 0.11856873627554416 0.7149535980373042
Ni 5.789802587772724 4.28757669531199 1.7837630775482638 0.005193628385797507 -0.407127243611086 0.9751479524078559
Ni 0.2811056729475721 3.689354875929833 8.570440021403583 0.44798155862328654 -0.45278129400477507 -0.8223447204294739
Ni 2.1606653695753284 2.6470821162917644 9.521785688680742 -1.4589318654417327 -1.1377776835583566 0.6518484420467032
Ni 3.649326811897775 3.652431481684195 11.269520736573558 0.4874161104698251 -1.3613911534810812 0.4451564304696656
Ni 9.150995715295691 8.739968851875092 11.4675367603532 -0.6781888797134449 0.6648821353022097 1.7849248634746484
Ni 2.93956788242075 6.596970531798677 7.2712484448683385 2.0825845617805103 1.3471639541381057 0.4152282754516656
Ni 7.480655649935773 4.86630192764252 4.188092356852258 -0.5318290893675615 -0.06941284337618368 -0.1694297847914695
Ni 4.740941644927162 8.365052254898924 6.851916589769065 -0.2507715183947552 -0.6000330000373085 0.0008258383354050293
Ni 3.240859453033242 1.0634510428240054 3.4969716101912676 0.623771481304829 1.261723367875098 -1.1730719879842764
Ni 9.073674653471993 1.938431997452746 0.7523132337460098 -0.9657971073205753 -0.6358173567257696 -0.4701010162301453
Ni 7.802256935401097 6.431046259909557 11.506119674520388 -2.660181858522122 0.39272649480472366 0.20227408501500002
P 6.896432564858458 1.7410914241534239 2.2354306228784204 0.1855562580396869 1.801968706330813 -1.2362277947071547
Ni 7.849778711328353 7.515074980157245 4.310563263846743 -0.4871376599974579 -0.38808873892239615 -0.4296531926277439
P 8.111199299415839 5.73025945651174 6.103576594142582 1.3292870738576847 1.0224644781056327 -1.9995137613012597
Ni 8.896671515291452 2.6570152115905783 3.546603822366198 0.33399195707799256 -0.8133522871228767 0.4071804654465246
P 3.022497678055034 2.4740984166739994 7.443501253473884 -0.5003253623323254 -1.761944086308759 -0.7746996077476852
P 4.934114938245307 5.37352735399889 7.854138185153451 -0.25645314216056475 0.2865005963652485 0.8983298177065367
P 2.105936324501026 7.626602850163463 9.249051536050123 -1.2684318902435252 -0.21381165334095437 -0.9131170033180404
Ni 7.272772135486734 2.5593012741161982 5.290823016527666 1.139605995016347 0.6765346319394736 3.0505827905174625
