# total energy = -340873.5816920961 ev
CRYSTAL
PRIMVEC
9.22653990746866 0.00000000000000 0.00000000000000

0.00000000000000 9.22653990746866 0.00000000000000

0.00000000000000 0.00000000000000 13.50397378752761

PRIMCOORD
 96 1
Ni 7.896801936495695 2.2882557635675425 5.554603206081529 0.6417545481458109 -0.33242898346624683 1.1688229828999355
Ni 1.2448816999596264 7.132217009334817 1.7757860453494525 -0.5595535518660233 -0.006419530373098621 -0.16055922177471704
Ni 2.225995070797334 6.736970483417482 8.772546373786525 0.1636571439737504 -0.4132850356823656 1.166331069716017
Ni 7.85777367176274 9.348514986459731 4.076242062925597 0.9370927974073473 0.3681182093377402 -1.6547015736793116
Ni 3.121550735046698 1.3728445849670388 1.2495438706852915 0.6804571069223314 2.371104759678949 -0.09244272861245369
Ni 0.801142324448092 3.195824383060951 9.754690349156308 1.270088966230974 0.5114428124017256 -1.2934217274196433
Ni 8.281207277764986 6.845336197197283 3.402056007957171 0.77035855717017 0.03696423592917505 0.15142846311804242
Ni 8.566741015044126 6.692517013090443 9.05688619677336 2.4445861166975513 2.7600784723094596 1.8205207583013872
Ni 3.5004755114811497 8.615327975347611 13.189101988027314 -0.5252272677803277 0.15881369983852006 -0.08702027204530174
Ni 5.999557716927657 0.8274213560349485 5.377674149971454 -0.9150381316001531 -0.14333668724884346 0.027523402231249373
Ni 0.7453835745046719 5.35554521613327 13.449309795314612 0.6234526645128295 -0.2680691291329383 0.11516073903525974
Ni 0.8179170970511619 8.11246308540068 4.5473012237502 -0.5348514211336531 -1.0685458458447272 -0.6343045196256689
Ni 5.070592750882068 1.270789824633418 3.24410040896219 0.19396222271519498 0.8724483219540845 -1.3817139241988334
Ni 8.67959082732516 6.764862314218362 11.363392056710119 -0.8561022764958933 -0.4696045362097009 0.847852120671959
Ni 5.728611139587715 7.840898329872298 9.451742440043366 0.12816435038377927 -0.3589439990376399 1.0341938507274189
Ni 5.500660239234905 8.585636969222161 11.789482906268653 0.1974851482667889 1.2399309545903547 -0.866454823374811
Ni 0.015911168447276806 0.9664893047380069 9.07207769509081 -0.39770852140034735 1.7994143153400755 -1.2687656194338601
Ni 8.34398465678225 3.1171958081072293 8.238517921910038 -1.3841441309068807 0.8107865832782294 -1.3438824551733566
Ni 1.1496638058593676 7.920892432764666 12.547285403782912 0.04331177541375767 -0.17889221575594996 0.15337118866671007
Ni 5.458273513896088 5.238414289233774 0.8601663469421015 0.49439408444955496 0.07393515672656945 1.370933802864194
Ni 1.658101526042398 6.869583544648396 6.4815567863796515 -0.17068576868575766 -0.8030205661795654 -1.3038213254864126
Ni 4.023943265529424 6.906480478612246 2.0699299898741694 -0.5321584476825223 0.6168726973024666 -0.8963444118453917
Ni 3.508908569156308 4.199053770580666 13.14692931841942 2.1495224612536403 0.09570314453128033 -0.5123378134121693
Ni 5.549007309495114 6.154535911423979 7.855275124696621 -0.21528849499679698 -0.7627000121836478 -1.4073989876697632
P 0.5043245285948621 9.30588837107764 2.0464733569118545 -2.198625132317562 -0.8962449101530501 1.8434717106706058
P 7.482382660196545 5.347887187828695 8.275222021185256 -2.501756395260956 -4.554655514161891 -3.0821991318711626
P 7.589687321861857 8.785040954425147 12.57741282525632 0.5921818794240059 -0.7038618589995169 0.24475359433544946
P 3.905871231537078 8.85868719771083 9.042274125175824 -0.2791665245976805 -0.7858551101438723 0.42550754589048656
P 8.143427354063517 8.553141094898411 8.28892804654242 -0.08035005911397775 0.6208255113026276 -0.2236265825488471
P 2.036177460785258 0.5798935828428042 11.59574124874099 0.739876586531229 -0.7875044728218373 0.21291948054398815
P 1.8978347181361022 3.157543468078201 0.3631326303547998 -1.7666923996270216 -0.5941408029225898 0.7628198255909636
P 6.091869250888228 3.29744549600865 0.19491527343168813 0.03542105981177125 -0.8689459652277809 -0.6271560815063457
Ni 5.645932113518682 3.2854233142244795 4.436744206690475 -0.008772089765675216 0.09879695296525566 -0.11239037537897417
Ni 0.8739065104977318 8.412639341859773 10.102917503937563 0.673590461709485 -0.7311104103028248 0.7747317465372012
Ni 2.6763055881866014 5.58257346247348 11.495973747704603 -0.8385616965089687 0.3025640775860144 -0.7002376319833682
Ni 8.377218654316081 4.142448946907693 10.94202704100412 -1.6036734034579025 0.7034926485855562 0.5016674781825167
Ni 5.380355382532067 3.6871930040108922 8.603881529667303 -0.011751741219289439 0.022364740848445353 0.29939236472625214
Ni 6.564535675002779 1.6922120448881979 7.492086212447052 -0.3737057307278467 0.19877044273711575 0.9583419365941109
Ni 6.084893986552975 8.031601687736469 0.5138020306122832 0.31598549319824293 -0.940169379450142 -0.9541178712104341
Ni 5.344344196420312 1.3469456868333733 10.100905195536084 0.9030225951965157 -0.8253529111281784 -2.3804237230870298
Ni 4.404233569902523 3.2451125604140114 1.9596562275963132 0.7698528211783451 0.027130537668204887 -0.018030375139149592
Ni 0.9711394809615079 1.2138067128152785 4.528085108629792 0.10104486845916792 0.28541456238992136 0.22918916423828917
Ni 7.048301626888901 1.6261315645058285 12.039184452314482 -0.9252407831647678 1.0841946081255778 0.9932701159298637
Ni 8.976260998536373 3.139145747066969 -0.3256553470170244 0.3551973875110141 -0.6006729476141527 0.8235240854495559
Ni 2.4134322334569043 9.031804770094858 2.7220369343210917 0.5957024909827547 -0.7667623551784795 1.5268079604584157
Ni 5.424006143868145 1.0996928645369837 0.13106115718172084 -0.05264282300669643 0.7007762780956576 1.3208222309197832
Ni 4.28675203447824 8.576797943781461 4.058605531474759 0.057917184031758315 -2.0929322235634213 1.6395356645721506
Ni 0.39630481006978635 4.81439941120359 2.6299938926781867 0.6596350279706575 3.006855524832841 -0.44242746157427676
Ni 4.533063749681778 6.123913024745805 5.532227000967968 0.7476138072744867 0.3915198760911322 -0.7556137947608278
Ni 2.725612218619914 3.130555838209669 7.639576146977119 -0.19486108038038052 0.46225246672000386 0.4555992230695444
Ni 3.363332219048374 7.87327425917441 10.79731890832204 -0.6039978982223275 0.03556298470627423 0.43971777595259753
Ni 4.106843728561481 0.9089092357737155 7.491154331894327 0.8339653353875379 1.606115437240492 -0.0397220011799703
Ni 6.279361772788553 8.324332126313884 2.711760413928759 0.2218034132971793 -0.89211803246887 1.377972197768214
Ni 7.600113312204229 3.9715918768545335 1.648119332280085 -0.18740102455790952 -0.5742978000547335 1.169901817786411
Ni 2.577849178502119 4.833959676270697 1.75446351111828 -0.04960403618037263 0.6615389298615897 0.11801877730934514
Ni 6.403163488199143 5.6625675653658485 4.01627139741466 -1.1492538025187562 0.4620676044027074 -0.27447117600454024
P 3.6942051745066475 3.2433502912499463 10.271527911470042 -0.34494614209665103 0.9537532887821639 -1.450475250033947
P 4.471301290078374 5.076783759306609 3.1449676938864717 -0.12690399561411694 -0.18005204039200606 1.1241888891303284
P 2.6328947168937993 8.715242178372002 5.463802056739583 -0.5548692590164767 -0.152883193286698 0.47414767549569303
P 0.9421312388053824 5.440632369175186 10.172138698578822 -0.03279956302852416 -0.40612477048850054 -0.12709657124089724
P 7.54925662302975 2.2537115973358204 3.4553023710242825 -0.791854522260417 0.03223109211956384 -1.0620617807822805
P 4.7657755447396015 2.8819743941351357 6.652111225916677 1.1072795149694994 -0.06981830634471846 -0.7833200024268446
P 0.8138629553198001 1.9974998045770904 7.076352154179948 -0.5631299563633722 -1.1604357872775046 1.1616004970095672
P 6.317651914311429 5.629518098634538 11.054096287990495 0.5201884198048397 0.6472307407690338 0.6443523907799742
Ni 8.418673499102173 -0.0010813505027665073 6.252988630492412 0.8550437533243919 -0.09774357200007681 1.3379606903722827
Ni 3.4253899279358095 1.4909442985797627 5.395323598578468 -0.2222782960510688 1.1815764259108619 -1.9057726255923562
Ni 6.240204336493835 8.484467956740637 7.2452199821819425 0.20993520110468358 -0.15108136419126883 -0.582388547482668
Ni 7.95029741614621 0.6635561580892682 0.9191617671617203 0.01661421151791332 0.3202905483315 0.09852261625794645
Ni 1.5507507316764566 -0.36532946955879897 7.73481987538973 0.26975397303452897 1.1123618145884133 -0.6795425655278619
Ni 4.162498218601478 1.8851574520029863 11.887102468763707 -2.2989786311366602 -1.7893250494248731 1.9489517320829917
Ni 3.3217758823208965 4.081360024733486 5.375850985642558 -0.1195789227076134 -0.3437732048344725 -0.60214747527715
Ni 9.269351272178703 1.4283329972847671 11.563250910341315 0.7224223956105235 -0.4839294374728052 -0.6798575256651195
Ni 4.851287118627314 6.515976394319672 12.565407251244379 -0.898258341038653 -0.8699996033032759 -0.8799672560389489
Ni 5.598913665036616 3.48753067568438 11.273400997591237 1.7974795602112075 2.1997541037156827 0.4882769158082236
Ni 7.529640998721886 9.041271200264129 10.472642497212385 0.5619459633575999 -0.02296637898818625 -1.070858296027988
Ni 2.5079120043470833 1.3622986496030274 9.515980380362574 0.5018034895397487 -0.10098676152772285 0.4095823900197978
Ni 1.9829864569589017 2.9594773311934865 11.644193501558636 0.044682430509039174 0.15689925642462654 0.7739627295816607
Ni 8.21486845425909 4.187142307278008 4.275763225188181 -1.1867865093568917 0.22750689143985978 0.053893664694662016
Ni 6.605944387088241 4.587860171490058 6.214353416368824 -0.3846943685288665 -1.3019963564625319 1.2306600708113904
Ni 1.2101806825457628 0.8074680403584736 0.2794635965302476 -0.9466380178936212 1.0740109827243567 -1.6920635592675377
Ni 2.4898833449408913 6.173782474126803 3.9212841668175513 -0.3370392285447486 -0.1046724379094262 0.3944043967277788
Ni 3.996789557938624 7.852948191276846 7.05078910210687 -1.2726117326528277 -0.5622794354376187 0.16434260007654922
Ni 0.49369370906169174 2.6571328378047863 2.5794887346825077 0.04189226935841172 -1.8760954102428982 -0.8511253921065923
Ni 7.912367109688248 6.517055899514413 6.114599755142628 0.7293224651644665 0.9280988214388532 0.11584876624121984
Ni 0.48221773845298027 5.024589221813861 7.800665078998887 1.0200905785568173 -0.32296449561923735 -0.40680482727466066
Ni 0.9203067807913561 3.4652670343603567 5.615236337173512 0.2734728166470129 0.8440463737726237 -0.3077160541005991
Ni 4.442874319950186 5.728961748112502 9.88183022678448 0.09517221172847481 -0.7624716982229255 0.7303305947140067
Ni 7.679489236908156 5.146527176118999 13.113520016623195 -1.7441206849740931 0.9958252782515495 -0.43123596373383155
P 7.661211460918563 6.80126101501541 1.3647658264327183 0.12001883845850943 -1.4532394430426456 -0.13271108921419728
P 4.419752610394445 9.017605124840953 1.6504831718603645 1.1562562019785183 -0.053249860463076025 1.1250126705832044
P 6.3318884657258385 7.796315687983493 5.076535565377221 -0.04303461049297105 -0.20113302943202133 -0.6813305106662201
P 2.5980645279181718 2.4894496975549694 3.4197331361845626 0.5278994152958522 -0.2796066974588926 0.3569639924931336
P 2.556535870811073 6.528635207372536 13.514507295806922 1.1228118062771437 -0.04472433949056814 0.5209463810167867
P 3.250583898708726 5.489044025216278 7.242559048009605 0.2729601386766525 0.023967309448874853 0.29195364906001975
P 0.4377412017756258 5.572009074029217 4.962926408843817 1.0781861971479691 1.3517857691808333 -0.10159945541105726
P 7.596385789993328 2.20739436590333 10.045700960654235 -0.6009933070680489 -0.2237700501052469 -0.4783455156271245
