# total energy = -340857.7648673292 ev
CRYSTAL
PRIMVEC
9.44290761777042 0.00000000000000 0.00000000000000

0.00000000000000 9.44290761777042 0.00000000000000

0.00000000000000 0.00000000000000 13.82064980233709

PRIMCOORD
 96 1
Ni 6.619081525285612 5.567849852628448 9.493833056975564 0.1130056403654699 -0.5770913036394707 -1.0402122890073568
Ni 4.770113030656049 6.3212994386272365 0.8841611438916455 -0.09103453541101741 -0.2631799193614371 -1.9294434868467354
Ni 4.647393005344102 6.704407637067603 3.017296941207996 -0.8423065082633816 -1.0953547385074553 0.9790292897401334
Ni 7.379386662098226 9.034463937911983 10.785151596019215 0.14169400943909793 1.1613865812265483 -0.8870696714116852
Ni 5.525800585722162 4.085096194998571 5.465002426059883 -1.071297954668568 -0.1695812227676692 -0.38105060112869216
Ni 5.522136737628822 5.630191927659955 11.607618448330907 -0.7461441647074957 1.0889933150658018 -0.37734101348758886
Ni 6.590847231989004 3.938447842190435 2.3649204594665907 -0.5754524824844669 0.6029285764175487 0.3706013807709101
Ni 1.297200526098654 0.8005470312316194 11.522566180865171 0.7366313401210539 -1.7419722711725223 0.58571966873843
Ni 5.779399308388955 8.047245734906227 8.721949027039104 -0.8927669789067787 -1.6964411195099427 0.2287505340389738
Ni 2.4850144122147295 1.440468318037163 6.930005306251977 1.5478578391501796 0.7033134426952146 -0.26837920417418937
Ni 0.32387944999745155 4.099062255127563 13.101781971041149 0.3885515374914276 -0.018972684447760874 -1.0945448410116505
Ni 7.351841701045984 1.7463240905713246 9.223998199227102 -1.2312979615057051 2.3080073169978315 0.5066065673553468
Ni 8.163856199093456 7.965120768752179 3.404910350796126 -0.020264406675990908 0.7758707452376509 -0.3865314217376053
Ni 5.116497761995911 8.533668783834283 10.997270459099385 -0.7227083022820586 0.1894262825180544 -0.17733052769578492
Ni 1.7610172545745095 0.04416825533965077 1.8460931293088885 -0.1495348456397554 0.22187591840632753 1.7544673183157395
Ni 6.946070524708674 5.351427856620099 13.59809552123973 0.03073033920432127 1.3064389656149176 0.7707786754267242
Ni 3.8842077817570844 7.4298778882711245 12.635279679684505 -0.4865054257300976 -0.143749606416546 0.13842716576236805
Ni 0.28890858652097684 6.453009111838304 3.292520866242202 2.4117274182963175 -1.3679456667701473 0.35480915093365994
Ni 8.361241293668375 8.102713373308996 8.356849397410096 -0.9264517727537335 -1.695657961487015 0.10962104016395316
Ni 0.6107360927280093 4.995675761082833 5.3904818332810045 -0.8428958051079484 0.38119972511204675 1.3406834886200847
Ni 4.577298303290348 8.800761421257214 3.656363644888675 1.4790096100282142 1.0742626937238469 0.7175738092689706
Ni 8.700723259657124 8.331127861787811 12.54143795395774 0.9294159975883799 -1.8921437219550121 1.1455102763159237
Ni 2.9255827025313037 0.7838548037197751 4.022527490188094 -1.5607886882792346 0.4906443875991357 0.17863664810171817
Ni 9.034501709541813 8.865114835577076 1.3540005587436135 -0.649056738234179 0.7581710139650426 -0.6850616955738782
P 4.9312940180405995 8.800109860642678 1.480509078527333 -1.2492843707807968 -0.21104360367751396 -0.6519068060884644
P 0.6185897588600457 5.161785946159969 11.391864065879773 -1.869534983416561 1.3805582133278353 -1.333328076696278
P 5.658558421660962 3.2117783417398673 8.837448061018637 1.81663479298342 0.13744808967855038 0.9313327549951186
P 8.571459299477436 2.450934959202201 5.392845393017507 -1.9954933272879567 0.5721195614564921 -0.9626945571358517
P 4.680547053425839 4.452009807150081 13.237045010328309 0.19380384276045978 -0.29274426328211517 1.7526251229006784
P 1.1281630397098295 4.5535588339433 1.9811767533543636 0.36629246898291107 1.6422672045707007 0.20311509285905663
P 6.521451305087073 7.448329329442219 12.331060363012652 0.748214416972963 0.5796842611776275 0.1368125129770805
P 0.5237083690222563 7.1051079721004715 7.160230000090312 1.1427532823960769 -0.29647339130724426 -0.5872103943513436
Ni -0.024347592587282578 0.712820532374044 3.819945019348811 1.3998507430088603 -0.6261191556013991 0.33149567301870003
Ni 1.2106562792547024 8.493866928902776 8.775352445871759 -0.125236635214023 0.7773324173848418 0.16236773573836552
Ni 6.844644255712396 7.769435397519532 0.8247114314142351 0.1963867729962876 -2.743684090111836 -1.0288644680947054
Ni 1.567569852409186 3.214365698383102 11.060956259862031 -2.6579902501874413 2.96293362663891 1.0254279316093309
Ni 8.847815429115743 3.936842547922735 3.5624378772855403 -0.2381450878799963 -0.4428933454671018 0.6774735988139752
Ni 5.316092496915781 1.7754082455390685 10.491807675865658 -1.367161480305955 -0.7737850663532158 -0.15690465574126525
Ni 4.05221599123309 1.9989501937700414 1.7047913507029393 0.10744305867602787 -1.1996885621305402 -0.5284331763121352
Ni 2.7088963051141564 6.042780883181263 7.771102070685703 -0.16766857912598868 -1.485791408836738 1.6111802533579092
Ni 6.499978133529719 3.0835436584729976 0.1615577593920877 -0.4246655096051654 -1.2798190490345442 -1.0162856029884304
Ni 0.19977792732453659 6.6294309518585495 0.7938057395980247 0.013121367873306434 -2.1537012752216778 -0.9356666064837822
Ni 4.7339372521880545 1.2831683656174635 5.5962569511315206 0.5277001548008525 0.2076348351062811 -0.24739334595114168
Ni 4.091290742290402 3.8308364688097836 7.699636258469184 -0.9482246456544507 0.9668088364145413 -0.888228981827109
Ni 6.813718733790526 0.27895009631676176 7.716110354818771 -1.3122810262179916 0.023681145667023732 -1.6340998382685599
Ni 8.913056476736568 3.93952433364054 9.535349743901273 0.07350655382958309 0.8150720980274608 0.018404727759432818
Ni 1.1145652529716636 2.5201797995848194 5.090545819431674 2.4766130632261087 0.1647233804547357 -0.127507947746703
Ni 2.5119172555598923 6.51233889939101 5.64964620560299 -0.6012275345660419 0.9310180519681772 -1.8895780181103654
Ni 4.708186443552652 1.3273611725165027 12.99398079522061 0.8557063266090553 0.641380966856476 -0.5824487112966421
Ni 3.041796564605337 8.32264813089137 7.2953683929990385 0.3433795689404796 0.46586975175761697 -0.718012439468286
Ni 8.886795751098484 2.041197761732926 10.869858253072023 0.22371220028411795 -0.3832902890924883 0.8483583708844163
Ni 5.8381719644016945 6.089797119409963 6.605081470689775 0.38048290155068015 -0.20851569504933765 1.3169864021134612
Ni 1.5919703252782278 1.982406219905273 9.155572058921011 -0.7515918180856282 -0.9112213289572242 -1.0945628387337794
Ni 6.70136702086643 0.4416381717314595 0.8106764380608074 -0.46994109361351327 3.104931540471672 -0.05251375362799988
Ni 0.8436926196936707 6.147389411990569 9.35300059087023 -0.5742790310016561 -0.2708528625256626 -0.7401540085623317
Ni 3.9418000743376913 3.812045082970235 11.31445488770978 0.6757388755110556 1.151290887553443 -0.26913202317981394
P 0.4787667395618723 2.4261095554975913 0.6145463058869329 0.07931776119472146 -2.4605786354710655 -1.3114451605802575
P 2.416251160112421 7.997491055514979 10.377856334418336 1.3510907999963377 -0.34435067460449725 1.5453507564576094
P 1.3183715246173817 4.035823103887634 8.434659899147013 -0.02836081053088019 -0.056540358288889724 -0.1485179743394668
P 4.437118342090298 7.52427863411935 5.843273967300743 -0.5832781491764729 0.0009572217069467386 -0.6241345210712025
P 1.3609023798039785 8.146972280560233 13.746128204281073 -0.011951773045237481 0.8056847432752898 -0.364834653490462
P 2.708367502296561 3.9635470902113 6.019639149876246 -0.45866114982431977 0.05646168253215437 -1.6173552718203694
P 4.51293544606303 0.4725948552479381 7.561139023377981 1.0954943494091132 0.1622453512278883 -0.5696896118587608
P 6.9407163961805205 2.0295168852085435 11.809800539894011 0.4538886681363409 0.2416538723642032 1.5053230511117626
Ni 3.376632620125215 0.24340604835764357 9.274028611516096 -0.19072494672481993 0.3442928247833683 1.733067769594041
Ni 8.673735430144848 4.053622984444192 1.1713917257575028 -1.9087656467824092 0.8835835126352977 1.2143605623204183
Ni 8.062788760580547 1.733972767617491 2.4270859521286514 -0.5869291156654989 0.9070409723272896 -1.9820271744807219
Ni 6.870687794478966 2.7084241597413032 6.996303015217249 -0.6922798105888722 0.0873840831426237 -0.5752676201671706
Ni 6.783416443760822 6.254726941054966 3.940446905699095 -0.42843294706739765 -2.5142195607249733 -0.20349098814123665
Ni 8.470627933650952 6.8290917871306185 10.641541026540015 -0.5098047625776704 -0.7896999378112592 0.5179340765530241
Ni 2.5094243279912285 5.562854554583663 13.40690119679366 -0.45768413062303115 0.07061971920009127 -0.3842860773468543
Ni 7.681163098610939 0.4327684487570434 5.567482523528368 1.2841863248643046 1.6990299632830415 0.18944530868144793
Ni 1.3569930161167558 2.38025479688611 2.5066235616394645 0.6355990700673763 0.08291139208325075 0.6533332541223457
Ni 2.268677402373493 5.030869477175294 3.7529693096281243 0.9312882749104283 0.21556488858663522 -0.3875657765393906
Ni 0.48375826044367404 0.34298906181830313 6.87441868721525 -0.3467867948498157 -1.5192861981600736 0.014261909235652856
Ni 6.690054417732873 2.381123544372159 4.2991480212352 -0.0340851146091671 -0.2625854803105478 -0.1961972826933008
Ni 3.441259878761331 3.035035442866082 3.7594518655973954 0.051528249786279 -0.7168582712591848 1.6113851702798636
Ni 2.479698055316405 7.028903708922001 1.6752558247587483 0.007497336818309669 0.12009314333987059 0.42037742375277276
Ni 2.5253072983340026 5.888974806520674 11.016245981634345 2.065136284397076 0.6393012015093119 -0.31168506605067614
Ni 8.085149565438865 4.839999988745747 7.404827743369037 -0.032655067030859894 0.035978474977138034 0.35233009326554804
Ni 6.442839100507051 8.098643480195003 5.345025565364211 -0.6872142231405068 -0.6852313883825231 0.09479143135028836
Ni 8.692252971668143 1.0024779414563658 13.120771657937295 -0.20076741856248648 1.9473414501730786 0.6027884512952586
Ni 3.1938368175714547 4.260762602422252 1.3978477552297244 0.83670073204083 0.574954716912442 1.6150016839865282
Ni 2.7425885989209453 2.9745347347887012 13.347582740729903 -0.4034685638125761 -1.151568823805178 -0.27281795667183334
Ni 3.084809008072244 9.447534481713602 0.05375091782707489 1.1337112267984668 -0.24437795616358562 -0.3203609965581192
Ni 7.473532449445111 4.327155684752838 11.500273364940545 0.731786867544559 -1.049953684664837 -0.017977410414027103
Ni 0.08299088076786007 8.223195429553618 5.166656597826321 -0.021676970752801377 -1.7786709121451367 2.1749403871061124
Ni 9.255475186944464 2.3975730891623575 7.3591231269861215 0.3136321624747179 1.9577212507455057 1.8472283494995605
P 7.9536948507291365 6.165784195716921 5.769001722987986 0.14254324481327063 0.40745377371256924 -0.3410604338889997
P 7.955309587904294 6.340950129045377 2.045967374289487 -1.6606076547511013 -1.892568982417889 -0.8333811807492937
P 1.7491380769935287 8.389692773836494 3.916868910069563 0.4812742592381454 -0.25850154004916126 -1.2231784177223644
P 4.765608763799031 4.576977244436809 3.413478845022661 0.9861468746215212 0.5151878812664547 -0.2798864334828406
P 6.951226352180228 0.05170275119963865 3.5100580696212305 -2.463734664601544 3.417107173005521 0.04636418908683628
P 4.527373651564874 5.9272846820739655 8.935824270906284 0.832312116054831 -0.04756695114568582 0.32461411540751833
P 8.99240522809824 0.5387990794293833 9.033052223247154 1.5845698498592324 0.662125398492679 0.14404554039041
P 3.0587749122131305 1.9750407520887665 10.895481582456755 2.951432053757214 -3.70769479495595 -0.16668796038027422
