# total energy = -340896.472480187 ev
CRYSTAL
PRIMVEC
8.99809542849790 0.00000000000000 0.00000000000000
0.00000000000000 8.99809542849790 0.00000000000000
0.00000000000000 0.00000000000000 13.16962220103760
PRIMCOORD
 96 1
Ni 6.43373717825335 2.07746226595224 11.31981724730646 -0.620660446479673 -0.7727530255442755 0.4401407224226291
Ni 4.496807166000648 0.32455140257800547 5.984236423560955 0.29448669989451864 -0.40839119792517414 -0.2975614821651004
Ni 2.6729922108139546 1.7274633498201517 4.8149717204754445 -0.34959161128846244 -0.5943171805994538 1.270221120933464
Ni 3.1192437532633672 4.447695561397493 4.760963352364587 1.2917132293689688 -0.8488391671755768 0.6423510440792292
Ni 5.106977012051322 4.477011356156944 2.671589407743667 -0.2125926933321887 0.0686242860366173 -0.8759236820971947
Ni 7.391899365165591 5.890405184711332 2.429755696407121 -0.33725931497535466 0.8572456460717172 0.9499945930706801
Ni 4.9200595766498285 4.363554371466363 11.478853184352632 1.6988119337349648 0.5555524011264303 -0.36026657450380534
Ni 5.5002567669780555 7.7824886895726575 12.31907553545423 -0.3789777777600635 0.049061019192709054 1.085020703571299
Ni 1.914641729987766 6.517158520553799 0.3440988649891258 -0.222576544017778 0.3677916792362569 -0.5454320248629767
Ni 2.83802627824277 1.6845694291269961 0.385900416902724 0.5489762905708094 -1.067498892637452 0.9295162706116702
Ni 0.52292161378362 -0.12097669300257313 4.602440306755273 -0.05507020150126645 0.0743493614458526 1.0790254052198127
Ni 8.622658851721033 2.2138373995846004 1.4180656396775022 -0.409170756403676 1.0714547919614064 0.11723150552135939
Ni 6.875210732054122 0.6814950487270808 4.833488001155615 -0.496075585917036 0.29571697275719394 -0.368451681417759
Ni 0.8956038285679792 7.543049371417662 2.515081935500258 0.14995033591061918 -0.8889764015160947 -0.19495955363145778
Ni 7.481268448514535 3.7222061249118545 3.7716875512352726 1.0784250526316523 -0.4083523742674387 0.07402026024120802
Ni 7.538991230399702 3.843365479250713 12.669689921310551 0.93746586447605 -0.3239381723864163 -0.4925079231704356
Ni 7.888261300805726 8.479013257018803 7.206904822747552 0.07488363668276782 1.4668850588505382 -0.08428641805390645
Ni 6.775961739974092 0.6688176321412644 0.2697269072158644 0.1799186001379353 -0.1336006909080022 0.011361704869722369
Ni 1.895061874433265 6.5944701560888515 9.193238877703372 0.1582845668079274 -0.7013349788126051 -0.5218537233224044
Ni 0.3115293589390009 4.926682174852087 1.3203337264791306 -0.5897874110499004 -1.259402433051405 -0.33715698506953545
Ni 6.011843480007079 2.0685181591410386 6.818044932273194 2.023608597466934 0.5723669015806079 0.13015644111314356
Ni 3.3086626591814734 4.326419231818649 0.5062103510373797 0.4241921695131727 -0.7055019657061011 0.32478483665742774
Ni 6.020265697286036 5.48284545241098 4.667603613713059 -0.6074861138812441 1.086732286945767 0.3493571266801532
Ni 5.232977341706505 2.9041352850253612 9.228875834469733 -0.1619897835736565 -0.073474415040067 -0.11895440174973707
P 0.2133880324006799 5.479039258063757 12.390415135083252 1.0094649805221714 -0.489799265990021 -0.9839789204359249
P 4.093584515675144 6.008028287564473 12.536558601063945 -0.36175704300640277 0.946175476434906 -0.1385536640379033
P 2.545030296365169 8.473668388361002 1.4082541164713314 -0.12045901131972157 0.1846239760334046 -0.4272178437133739
P 6.344782007292046 7.852907784043946 5.857426265321258 -1.3877349335819327 -0.7333963781235241 0.6930336580357612
P 4.692875664407164 1.0639527943360767 12.487474890556475 0.6175604673981107 -0.6379930242208496 -0.1942144479353171
P 3.925023194855996 6.157936556653621 8.114647081987876 -0.06949743267019 -0.06855383780999806 0.14168218236455601
P 4.715883794302778 1.093709495769319 3.82448477570751 0.7447400852711175 -0.8408180966433133 -0.3938845196685668
P 0.36389197540421575 5.581995465441791 3.4127103355295256 -0.7582597170241071 0.41990176966793485 1.2847157150052133
Ni 1.5324116361919726 1.0077866829522555 2.706857442599304 0.23468489724553776 1.2597495319781788 -0.78323129936778
Ni 1.785869986954465 6.672771582116088 4.735308882616684 -0.2448242996723848 -0.199828708798301 -0.3357487918680992
Ni 5.912117588871722 5.457722770100241 9.028118428558875 -0.05386795366304917 0.7547689302620292 1.2515040041399348
Ni 8.482315558024547 2.4312043897638653 9.908455188689667 0.3888240744265239 -0.34888892879448297 1.0101936311580795
Ni 2.149770960454064 5.376128041162642 6.857567266626152 0.3047515721556364 -0.670761219790806 1.0340413843099547
Ni 0.5701706126423906 9.125868337948013 9.112456676778903 -0.8257825424664295 -0.008271238869856723 0.006504890998053314
Ni 1.2376970180961224 1.0218597041320532 11.357258322197211 0.447458596240281 1.0589083227549636 -0.43123493529256707
Ni 3.954222014375461 6.683290355619402 1.477842686738723 1.4400985347853135 0.6675763943049212 0.8058852893218702
Ni 5.5820674502048595 7.833777833258621 8.044347662185187 -0.3221137175831678 -0.3112942583701607 0.042270992854069135
Ni 5.2285682749685884 2.976273015714899 4.688016692900073 0.05006580630813958 0.22543226829901822 0.62996372615847
Ni 1.0128976011300848 7.538280380864405 6.9900669205768375 -0.42224610153039543 -0.0258688973469619 0.034682896094166075
Ni 5.076491464892015 4.592591891358031 6.976818124934168 -0.3325616523893692 0.18627025338757597 -0.44885316259496244
Ni 8.319899936352332 7.125312793238568 9.331269660886298 -0.8508621111428767 -0.02268252919918029 -0.5613643798225171
Ni 4.504284583264339 0.31426837917373907 10.29285022423473 0.24908564605190006 -0.3376755765771668 0.5589912516046502
Ni 7.926305248087174 7.0494678472510275 4.763571000406726 1.2885098919403228 -0.07278073140715208 -1.0555903141253238
Ni 7.268202547928585 6.12589433899297 7.0211994307942165 -0.08573883422971686 -0.9263131902933401 -0.06467481447056604
Ni 2.3536588037488424 5.140593896404086 2.6154340940743057 0.38789873439877715 0.6237108032702225 -0.4585490497264877
Ni 2.4614199940616657 4.973661230849352 11.451908387726736 -0.9919418840367432 0.5643008367430218 -0.1482606069130221
Ni 1.0373454262870605 3.433862158347524 3.7309009844809333 -0.653775483866087 -0.7570461563319801 0.12119434682384934
Ni 3.571173093899769 2.677761201367211 2.9078398008947492 -0.4526730505616849 0.5841104152697811 -2.0443874818854986
Ni 1.1425241632248186 3.2310630845941497 8.164296772694964 -0.7429968773277655 1.171379430773202 -0.32546617899516855
Ni 3.6673267411678747 2.7362938118368936 7.004500765381513 -1.212258685486067 -0.3920418100328732 -0.001057751840553017
Ni 3.951045686705085 6.747050859506899 5.854028584504447 1.01269402898243 0.9014650209014088 0.5841983469978972
Ni 0.8513583939482218 7.3800578716409015 11.321687051527151 0.6095085436279115 -0.8989666799595872 0.3239178606714421
P 0.22081056128253096 5.626895961405467 7.983754487872684 -0.18148311641157777 -0.4298768786027758 -0.42492930478951335
P 8.25505066292343 1.583277869394911 7.832382228664639 0.32630101619163804 -0.28571718123200474 0.6419612648399783
P 1.6193332375966047 3.186243571488925 10.405028579571313 1.0701872381028923 -1.3053668155966616 -0.36582658509008614
P 4.026161786966562 6.104892784367875 3.7390532588983865 0.2006602035606609 0.7882205250522554 -0.40824953014098725
P 6.867904278602719 3.962635233559036 10.384286170093265 0.12185357767440305 0.846570168635742 -0.6787493802026052
P 6.380189512626128 7.749213732844466 10.386933409755091 -0.3762624357114294 -0.489865343341266 -1.7598478659013628
P 2.4084212122528372 8.64559499685358 5.755796377202752 -0.26041161258768053 -0.18324817873180055 0.30528559028223556
P 6.941823632178189 3.8693159863367335 1.6023610300842428 -0.2952258920533883 -0.3278390501027193 -0.15917545405331296
Ni 5.170890483560338 2.752400402573363 0.5481909650491095 0.31643183670704217 0.6731495175173244 0.07664021436255833
Ni 1.4296353907216095 1.132428300204529 7.139278737083302 -0.05668254029370883 -0.10806809385453646 -1.6447930563163478
Ni 6.7743870732819795 0.6413482465545087 9.303521334342653 0.22011908361622087 0.299971891378806 -0.6901103137413793
Ni 2.6606108315662556 1.555095834653782 9.211689472287244 0.4661597721942101 0.45119260936141653 -0.050358140737577786
Ni 6.433962130637937 1.8598523271976206 2.52406383431207 -0.311828790717392 -0.0458409695935146 0.5433005803422708
Ni 4.026494716495752 6.742137899427507 10.380191136884234 0.7191244415855421 0.4075974983792851 0.07841221866131658
Ni 8.31434811150071 7.146071399288308 0.15782209397893826 -0.6409173969564962 0.9354776304014276 1.0471318989453255
Ni 7.501820098370454 3.739617439478932 8.115502800858847 0.41452456451642156 0.2490529930417517 -0.598676486009414
Ni 2.9428720856513384 8.55246470963433 12.25942986058561 0.9021345361646076 -0.5702192591099857 0.5328045659069532
Ni 0.3826988945652739 4.864982234807412 10.08473057668109 -1.1239225228428193 0.33351296055904495 0.1356665722980954
Ni 8.498683093527138 2.233435251329868 5.778251124232282 0.4759767582846318 1.2025604843616968 -0.07768202536351138
Ni 3.5652703433281916 2.6311240729945187 11.337964606075905 -0.7523250967072269 -1.1186201367932993 -0.0985922931536173
Ni 1.1527999881527784 3.082954434581702 12.766842357166226 -0.9144634900436058 1.2626263393053416 -1.662788464452504
Ni 3.140398275509981 8.396536714733621 8.00901394123325 0.5336759127683132 -0.12867214325813325 -0.3046124754746109
Ni 5.627642803322298 7.766769016937679 3.732099530786016 -0.20973722616126458 0.13255090948724915 -0.6851874225184651
Ni 3.1743030989150176 8.463167611048455 3.660706842394232 0.5441490443854952 -0.6843363873720795 -0.29825516579801536
Ni 3.2327367303354815 4.233162971264032 9.097706998826268 0.22035074001105273 0.46751088690546583 0.17429405486230629
Ni 7.3794819935363565 5.9764089803868465 11.268810643815538 -0.7848258975484097 -0.6477223356934715 0.22057751130987815
Ni 0.6139211520160552 9.274336911775801 0.4948934464735488 0.3121198395952496 -0.8883521376685346 -0.7646370813053606
Ni 4.762313966481651 0.16244531538698176 1.6768751577645633 -0.5813253963254762 0.024420337825893427 -0.35387558337579694
Ni 6.074776159119294 5.505673620398925 0.38269439551758216 -0.7799917093845599 1.0518275046487822 -0.16378338513896953
Ni 8.052377562505425 8.761652431109992 11.350159724749169 -0.8010739839761558 0.6657221147050019 0.309965255146092
Ni 0.06501303876488068 4.946334015169656 5.597129362067303 -0.4890518463010352 -0.36088595325535916 0.20427337483321595
Ni 7.961451808655135 8.852866124012554 2.3703871628763116 -0.4223276055006081 -0.37601483847699757 0.3095837034369572
P 8.573790195693231 1.5558246803798454 3.6068298464759736 -0.839195987658858 0.6585891032046464 0.26221138480058065
P 1.7028895513278068 3.152005818554699 1.6160579308770098 1.2664567687950254 -0.32487585370933725 1.2555046406588957
P 4.78731067545702 1.0377773348654686 8.169472477159555 -1.0683064761404117 -0.4440647400673836 0.37604851992841043
P 8.421029530367514 1.7658402266307889 12.2703211552378 -0.8537083223424201 -0.8030691600293137 0.6295636625065738
P 6.433152302053422 7.595292313214276 1.368507729543325 -0.6259669462942511 0.17801881201206116 -0.16114594751612246
P 1.680106373816779 3.36687133821735 5.964759146293826 0.01459692397756841 -0.9684743970424224 0.5188468181752807
P 6.9151712736522555 4.038750122408081 5.929503708771726 0.3015675180007 -0.46145799584316655 0.45472170556059754
P 2.353082925644298 8.48119079610161 10.129059693587914 0.6271717652356296 0.23922392276647184 0.34214415387148167
