# total energy = -381169.5343070505 ev
CRYSTAL
PRIMVEC
9.27807340214807 0.00000000000000 0.00000000000000

0.00000000000000 9.27807340214807 0.00000000000000

0.00000000000000 0.00000000000000 13.57939826607321

PRIMCOORD
 96 1
Ni 5.788126164985603 7.500403911037151 10.066475960936156 -0.004417155231089168 0.001024584609772429 -0.030420778383702447
Ni 5.668429738513728 8.486895077971662 4.524818107760086 1.0830306697244638 0.275344579748429 -0.7565275648243487
Ni 4.697794799223621 4.7546693898966375 9.188948345026452 0.21295727576045906 -0.4872952686212446 -0.22515356071633483
Ni 8.574164637493748 2.4667242942695555 3.5020858578520246 1.098382983810818 -0.12010162798030286 -0.5673355098042874
Ni 4.611814891920709 0.5740743043522781 11.657777834177526 -0.11539393809198836 -0.35354931038462983 -1.0635440217547618
Ni 3.603529530289474 0.386332486690206 4.9069698945225175 -2.1292691103212427 -0.38389526966633886 1.3028296509971047
Ni 4.217895724513809 6.750884019857866 8.022084006418858 -0.8641999659023634 -0.2173734025502837 0.42367383511585743
Ni 8.935397151892321 0.1854037431352205 6.552222837470986 0.022476069615329036 -0.0703896054671562 1.463271887577983
Ni 6.858361223504885 1.6127054610429312 7.685994143450108 0.3900672028050056 0.5388448585637623 2.1065387586032625
Ni 7.289003005900985 3.4313099296251113 4.962020415941649 -0.7316619119309204 1.836760102978385 2.4769820165297536
Ni 1.0590642580021026 7.673180196112669 12.52324673793426 0.15998997953480834 0.15663443279901412 -0.15894251210690047
Ni 1.5649604947128581 1.9321309761637522 3.289039022473543 2.3031687579586073 2.176991098987554 -1.226918344380771
Ni 5.569135795710689 8.25620505798897 13.108559572740408 0.36039512966186965 -2.6594408665910394 -0.6102127687837878
Ni 1.4610460712972315 3.260704713753098 8.39640046009428 -1.1639288880324277 0.7066705320929055 0.552412569945868
Ni 6.46862646725517 5.9882727669429165 8.293155913586745 1.0627631777246793 -0.5242505056893553 0.4296290242580279
Ni 2.1255324186725684 5.558874246398396 9.16867389877218 -0.6632744244954577 1.3788854536111026 0.5041496211744221
Ni 6.7054121815400105 0.7522198105733874 12.600785453949355 1.4191653841770722 1.8268467005194151 0.008622965782320632
Ni 8.879895716100155 5.692506339296188 4.895739714334813 -0.011053429600684188 -0.6742008415999744 -0.8067471231015331
Ni 7.768363952346679 8.44954155398315 0.7949351332486736 -0.8958024232989926 -0.04807448690972366 0.47320613751803026
Ni 5.208487799943829 4.8538705519644845 6.382534295262675 -0.11241711485185155 -0.24570310273291235 0.13634148687793293
Ni 3.6499384540327746 6.555923860997815 0.19709411576947852 -0.9466174490683309 -1.24698760432682 -1.030874813656515
Ni 3.3805588674748006 8.847877084385214 13.325816797881926 -1.5444189886719595 0.190211240313195 0.3774798530582983
Ni 5.039506246937685 5.943877185153293 3.5866721985123444 -0.059973295229838644 0.23252285659721245 0.0737153274062795
Ni 0.85598764042741 7.352177408493575 3.496341802536255 0.5427081981739105 0.23752853734191998 -0.8005438225042987
P 7.772121572121976 8.234893323115248 8.618002607064865 0.4146837158021052 -0.21068082102145652 0.5059956732442253
Ni 8.570110119365836 2.469452047884216 12.47079036587111 1.7117954904788264 -0.38280640747753425 1.1698604230255143
P 4.114704990832685 2.932335135759718 2.8955355127603073 -1.343807636071363 1.672827336745745 -0.9521854300744116
Ni 7.801653680133757 3.9981445532103166 0.1831862835641192 -0.8612866489103103 1.3825780719713416 1.095091200433424
P 8.975858830509782 4.250174142287289 9.941110631544019 0.6564592013458372 -1.9259210755157736 -0.6692537820073442
P 3.0930499252602077 8.14624133063879 9.320831521065864 -0.19801685240054284 0.33574133566893144 -0.4694512984612883
P 2.9087409948002585 4.575287116475412 7.464079325401926 1.9198614995852548 -0.09242575933158921 -0.8733800897397345
Ni 7.988736754575962 6.973075324496922 6.72560405293996 2.0462211926601275 -0.5787627778046225 1.199154544003941
Ni 0.9442109859072771 2.332925196048417 10.698515029599966 -1.210761017894618 1.2034757970871144 -0.625884928103406
Ni 3.0361289442195942 3.7740048531322175 10.47512035882546 -1.0542901072566617 -0.19997551878881042 0.011111022311496993
Ni 1.0524118792887986 8.438778988700818 10.238866278153274 0.7682327690764189 0.19164951542161832 -0.48394357854019243
Ni 8.842866924684817 6.291359594596334 9.796721540208006 -0.3544479109394993 2.387465460425159 -1.4161710774354384
Ni 3.2210409494582946 8.56274332899155 6.934577814043489 -0.15953669404747362 0.03585403358413179 0.28641626418155836
Ni 7.247789803328467 6.931231212925094 2.9522969109363895 -0.2655093388255621 0.6067914018070646 0.5185454848847779
Ni 1.4051735125642937 5.63440704291863 0.2755114653468478 -0.5242109107006714 -0.39182455181574455 0.6858245418818317
Ni 6.672688416237606 0.49292085089408133 10.082648570887567 0.38687672089216596 -0.9510672573095684 -0.31375428987487897
Ni 2.9855170531720727 1.6555516045548389 0.7946762749974865 -0.7431593710475589 0.2555231741471277 0.7632399438475178
Ni 4.585836286066802 5.02331600864659 12.076743161049645 0.512509305993027 0.7887604567161255 -0.03378275287739988
Ni 8.383184772173458 6.001586802443043 1.114818057393994 -0.5390178938065169 2.0113359507471684 -1.9935953389342955
Ni 8.472736737781283 4.471651035265363 7.6939241128870135 1.7887378094628354 0.837440438420332 0.10155960331205735
Ni 2.189783077793391 9.016023610774624 2.162233694092675 0.5118109943744217 -0.3348476202100685 0.27421303724714713
Ni 4.897264101814027 0.3728746410505304 8.540029677209068 -1.0282358333717712 -0.7786297960400268 0.25912760366893434
Ni 2.3576512619772245 5.518690909986513 11.75343106093161 -1.2314344870835696 0.3796125831305849 0.0571175709485984
Ni 0.5811293514563176 3.1508337671381117 1.2759689163498886 0.1921035722399014 -0.5799349437358529 -1.014805161788162
Ni 9.1213111890711 0.3826815647603802 2.5679592100528223 0.1791855786266527 -0.762870476323241 0.3913596963641841
Ni 3.915801650726952 2.5750365245333082 8.092004496267297 0.30976805153362136 0.8511673010881212 -1.2853518059273152
Ni 4.469257292297395 8.130422215288466 1.533915132910088 0.25340895601760227 0.3350918750103906 2.934511880963107
Ni 6.599521528464782 5.128269576296374 10.667649662423466 0.484670686514204 -0.09023775054133491 -0.2336664832833524
Ni 8.818159414903048 5.211735125675567 11.859051722067427 0.4193063021757811 0.1472805023879399 1.5619343718479035
Ni 5.898006389674109 7.549568422615669 6.5998861567540885 -1.5926035187969863 0.9562578003715725 -0.11304472113352144
Ni 3.1088226502429364 6.39304728036734 5.594631013934243 1.2662467096667482 2.2699495908941616 -0.3097657375407762
Ni 5.6626587767847525 3.6429149523787006 1.1854845043533797 -0.8122248583866527 -0.3166732632938869 -0.20050696581224822
P 6.6654979092601865 3.682606550894062 8.046920481422546 -3.056946013731329 0.5172936147555478 0.41051878579113815
Ni 9.28030025689701 2.5873578061668754 6.299075240534944 0.22254311967668125 0.00427240212310877 -0.4125581848186702
P 6.603390485122311 6.054972837472822 12.68048317767238 -0.3203561114621128 -0.6101454058809621 0.5388363739233302
Ni 3.2731744445629736 4.018240860453017 0.8925441779006165 -0.11804937343696444 0.5307024319622861 -0.02314352799599885
P 1.5555154158702593 3.371670473043357 12.707574224541245 0.38229167262464486 0.11987100002673548 0.5808335442907222
P 5.191815101829733 0.7226218282396205 6.406461519061475 -1.6872216577942039 -0.9773519020377104 0.6254984912982646
P 7.0135555592614205 0.04987428420274122 2.812958802824257 -0.7732081108038232 -0.027572767411946062 0.2904366981948611
Ni 7.732652647371077 7.717798451666754 11.96053065118425 0.021350697761634195 -0.9115144347176108 -0.40767668835665277
Ni 2.6525084384190656 5.813167685414066 2.474220977673112 1.3629906367577171 0.8928909060791524 0.1861373273541375
Ni 4.656850660783159 2.487729852717143 5.159112676096424 1.3925616655466146 0.6199616206404355 0.1555435137276805
Ni 7.514126181772125 1.837309064796993 1.3216680674689665 0.3071336992345678 0.035008654864701 -0.28859373144885136
Ni 0.23850679692266155 0.7440161379676645 0.27675194377637186 0.6513725308515491 -0.21976015761490542 -0.4060188410382556
Ni 1.9476810273820193 0.921576197749709 12.253913541743882 -0.2440218583757475 0.4217737898796672 -0.796103784455074
Ni 8.718197450806624 0.3733023602397679 11.42798685951885 1.3048338259113268 0.8119368948325888 -0.3011589697083717
Ni 1.0611982149115307 0.45267720700432407 4.722467052326016 0.014375294885065566 -1.390708928608592 1.3851756574951886
Ni 3.687783715917805 7.547870535161646 11.374076613335234 -0.1632190279950673 -0.4508007732396366 -0.4911606651139218
Ni 5.259600706961391 1.0196417236187991 1.0397667928894094 1.2199413988423053 0.6301830412581275 -2.873135277627839
Ni 4.022276822433892 2.678134477479241 12.367097688412594 -1.6221560356431224 -0.11126886018002126 1.2991462886082463
Ni 2.042836949395472 1.1299023493215945 7.954757665926404 -1.0152859580793223 -1.7080195683761619 -0.9406666308015348
Ni 7.028641706803724 1.0827604577702732 5.587025777070512 1.127554720278768 0.08235629091072914 -3.3122722413763017
Ni 2.940564786971295 1.490875077661628 10.01742742527663 -0.05441739840861596 -2.087218718118412 0.25069541374118115
Ni 3.3166607751477093 4.469183067709241 4.5713142453944675 -0.5962596490378054 -1.8939622632209896 -1.4203434636455732
Ni 7.372171656927563 4.542210784379277 2.6788897126637075 -0.19591420423524325 -0.4968008941188347 0.43806481373020684
Ni 7.572067750899857 2.5075107054601893 10.553528430329312 0.0097755913295251 1.0258552489547366 -2.38975862733471
Ni 4.926610648355423 2.490142151832149 10.218116794534819 2.992460946674066 0.04914123761134117 -0.2781630230338306
Ni 5.739490503597683 6.247669146394174 1.1873651698557321 1.357140091514211 -1.3630389734971495 -0.8126740301089295
Ni 2.5457734806535863 2.624952560066886 5.9378631378981135 -1.6801742640291193 0.00023268483609637346 0.6416774150509722
Ni 0.9437656383783531 7.747813019501535 7.868202518065298 0.29938567985803277 -0.11284443219725726 0.3645212360151012
Ni 6.1437454449050275 2.4131341416223537 3.2537322415033803 1.5380629645469448 -0.08124248902126009 -0.47001128472981635
Ni 8.990666635846509 1.0147150665800762 8.77639231134143 -0.1280982730325342 -0.35281397488050203 0.7444107269561567
Ni 4.551191959545913 0.8619274630944354 3.0227063552592917 -1.2275343806982149 -1.1457460464758138 0.0850646909808277
Ni 6.175049664958985 3.2834731061693434 12.203954827072115 0.648499065958496 -0.4454765328132457 0.9031439512657284
P 0.8109166148855859 7.70866882732381 5.642144956233686 0.8948002072867234 -0.49157127028877917 0.903924795295811
Ni 1.2480771717363122 5.589027985335966 6.516481842660121 -1.0256554742391046 -0.7843422730437718 1.0494237803032958
P 0.8408866479674749 3.9545283295963114 4.234178743540097 0.8118723601432404 -1.300431583078573 0.976435560871028
Ni 8.15679050023018 8.140461090836297 4.761832990460853 -0.7402913054711443 1.1165748242284963 -1.267595767495475
P 0.6533508035375302 7.890509790227637 1.0511287217210858 -0.3186463278598577 -0.6418787324285009 0.3831375655647079
P 6.768382466515176 5.584945632987496 4.907608225980642 -0.9401737503255162 0.49594780208992006 0.018997624148425346
P 3.8639557759013696 7.835407311596797 3.6085758744765957 -1.806849431461882 -0.7012542461733406 -0.20811974516249965
Ni 0.5218517397418142 5.16900959711941 2.5375549631302325 -0.16048054601798167 -0.6273836241361195 0.9893787512952574
