# total energy = -340860.6287645268 ev
CRYSTAL
PRIMVEC
9.40578372484853 0.00000000000000 0.00000000000000

0.00000000000000 9.40578372484853 0.00000000000000

0.00000000000000 0.00000000000000 13.76631523250519

PRIMCOORD
 96 1
Ni 2.9167052643525317 8.962432545339073 2.1703967838005216 2.3299457689421352 -0.9912268602475897 -0.4515332805302869
Ni 1.4207906355326612 5.9004361423478136 4.154040794455073 0.6974448997295796 -0.14672977209079247 0.4460753427395092
Ni 8.251684510689273 6.5633933907333954 9.28349332366171 0.6807576688818856 -1.665851419648544 0.03929314117266781
Ni 5.102430653619456 1.886414544846546 8.751204982793748 -1.8435151623140313 -0.7042027872787033 0.33965866844546666
Ni 0.10210730516179845 6.333722967785222 11.06948043629013 -0.22286527890279037 -3.259700380816857 -2.9580683281268088
Ni 2.292349351693844 1.349325492049975 6.06040030333887 1.055262241361944 -1.1767370955406897 0.7422772255529217
Ni 4.632771663158682 9.098101567396755 0.6296532499592205 1.4847629675722236 0.12286813498184644 -0.21620740726664056
Ni 6.764884086138253 8.364600942317287 10.15557594196714 -1.8989910838941486 2.3565762270454704 -2.0755037436743287
Ni 7.372366023091763 4.549633942279047 11.102202216714177 1.0250607780778989 0.8655690783357479 0.8832703522702531
Ni 3.944503451215333 6.791210874320411 0.980291455262071 0.7691830488048301 -0.6207977433884857 -0.17595215929101957
Ni 8.643162628206104 1.8251452707420162 11.153908630674083 0.9299124776088242 1.0666568563521306 -0.6619276806595761
Ni 6.790975729731431 4.232837746222144 5.782609891701906 -1.0001159352071032 0.750833856873681 1.7319012600897659
Ni 4.1254331037598115 1.851302754820109 10.973762479900085 -1.1848049601504884 -0.5956726661860838 0.4792916815904778
Ni 2.3258057238138643 3.6076635303938067 5.202634228188876 -0.07583700173497263 0.8328546188218624 -1.9934595846873797
Ni 8.272781683212525 0.6487037239799934 8.788897719828825 -0.9876851656429182 0.2446849458810431 -0.2320513162774326
Ni 8.052742782628956 2.467137027574175 2.4128910520532885 0.460067286143227 -1.1005355113774467 -0.08031740610382941
Ni 7.30386370143022 9.631710480276427 5.900393816321798 0.06869216316007523 -0.7454947040489548 -0.6431779108558987
Ni 2.362469468127567 3.657504777473927 2.047119881582066 1.5808000984041548 0.9375386266955145 -0.15644288561349834
Ni 4.103621091686062 8.739694184874017 10.31679295332828 0.3032685598522067 -0.46326033915922793 0.4423073910566447
Ni 4.462367082416931 3.2271995854247812 6.713598110703442 0.3728963474526739 -1.843914454634979 -1.485425797967203
Ni 6.561324118350375 2.264103783665612 0.3500719771325876 -1.7496899515317543 -0.2642348429885127 1.9873503864658486
Ni -0.46420833888822743 9.016205409946933 2.4092566572860195 2.712464727086238 -0.15547049439789998 0.3577612915834484
Ni 7.012359657363964 8.646191290512162 12.868462579483916 0.2259284912091464 1.4626967318008033 0.11097626864026695
Ni 8.456777621197299 1.0522250067660044 13.270135625800547 0.8535980220168009 -0.9456460862939972 1.3455305322997408
P 0.787673235488593 3.0576603367704753 3.3303885556958863 -1.285269273515838 0.789793268856014 0.9800878129116347
P 7.800564319623652 7.964986822021761 7.926052521556872 -0.9777226551135679 2.3979966989737864 -1.117681941249746
P 8.481119789048469 3.3047878940044964 7.012932469582719 0.6479228817400519 -0.10619478809122355 0.055778797532516834
P 7.789625393344319 0.5275431230623543 3.848414906953057 -1.2289631427249414 1.2179883888809926 0.2771551505946066
P 3.5579915874177517 6.703896985540498 4.2079359342492015 -0.16030159723795617 0.4500664661767733 -1.1729298059794573
P 3.910304022194137 9.181258099843507 6.253390051562936 -2.760293673644059 2.327862918271178 2.686962983270708
P 7.265920770552468 6.948748343153198 11.442795045175817 2.128121884090677 -2.8203456446306334 1.0448181632104845
P 0.8610844355896745 0.33305503351731036 0.5933582123610381 0.27971236979882147 0.5135038086958124 -0.5500294144256721
Ni 5.348589415146882 3.8074235616237737 10.163821992413478 -0.16199569711092746 0.5581625850557678 -0.0063639945448148464
Ni -0.2502098325063665 4.688115293620925 1.828758972785455 1.8105731601703723 -2.6300441585964767 -1.215053731732701
Ni 1.7329027513770907 6.48362294036795 8.777512959408789 0.051692800388601294 1.0302631482144449 -0.5445017997392235
Ni 6.752534292325043 1.9868400959079622 7.293380015075152 1.1409733076775188 1.2532194441691449 -0.7971705351566917
Ni 2.10374457976507 7.683471720095359 6.619312655149461 -0.6788601947488566 0.19761961696212416 -1.0831813363697151
Ni 8.838934607206976 8.841135560559826 10.936043406671041 2.3813300369513826 -0.2586853739251932 0.7528264618236777
Ni 3.571921552868904 4.71112184020669 8.128444291026698 -2.7459507746588256 0.3645343486412238 2.440829477868596
Ni 0.5892243704867764 8.54200342602707 8.475011673205135 -0.7441057941212281 -0.8758933430798915 0.7719703817419802
Ni 5.801412053036716 9.202091910427102 7.730225989011355 0.2470513892306907 -0.4250540032928357 0.24656133696814958
Ni 6.381683058153505 2.098232790599388 11.913024966698634 -0.8152199364592347 -0.11069036196873194 -0.684585270158092
Ni 3.060096434712304 4.1943210625472815 10.794841902723848 -0.7804503941885333 0.34541254021010837 0.3487937979775154
Ni 1.7946799377938165 7.474898469670436 0.4263359513871698 -0.39728686048189643 -0.48902999192416424 1.8173374754773992
Ni 0.9930250050444953 1.9689973244961885 9.366380850698672 0.3573434873197394 0.07829446213652967 -0.027778198554532806
Ni 8.21893357233619 3.3631695925563565 13.203782525682279 1.3650552325962297 1.6253290340544655 -0.4316856496767404
Ni 5.064045650914423 8.287671038586714 5.024167950358547 1.300035376081419 -1.4084271718239614 -1.4667019963054546
Ni -0.19597138161232733 5.6467621597566 13.168732813827333 0.22524740598172174 -0.8756915114817306 1.7624297676959257
Ni 2.897000147796039 8.795752654886758 12.745350278477748 0.07481036024267117 1.211330774355159 -1.6932197843591676
Ni 1.6260906732789882 1.6123206061483413 12.380707802033626 -0.4752108266528849 0.8377877944574216 0.35968499096872253
Ni 6.802384945188723 7.124363727986737 6.083705953841817 -1.236891653543399 0.2549241071105481 2.1733254772105086
Ni 9.64666567613553 9.616190937403772 6.426583447129985 0.020217612598455503 0.10506375981057389 -0.18731489260200643
Ni 3.0745907471770075 6.550168859049181 11.945747687701038 -0.201772205677917 -1.2859686135757078 -0.2019357278389748
Ni 4.2035857593530785 7.503717790495778 7.654718239754931 -0.3808631677082344 -0.9657078900408788 0.5863436754756741
Ni 5.730577097052496 2.0378100370151846 4.907374454747438 1.0563323344976712 -0.5028936372801338 0.3920065859195636
Ni 5.229032500326085 -0.1471064548656504 2.9975188161146913 0.6913570416642867 0.3275320603852618 -0.19849019249253558
P 7.134992263408616 4.397025104031274 1.2885481404255905 -0.5610051967108854 -1.0503856299959329 -0.320726350317338
P 6.95944271905999 2.0532355220522476 9.838275595911464 -0.14128391848487282 0.7029360047511378 -0.7574745021186503
P 1.505113485140753 7.618844581260201 2.688615953620656 -1.9871344138003002 -1.7503412119625081 1.2962645961850772
P 5.4492218934466 5.0730846089148 7.3681033219827405 2.4690339653272706 0.14601603385321948 -0.22596962885972693
P 1.4941933704285395 5.408560691120244 6.751854254173714 0.7866097289217098 -0.025544938348639877 -0.36386406204707655
P 2.953999196164699 2.3229651771789905 8.297467162163604 1.0532876341340764 -0.4236427247676059 0.2870168738800347
P 5.872877196519402 7.266635610102966 2.0645205811665575 -0.6693777091797181 1.2550521265025094 0.20391547727316495
P 4.887358006755136 4.552173503840027 12.247752348532769 -0.4061839058612101 -0.09837503493648865 -0.4969441045649184
Ni 3.969833226340218 5.540918877365093 5.8728480385903685 -0.8121389835410658 -0.168830974865206 -0.18320626975027157
Ni 1.5929446920164207 1.1797674318285507 2.604339192352004 -0.9594554813732636 1.8048892224117175 0.26883531787500153
Ni 7.461438793397243 4.430584939770445 3.6338257173636794 -0.30755253193954124 0.6138717056926138 -1.752176208288718
Ni 2.688624418825859 0.01328096638556895 8.590786522456783 0.4180053239761704 1.2388711458672728 -0.6931866386738578
Ni 3.6089239053907374 1.3607158959401477 4.1230111144933215 -0.20271940008253478 -0.21027818626639913 -0.6134999241754918
Ni 0.5880420634933868 4.599879638052212 8.962999714087692 -1.1309321213914327 -1.093532597697052 0.09634129233591149
Ni 5.75625488616907 6.198580669606854 3.976386235745902 -0.769722466248068 -0.6517954773215807 -0.492688414612358
Ni 0.6867943256596241 2.5645527278966522 0.9107601408791531 -0.6623971640968269 -0.35211309215873554 -1.4802581377233346
Ni 8.895247033375817 6.597028472741041 2.609143666594036 -0.5389451315870525 2.0849332645183445 0.23683871036374696
Ni 5.541257485573224 2.323802291915758 2.552454068504473 -0.1753608055639238 -0.6241700022948282 -0.09929420431664834
Ni 9.346085050934663 7.87130521777228 4.57913047952065 -2.4640789353148405 -0.3564826819813409 0.2696218183320389
Ni 5.967706306363104 6.477650267807867 8.876781599092425 -0.9912628556918477 -0.5658260151382964 0.34108794469282544
Ni 4.9219336671187 4.536268323841446 1.6488743027944013 0.5835476007877757 0.37615033561359734 0.3213017632048337
Ni 1.3863560619224855 3.1181677424067105 7.124907382276458 -2.377833850872666 1.0003776735089223 1.1736977944937335
Ni 8.871883067014801 7.877174426713211 0.29760839759616653 -0.6538130219722417 0.561242252422356 -0.01216697437983711
Ni 7.411851502473221 4.091233674738616 8.790397942306514 -0.20778190220710668 0.012897424787958434 -1.1486850744994797
Ni 6.511304161382631 6.316040094693954 0.3115590557711494 0.4837615444363733 -0.17232047607570322 -0.7784225651252271
Ni 8.247611806408147 2.650549806978279 4.882443484845463 1.2222049980655016 -2.0083437008880636 0.35293147429497285
Ni 7.066819144171644 9.546305965559029 1.4923921628769554 -1.5738992575192636 0.006929380129981615 -0.8271498551276013
Ni 4.302327675157401 3.7112400189475494 3.9421905690381296 0.18480343903406238 1.1280910523982122 0.28952652767576587
Ni 5.375753318065807 7.421586488456977 12.110723250172429 -3.068965663900024 -0.9195108226595261 0.010431222635653003
Ni 9.142064199752385 6.8118659750163815 6.598222066674702 0.7516640660844603 -0.8051607524510197 0.8128442371382066
Ni 3.702426799752594 3.32436132959116 13.73328957635179 -0.3385713489185589 -0.10238544164746238 -0.7071063340787435
Ni 1.6071003962729937 9.058427972344113 4.473515757669632 3.147192763133728 1.8229489081269057 -0.28348160703326664
P 7.871625014413293 6.303765547149218 4.576611610683501 0.9470205980440207 -1.0559944915422783 -0.5740795133963403
P 0.5360318427245185 3.68954087627651 10.94649229162694 0.13597639022903033 0.03823796043527608 0.4655609622679466
P 4.972292232294575 0.26748355401280943 12.374994729099777 0.3671249921865355 0.25729672110778273 -1.284241346471956
P 0.8467406156619177 7.576970032854709 12.302115896348145 1.4253347462125776 2.644739812935439 1.354600612921809
P 3.7478755459105746 1.5600244495592739 1.489006080795649 0.1434341320586562 1.008362748596928 0.7733184111294424
P 2.158796630936979 5.297403141017798 0.3146893005396461 0.11254181335517392 -1.09554371458981 0.3758502878746753
P 3.5871871395854615 6.31608712361175 9.70464668830777 1.248468559747721 0.6328847564600067 1.4235087487474323
P 1.8397054236916341 0.3596799850382948 10.689612817998757 0.18724418726507108 -0.8990129598164903 -0.35278594985604406
