# total energy = -381168.63611627696 ev
CRYSTAL
PRIMVEC
9.24783673276201 0.00000000000000 0.00000000000000

0.00000000000000 9.24783673276201 0.00000000000000

0.00000000000000 0.00000000000000 13.53514384406476

PRIMCOORD
 96 1
Ni 6.644117641875488 7.833213753524011 0.8354606795845533 0.5271373403188471 0.3960226490574921 0.058943568413743645
Ni 3.526079973885177 9.135383166493307 13.570064961710482 1.5594951662787917 -1.000391043245361 -0.8589672567485143
Ni 3.78314209515888 6.769388840018223 0.8647430302267467 -1.0607834282904893 1.8071695338054619 -0.09406046672153479
Ni 4.87130731528741 0.26216230330350615 7.289609256625549 0.6691946466346346 -0.9832600399920294 1.4098983570528492
Ni 8.43150255935925 4.28494821900511 3.5602572045788214 -0.08129622507733096 -0.9164761495982604 0.9278373402473505
Ni 2.606299367353494 4.895610630562703 12.12954605970716 -0.11460409520084135 1.1403361883141523 -1.263352675948405
Ni 8.768780417580398 0.96907157701011 0.8809766830556081 -0.18664332045627854 1.3221039258456844 0.7445022582286985
Ni 3.1540487447338377 3.869923796278872 6.22934660987929 1.297809572074694 0.03349273244080683 -0.49961599497012665
Ni 5.016035962189359 5.036242485734455 4.643190923394098 -2.021496693330254 0.9886531859831426 0.2723829260169438
Ni 7.171207351704462 5.041828179199552 5.354651982404545 1.2025936515924773 1.3339829366714575 1.1374511534568732
Ni 7.061084110342902 4.4488846230709775 8.766577582839693 -0.16642030854118436 1.1608173389866394 0.10714712470216385
Ni 2.836995905731513 6.266787402201796 9.540530899450133 -0.4281809789575916 -1.4312436554978447 0.7585044860450615
Ni 0.6570125699136672 7.570787886869916 8.337120985905456 0.9574541346725189 0.07338956863574457 1.2563212230229202
Ni 1.2494937341991048 3.0246715070240455 11.62042212255144 -0.5150163886855968 -0.08161427053838204 -0.31650819847093237
Ni 2.227054825449214 0.2309046147074305 7.63238680342897 0.6145018830774449 1.195704894892444 1.3123954403086688
Ni 0.048334744146819236 4.476868577417642 9.306467223670388 2.418506903111996 1.4481507156658286 0.553106253578783
Ni 3.97519192328749 8.304224580617301 5.188263976786363 0.6916486047627766 0.025073655139176174 0.279005573539784
Ni 0.7335208490628369 2.6506150015997645 4.443262863042115 0.7725401382025211 -0.2814028701273669 -1.122100382032416
Ni 3.4405282350679296 7.240880554628378 7.666995908104104 0.9432032811804595 1.5283830182550193 -1.2857156170246373
Ni 8.197199364604764 2.923000788555035 5.821234945207954 -1.2136319116845098 -0.8027259177572821 -1.6407546245809161
Ni 8.678650999516092 2.712667986948779 7.946036438465805 -1.603117788064749 -1.0457982677355666 1.8130571029344906
Ni 5.1054717924889585 7.175146930207991 9.614581103561186 0.376405646157513 0.477622521418171 -0.09515832777140386
Ni 7.196204254744459 6.050406515287307 12.661653645817857 -0.7562874237890846 0.08135021824371796 0.08381873438886855
Ni 4.064100626885914 2.83499837296916 13.525317453482721 0.12934577228639013 -2.1274495406140006 -0.7220647551607887
P 0.7766481362722448 7.896912853834594 4.052773876296425 0.20345859224140445 0.38192606175510996 -0.6415115788970693
Ni 3.9235797457565145 0.2918867005477388 9.689985190988944 0.9689557075542151 -0.04343210304170585 -0.6290754100162456
P 1.034527766324614 1.2803815093206705 5.993970666048723 0.6410716631461734 -1.419377500187878 1.243516357948768
Ni 7.934930711177335 6.719764947412737 3.628853034508227 -0.49056159807734223 -0.30417230261339867 -0.17093593702335078
P 5.873597122308499 4.107472981772185 2.998102471717381 2.1656072826306447 -0.37757909764032394 0.43248423431863575
P 6.704191590135876 8.28184481540946 4.500936072852934 0.01905367419734138 0.6233706463219845 0.5345374894376601
P 8.88568232336235 6.795726679403318 0.5897955924604967 0.49400250543809116 -0.43251020246056476 1.7761391468622185
Ni 3.7124331345063375 7.173769002515441 11.640859842018106 -1.853353745671008 0.32067235715095094 0.04348455354619608
Ni 1.642258613596717 2.757649465449167 7.654083153492654 1.0945517829901859 0.9388910269583508 -1.767622367640459
Ni 0.22619469139323484 9.210466353981928 10.68293745712972 -0.8050141995708265 -0.721649264889925 -2.8539502200589557
Ni 1.6324004195010318 5.920159980912416 1.670683689761734 -1.1198506667662906 0.08589824262571658 -1.5201639727793366
Ni 4.742262999704677 4.847364665649766 9.02871214263261 -0.9165828503794536 -0.5231906969662731 -1.2630456862309472
Ni 3.977300430092196 2.5009850011605623 8.174699377517706 -2.4444591042013837 -0.28518959086330886 1.1094245863369605
Ni 1.8905722811982637 3.6702260070647723 0.5340625788234821 -0.7779695367482085 0.6086212559269518 0.1757960933291295
Ni 8.173062510393 3.2113760854459894 13.252286167514432 0.7220205321864146 -1.8290033418511016 0.1506941560551792
Ni 8.751792141263538 0.27934663376185753 7.868994559129654 3.543859730643439 -0.3205530579642673 -1.874961553748771
Ni 5.867123636504577 3.0310247709487506 5.450454023600457 -1.5102888797574698 -0.6947737806553195 -1.325388510134227
Ni 8.385827493094158 7.907834549169494 6.1296336584741224 -0.8743614798163974 0.22629384496836513 -0.9180892597216512
Ni 2.4804732989989957 1.0113434393097143 11.32233752173829 0.3035498385380514 -1.3356482401890224 0.4823991168712079
Ni 8.775512842816477 8.567834170389828 2.3974526931310813 1.233469001015095 -1.4891495266756933 -0.4961722593959004
Ni 1.72547064968769 8.049095257247913 6.032803257819072 -0.8404347451619656 -0.7380577881549354 -0.9043222878445458
Ni 6.456377305724918 9.337540880312897 10.41829858311437 0.059732639973942285 -0.31035374883376227 -0.022785887546263983
Ni 8.672353222612564 0.580260147871321 4.562047628409321 0.8430441577603545 -0.6931979515277674 -0.11909169865854974
Ni 2.998731324624048 6.032151285320249 5.3381797353846245 0.41470582728929223 -0.15367792127385144 1.2576222012225309
Ni 4.801939290979966 1.1396479279434282 11.986642011018231 -0.27130794778521017 -0.03397250029070278 -0.7710291008746334
Ni 5.296957502568942 7.0628504471836875 3.4112754775036973 0.09310890144154288 0.4373035100841501 -0.5904720958217508
Ni 0.016721013831527926 4.991408972623871 12.704140057932676 1.905511144400854 1.440425064886797 -0.5580998501386324
Ni 8.080195732617323 5.132863885276407 1.6055391525495046 -0.3349630627420102 0.23831683757117023 -1.6490281774436182
Ni 1.3489727153316449 1.650905341063383 9.471812998074139 -0.5549569336342765 0.03918464061926155 0.6961488066259753
Ni 1.8451654022021893 1.3085596682414526 13.418011103229553 -1.7758455268811997 0.7248993963961065 0.6443032827095936
Ni 6.084669750863774 3.402084977229502 12.305259584017731 -0.07817310606731699 -0.1891033519609969 -0.5943624320150924
Ni 1.5339202047496676 4.5281385849846965 3.5089048912636884 1.1185625440824865 0.5925210079309795 0.006809309612349564
P 2.4516847828452724 3.9086167457125947 9.507572533654999 -0.38348286471926857 0.450181908708715 -0.5010308730397822
Ni 5.6646977354159675 5.694503513624593 1.3888271930753278 1.2423562762023956 -1.475431919979285 0.08857527523724745
P 0.8622146716284725 2.7308862255683852 2.153671390375966 -0.3232100359711401 -0.40145179049286345 0.4742572044903639
Ni 5.638905518405775 8.014156929580466 12.157631740259314 0.9809920698934588 -0.16021263706857566 0.5120776177722471
P 9.15254715171056 1.0118243268265767 12.344173556752473 -0.1219492227120029 2.355675569608072 0.9385837801305771
P 5.483301415353239 4.729981872350952 6.860328368591705 -0.30974259761232464 0.3386567095435135 0.2812573456884382
P 7.2128688567711245 1.0425086495371623 8.740969397783068 -2.976412377851635 2.1306443934022146 0.773183685323791
Ni 6.817153917414297 8.109779562741242 8.121966362158966 0.7017080458813076 0.709038775214766 1.1637581667825185
Ni 8.375118498007101 6.097672209492792 7.510340326000275 -0.2617475577902847 -1.3966705455086657 -0.07001808106035039
Ni 6.794182290647241 0.37546310141110395 2.5203388741469137 0.7022317795952615 -2.4288972452073847 -0.28793989991493635
Ni 5.8748733237955575 2.7556704283605398 9.956709452216842 0.018823046243774032 -1.0420907369769925 1.0649136484087787
Ni 3.804365880758878 4.074828117646697 2.590477243265025 -0.1282790215847726 3.3559102897812267 -4.248431728336103
Ni 6.923365323782915 1.0224593392187327 12.634285597406253 1.1324866103627464 -0.2651804947312336 0.828596871986773
Ni 6.026288156749269 2.726327041995052 7.663124763593359 2.2619251779277887 -1.6356386435105894 -0.4788556224943237
Ni 5.193132038110912 5.31545317629443 11.237174192069276 0.2039005648748295 0.2090211739308465 0.42639406226049786
Ni 6.612462296294315 0.8186323908454176 5.72916903010459 -0.0883814140588865 -0.6032563920706127 0.8722403197083364
Ni 5.647025119171263 6.942869011726443 6.663824782229996 -0.41926876406962627 -0.8023176265752698 -1.1159415615198718
Ni 8.819014667418825 8.007498487039289 12.506554474658026 -1.5221136403065398 1.179967172442213 0.174105593000584
Ni 8.291786240036911 2.6428745621456478 10.530910417375692 -0.271107658848946 -1.2392565542311496 0.5633945228786685
Ni 2.972171537154246 1.8748879498790494 1.8347560370294842 -0.4063893370037968 -0.734457986618819 1.7004540973240778
Ni 3.640179785097716 1.3480109402979197 5.8449759920019915 -0.9465092056252409 0.668645458999384 0.4752977299397363
Ni 5.230604273078751 1.1560165991904856 1.2038843275757363 -0.5214726858339019 -0.5996244517449802 -1.1244835375526119
Ni 7.144018711327994 2.1267157954884386 3.6244270197857174 0.22734516905101493 3.0380522621506194 0.4697114941012104
Ni 2.0493206487841316 8.727359356272167 1.7165677571399263 -0.9806701677776659 -0.6418010851130301 0.524421998270213
Ni 1.6938337997802417 7.122683951685643 13.061996202740803 0.45437357819255936 0.27395464137943787 1.4236067077778771
Ni 3.557097218722822 2.8117678067699465 4.119881729274615 -1.3346143996078692 -1.5191093062625773 2.4935304078067375
Ni 1.7913892308453312 5.675545448055967 7.276520793113707 -0.6200192133512483 -0.6313618920575772 0.8931423599683262
Ni 2.7257536761095618 6.9182882613452685 3.404332201587149 0.019273503517631324 1.2976352512803586 -1.1915373937783156
Ni 1.028091271868144 6.764395008112341 10.953613319049067 -0.3958886945827892 -0.2217982710908567 -0.5865321373373964
Ni 2.1323477281378502 0.5507928404918726 4.078003824825363 0.04375349093686658 -0.33335432349399363 -0.23933268043019426
Ni 6.331476021056694 3.234541916787164 1.138919198398644 0.1182928569063382 -0.3010383849701074 0.274286827907876
Ni 7.973928839227527 7.164539661326423 10.493702670542127 -1.2151709740368555 -0.784106759994198 -1.2008782115632672
P 4.175037677891394 8.667914260918446 2.301962304037443 -0.035297646860029536 0.478356314260402 -0.021497250641827493
Ni 3.715586646876533 3.041927970609926 10.953315538702087 0.5388518005422978 0.1958949209615336 0.06209008446252532
P 0.36237463789926194 4.256881034126681 6.579352265974632 -0.32631592858997355 1.112738995422174 0.1800821222989931
Ni 0.4392630031434904 6.058082219883384 5.132107412221035 0.027634473887816924 -1.1513813903847203 0.4100112500271003
P 7.7457847038236265 4.74399234519801 10.858204310919822 -0.6400427076610268 0.6909130121483326 1.2005871626854097
P 3.924680238343181 4.780502805132124 0.19066727651763013 0.860392676341131 2.2043903169361134 0.8223480628635836
P 2.1212965630868705 8.42630527504239 10.024479450314406 0.6861541573071086 -0.4972426096419437 -0.8180455788334878
Ni 5.023619188416808 1.0741824907920614 3.7879861121075855 -1.1809094817508243 -0.9296201431793861 0.09429263733699889
