# total energy = -340871.079068469 ev
CRYSTAL
PRIMVEC
9.21432983499617 0.00000000000000 0.00000000000000

0.00000000000000 9.21432983499617 0.00000000000000

0.00000000000000 0.00000000000000 13.48610311225012

PRIMCOORD
 96 1
Ni 1.4282856334279612 7.378070587402742 6.03856410104243 -0.797151251882982 1.4124915717013222 0.6084289374104876
Ni 5.885054286489883 6.909420554812088 9.591302869860797 -0.9411186307372889 -0.21126060478432648 -1.9189094200846306
Ni 4.717700046917768 5.661219784775561 3.2798471747638893 0.3999883185734595 -1.3459624776308368 0.8521980563454806
Ni 8.150369647224327 6.973211360648094 10.217247042290266 1.7329181313900541 -0.0234515461547209 1.0495255959884826
Ni 3.6788396376768815 0.433384027798491 12.022254103284459 1.0366500255773952 -1.2745084354549083 1.2942478228653644
Ni 2.6144186773181155 7.331114362277755 13.164000798656252 1.4597055103829635 1.2360946115634002 0.6415465459000629
Ni 7.057697551419484 9.114372840430011 9.607473097386668 -2.246163029997525 -1.4026352477325326 -0.9786641930912306
Ni 0.197815076967867 2.215060405508447 9.809022742259394 -0.9383752636641968 0.8999768663916564 0.02838960688628659
Ni 8.41084953891551 8.786674412183338 2.644462921360999 0.13349373301649267 0.7478256661749767 0.7994518749917006
Ni 1.1792591537914023 1.2960231421712762 1.1178668380260468 -1.6270735275493977 -1.3865110884771605 0.40988423753093284
Ni 3.921876802884233 0.2853189607785893 4.402848237405251 -0.11088987957404774 -1.2333155061563663 -1.36240468234726
Ni 9.008232974414561 0.3869345908175137 8.330298788440603 0.6732495334302986 -0.5172121107853351 -0.9834878397321192
Ni 3.5195699455094163 4.356986674671325 7.647753751789143 0.6752693920738048 -0.3455290111833146 0.20617470562098686
Ni 6.656459556312035 0.05935502742643593 0.9964910775356829 0.8830068141962212 -0.378936897219799 2.3941073912217092
Ni 1.7867322805211965 6.268269052330365 10.812793140409036 -1.3407552223982844 -0.12012502501907053 -1.2116621895526487
Ni 7.052215025134286 3.7193458318781065 11.39590542177277 0.7661290924698548 0.03129623901012029 -1.1862686891802088
Ni 4.96285650800007 3.1200089584421438 12.733578256484757 0.13248997434232668 0.4705897829411057 -0.8151572015420994
Ni 2.6236790788586597 8.795372739600525 7.911838289333718 -1.053489208621921 -0.15788038939097324 -0.4564877963220848
Ni 3.1818739693309124 2.0047801830639154 0.41911748082811867 0.06212453724488656 0.6539778296848802 -1.5113718284090034
Ni 4.278941300493805 8.66124895370584 9.724100713684154 -1.821273577307012 0.14135976602813075 -2.4539662723608706
Ni 2.5741059840446034 2.4643172433922835 5.1478747236151925 0.5051878326309494 0.08724318668938523 -0.6784305634106058
Ni 6.136780564784532 3.579398589492254 3.148560481042671 0.12728246199945822 0.2367770038878761 -0.7061701954177193
Ni 8.236357773767965 5.061532766803737 2.84257377831837 -2.6154495486117537 1.4409205164659764 1.1755250775104593
Ni 2.984309522136083 4.761256184312944 12.470221651001575 0.669737406511982 -0.7166947490981269 0.25405815956582695
P 7.124132869934233 7.413370685215503 3.579832584430124 -1.1788055480339439 -0.8105806379150103 0.5418509923799377
P 3.6620234856256446 5.503461242710234 9.532139500496095 -1.3531795642045663 1.0381165828205927 -0.28264728405742934
P 7.073739699759869 5.141310435000782 9.415835307177787 0.14782969002319057 -1.1117426929471756 -0.14476364950335713
P 4.813400077166613 2.4053271034295345 8.139388930293117 -1.4318851457365858 -0.5747793676768423 1.614067345097717
P 3.2815085184432524 2.3850279346794663 11.398373940750593 0.2232514585976155 2.1293719544476946 0.0595230950662975
P 0.2465505891948234 1.4624339400043354 3.1253505054800077 -0.11921691138250437 1.2343961408150548 0.05016325111795232
P 8.25239070777846 5.341049464049908 12.688008788008377 0.2574833831972921 1.243198569598033 -1.3393035775534223
P 8.881342437484381 9.090341868074052 0.2965687361426193 -0.6431133761665505 0.6408472058401931 0.6605369709596366
Ni 8.167609658450555 6.463179772516561 7.87810923476739 -0.041590936067909014 0.05187920536779452 -0.323945628585584
Ni 0.5972406133857403 7.920343115823194 12.300418136902618 -0.6184978916107154 -1.6805445028843444 0.3787065263765478
Ni 0.7345774361134477 3.61271760637843 11.672329789907494 -0.9604289010301265 0.6926521063266264 -0.48557674326824113
Ni 5.001317120965473 7.684741914837951 13.508355049614055 -0.3160780529120492 1.863478492809836 -0.42149739628982896
Ni 7.139032441368123 2.4286025007344243 4.911504126084044 3.76598247495325 0.04261372090546854 -0.039928203653505426
Ni 0.08656125786286395 3.3945775605368 4.298129221059008 0.5716127970234026 -0.11546772875271727 -0.12204306797738983
Ni 5.7562840262619215 3.0933703307270064 6.430781267186505 -1.5785573251165652 1.547604842599109 0.6818002512137871
Ni 6.4051387085325935 0.226502971650782 5.591244320716656 0.5878806809454907 -1.0789989228572514 0.9230918551425651
Ni 6.20008301113631 6.147478401788085 11.817656358083763 1.0836726741838367 -1.710226089109177 0.8896443741173968
Ni 2.928765541552601 6.717753278747555 2.0199211699409525 0.1361435119345139 -0.1510062879789593 -0.5878457139424973
Ni 0.7750071513765768 6.713735830915041 3.8803432109001514 -0.7906386475754448 -0.1495495009277747 -0.5519469431633591
Ni 1.2488457731289029 1.0789519585970124 12.257829504146008 1.004117857277645 0.9753407851449524 -0.3986274336701909
Ni 7.039480821224802 4.098561578545856 0.29843648081154295 -1.6960084028478986 0.9030418784702254 0.5269018272692731
Ni 1.0646513186060431 4.938908464613131 2.1761584261412605 2.179248270452847 -0.04119550040170324 -1.0441661314487825
Ni 1.9925619816283322 4.875338802694511 5.735370261708117 -0.07892438241104473 0.017323578880112104 -0.7329878298311957
Ni 2.187988704288429 2.6457473989478166 2.678015982226409 -0.2200221530270404 1.0621057466463386 0.7467614865765204
Ni 3.9661700866706955 6.79736508900656 11.27234586509822 -0.48425031114733375 -0.69710217167818 0.10378000800214385
Ni 4.423071848650212 3.9717171132651305 1.4673147705476448 -0.4860076601580727 1.3701131067351113 -0.3358012423725894
Ni 0.04931048641216032 4.718087048773193 9.574284002551956 -2.7885308141128817 0.7325520278453578 -0.07549658767641836
Ni 6.059638194936338 0.949638052905476 12.661495475179759 -1.4643838896952392 0.9538905856909764 -2.8001180047298484
Ni 2.032819388922498 3.821283963463219 9.726528689610456 3.029145189468977 -0.6230973380559398 -0.1012947796864449
Ni 7.94469658972534 3.965119653063111 7.186137938637346 0.5937211988866679 0.19490067536906436 -0.24473045440699784
Ni 4.990987857157562 3.9526618790503596 9.998179113428604 0.5540886720967102 -0.22587989735939806 -0.1373503877584215
Ni 6.311723832096738 6.328254339921351 1.4665868384862488 -2.0534678469202117 -1.522821979227474 2.162826634561714
P 8.956273368158714 5.3655411529004216 5.372081484257116 0.19261984975468763 0.226669483140229 0.40871104315843804
P 5.471911377163147 8.268460499108519 11.30429471112959 2.435520664061173 1.2824081499179592 1.7682152640294515
P 0.7176755907942239 3.219284148688732 7.953132308740632 0.6900141544831472 0.375319869292502 -0.24290908492754296
P 4.894873182063618 5.616576356453237 0.08117271774255538 -1.6178239839266715 -2.5748202051261657 -0.8149792812033384
P 2.772020575775294 4.598171759570567 3.610310823410878 -0.20768291473539713 0.14441346525278997 -0.4832866616824838
P 2.1712831241958854 0.3919048003607669 5.809705025238496 -0.0009371671022887086 -0.3775294753493111 0.5133310305633739
P 7.4898956949609925 1.5716974638528631 10.840049128226877 -1.2805356154855947 1.343607090024783 0.7093097694879655
P 6.691179151341656 2.345645888724954 1.3955415907269888 -1.4430681589365988 -2.191253008223207 0.0711748203726129
Ni 2.2449424773452473 1.1644148683368587 9.79250237019766 0.5543293273526065 -0.017389913341673276 0.415181224263814
Ni 4.4179026095813105 0.8932970327864151 6.511293317475868 -0.620136455655403 0.2737384116035737 1.8547187443393351
Ni 5.812371652308978 5.717648341028587 7.322846344066481 0.6687117934609451 0.5154956423148606 1.1571321768255685
Ni 6.427686173776087 0.7860606615139266 3.314560319762587 -0.0027580223611113792 -0.312544585837494 -1.1854423366241713
Ni 1.672004659047253 9.083762836531815 3.5669398940465133 1.136752841838268 -0.5443971558405593 -0.7942194229481677
Ni 3.094743265880779 6.9776710963153805 4.325303201340817 -0.35705526665535925 0.5091992677831876 0.6377055748874179
Ni 6.730819198533119 5.166133839727374 5.087254568694711 0.8269747630023175 -0.3325565101830466 -0.5953852168526521
Ni 2.5928847883626416 2.036551192528389 7.579082115409827 -0.5980159696072798 0.4070822493057634 0.09610037996969902
Ni 6.9294340793355325 2.228494898489654 8.778765752837817 0.9011724293616545 0.580925075563264 -0.6391209671777057
Ni 8.21217937213375 1.9210587816734852 12.90148085432718 0.6541567784649056 0.3523141524259481 0.5921158020727609
Ni 5.111575792442238 1.4919842959650564 10.230490798642728 0.2626222470857542 1.4954986088221727 0.5095021437355871
Ni 1.298888798767405 5.845967099091886 7.904326767606503 1.40686059866779 -1.04132583378651 -0.05646348230436728
Ni 8.21049314976368 6.91595351470487 1.0099016132591732 1.4562615176984208 -0.7250253804510094 -1.7701569611368544
Ni 3.5577356999183047 6.816401894561549 6.84684051192377 1.0783702881343171 -0.4962679044335001 0.21821132507054675
Ni 8.058908208725382 7.53980971998102 5.751580110852521 -0.14405891012684868 -0.4768136523636304 -1.2868494735187643
Ni 4.3743833295057 1.8779357177831908 2.3702094493486174 1.2049958332760666 -1.5723421974447889 1.0447258606069945
Ni 8.69900927759952 3.0321595372605055 1.6742188625200818 1.0560371718547554 0.487218135526406 0.6817832819329226
Ni 1.0250757717238177 5.772344603262089 13.2861984773729 -1.091122445593663 -1.1547816743155208 0.5219691658543462
Ni 5.354686672288719 7.209282492457781 5.039446939487786 0.854430030999793 0.8589965673245529 0.6941600583307206
Ni 9.251463640549625 0.5478011263551047 5.036897334406922 -1.2683215899179061 0.13821042176587164 1.8508991134829285
Ni 5.052714653097965 7.989782305882437 2.642534362114794 -0.42505297485157123 0.908947188211067 0.11676536451821826
Ni 7.340144405571022 8.12448659456026 12.517072832765804 0.4919574499836044 -0.2448476967111525 -0.980100411317125
Ni 8.96140574990805 9.322229694113187 10.751282881221075 1.1425270253178839 -0.8672953169982353 -0.22528751519103785
Ni 0.8569022725825935 7.731421710066205 1.6557293881606234 3.609934253675009 -0.06752488232485143 -1.0804117440443781
P 7.921734479636748 1.407129531998022 6.763483076564039 -0.5432815541788772 0.786036372916743 -0.3329568309452588
P 5.111916722648209 2.061006024059338 4.493246342234763 -1.305083480028288 0.22003963652853717 0.3051428940567842
P 3.744233736913937 9.195753802028104 1.179204789245045 -0.4419638916742969 -0.4154766440170457 -0.19138006381031555
P 4.581125249272054 5.060169045979855 5.694830895919284 -0.573705160776057 0.2279465500804397 -0.6035646673396509
P 1.1647373698830468 3.441930001847104 0.14612821487679492 0.9702055208009162 -0.6870823255483328 2.488833773662017
P 2.1507535971985403 8.583738010662003 10.982462125291585 -0.17127172309621475 -1.5450843901701001 -0.30569131036108643
P 0.7810922948366518 7.674790438555575 8.739628808058407 -0.6010208178718746 0.17170495397889138 0.5157082725462989
P 5.551403401133568 8.064188019752978 7.495265806421519 -0.4976424161835236 -0.10637707930535874 -0.2033331224071337
