# total energy = -340882.91253793763 ev
CRYSTAL
PRIMVEC
9.12938457472198 0.00000000000000 0.00000000000000

0.00000000000000 9.12938457472198 0.00000000000000

0.00000000000000 0.00000000000000 13.36177713743692

PRIMCOORD
 96 1
Ni 0.16661948864611437 2.6446367000510107 3.0059321026432104 0.8048010551187559 1.410155724479294 -0.2775220470157221
Ni 3.1215740196270483 5.852173006748385 6.349209579851826 1.4517811133295644 -0.4353484432403083 -1.5882452418282906
Ni 2.0407096382119914 8.141001064458818 1.3555118801400974 1.4496044173932197 1.7812674692277195 0.7956620689319652
Ni 5.095502208187442 2.055499241552468 8.719187825916062 0.7671346509162337 1.3459138837810887 1.036401399901699
Ni 7.2500370158124365 7.73219634348153 6.976691367356749 0.36616957025180163 0.6127226796898351 1.3379216096042312
Ni 2.4348343084661384 8.84828189137039 6.572244101734036 0.6269025707346428 0.48774058368877926 -0.06190625058649338
Ni 1.0754689150112164 4.231862408181831 9.380208234280188 1.774976751123001 0.720889503905765 0.8748132226418353
Ni 2.8136763886017917 3.421848614362615 3.040111606313834 -0.5071848084563201 0.1429332811628377 1.3073817891441615
Ni 6.579054622778478 4.018253063144503 8.676402964153628 0.9069394137524187 -0.9048866449884481 -0.14932890027653636
Ni 8.494865147841667 5.907688795583841 13.11617432951736 0.04768470767047272 1.0443558788620853 0.5658545543833867
Ni 4.534802783272594 7.3678608557582335 2.7914089061895964 0.1862190884346664 0.568226397049673 1.3981790117333919
Ni 5.705911133218894 9.269064365176508 1.137884692861939 -2.2472948296091233 -1.7176943724617642 -1.2895946403640692
Ni 3.65171739368969 1.3870091705629237 1.9471179242826306 -0.05057874138881612 -0.38711660481711396 0.0767757114991581
Ni 0.6499902856752594 8.757006302359226 12.818875001280967 -1.2404801422256055 -1.4085297588400967 1.3174918809949696
Ni 6.008057251833965 6.667007115730424 1.0477009782702327 0.7530280363115224 -0.35387661181706154 -1.5131492320244004
Ni 4.733357772810883 7.813502644315041 7.095865443311223 -0.08406658873361651 -0.22340752455950555 -0.1903189695356529
Ni 5.91569526603421 9.050415599741681 4.817081534733626 -0.6278687913026542 -0.5318918242846968 1.3268509536123665
Ni 7.086931427367402 3.942579592719064 13.017070293059 -0.2581079041551684 -0.24908693160348072 -0.48479949878258444
Ni 2.7415725076245794 5.69034553217228 10.483276192413996 -0.20294051495440535 -0.7587194302693449 0.8984210918687623
Ni 8.967776408730574 3.3681313143284393 7.618204106327091 -0.47011155775310653 -0.016715770092784115 -1.3466363637694097
Ni 8.158876399854282 5.411360662739178 6.5786711886177995 0.9627279814769484 -0.6593038698834839 -1.1451150977600342
Ni 5.110392234760479 2.5412738055936797 4.471933274998402 0.7508503119339133 0.14430676447159665 -0.24120624330382331
Ni 0.8416270274287244 7.093796724720511 6.2395757109904375 -0.29750646055744895 -1.1911188181836583 0.0846232325680349
Ni 1.6837780815437102 1.8184638951746066 5.157111861362262 -0.951802078593064 1.0478836895096855 1.2747290361061465
P 7.646946148423895 8.62260349965645 0.8772991855105631 2.6799598124799977 -0.8969841023119198 -0.5912369990122334
P 1.1366905693329672 4.904862395251743 3.191727864015665 -1.6795330309006946 -0.14678967879445043 -1.972204017742713
P 8.262421882007175 8.33029885783214 9.610404758520797 -0.9112989762726951 -0.7326078207839576 0.40767771679791726
P 3.9029763215517876 7.389387945064927 9.857570983186884 0.29717581669090753 0.24449262736457894 -2.12944728777032
P 1.3154713114419514 5.223377500773898 7.306701281252973 -1.8317711344042258 0.6954448385804152 1.5792762055604608
P 5.91853450470019 0.6801702058746097 11.900119279493179 -1.2034940519195596 -0.5386183443752529 -0.41335882634309457
P 3.5919838290867645 3.4584848354770177 9.619638218285338 -0.34360145514329854 0.38970442014894824 0.3717151826603792
P 8.3076671129673 8.115831350625673 4.9364820194305965 -1.2795097453242414 -0.8002512309645444 -1.7829813665950323
Ni 7.000850458294961 4.092712325394458 4.33512214059117 1.0380579616685155 -0.9555939415353285 0.9613958929290861
Ni 2.3537105953281903 6.908077650180193 8.209155573581036 -0.11211192490660693 1.4456978832499618 1.7440705484624481
Ni 2.1025247025443172 1.7416218634975744 9.736487039936838 -1.320487987508816 2.3272988182375918 -0.2950292026615499
Ni 6.76986789402496 2.2120225435725125 10.482848937206382 -1.229867913927398 -0.3028376429623752 1.0790693710838708
Ni 7.07529146177536 7.879973694884183 2.9690402587550215 -0.8988648642744004 -0.47895332441445254 0.1972609480711248
Ni 8.950321025034901 6.377724300267657 8.704743313320197 0.10865841914036771 0.49517312870742464 -0.2580066026906137
Ni 5.790129707796607 3.322767401366199 2.1824059064139694 -0.5906001367591828 0.5600580023062677 0.18696290857922637
Ni 5.41864591179208 2.2484214006826857 13.43914183599578 -1.0598370052168198 0.2699864007603092 -0.8853028093192495
Ni 4.310968527283825 1.6777618169749609 6.616658558679356 -0.6867054018248884 -1.733271915185047 -0.7989078295627725
Ni 8.027376741510933 1.2277835706485698 8.56356285535818 0.01739994064400229 -0.22370011609925988 0.040988783707535864
Ni 0.6586275966137933 6.565844403004609 1.764636129584616 -1.1451876028691825 -1.408842147874193 0.711747946615813
Ni 9.049749154652883 0.10750763514657594 6.446670327050134 0.47099241769616296 2.8967441752960306 0.9436799637065619
Ni 0.3548117135228128 3.1751726376591094 11.730665116873475 -0.12823865526514044 -0.5398334477292768 0.731952703698462
Ni 4.002787885330449 1.3561974969369304 10.912416617984437 1.6626809923403623 -0.18565421707013188 0.7421137033918639
Ni 1.4316701208972518 4.321275602698269 0.8758686109158391 -0.40751470885749175 -0.6518276161110967 -0.4493547848217293
Ni 4.657446938381214 5.101381531984522 4.485428331577348 -0.7755514142250192 -0.6160296325758811 -0.7475096775964545
Ni 4.0389219902820575 5.288342202854658 12.824954258604684 1.3498170754902366 -0.4889412888650998 0.03519068896852004
Ni 7.423413162132802 1.4822560419525488 1.9518213833202933 0.8049162405403816 0.7704207778666732 -1.280146607577292
Ni 6.404062575352395 6.507626316274842 5.167266476050911 -0.6659673979465885 0.056397404953122225 -0.40647906850412574
Ni 0.3230451062490335 6.916202802632678 11.088644784109471 1.81985844212704 2.991771633916525 -0.7818963826064405
Ni 1.4049666704213912 8.44138521181172 4.400527791956712 0.3486341324711996 0.10845375932872936 0.34865187308301243
Ni 6.515011988560303 6.156345848784189 9.562943825875035 -0.8903635116716085 2.230143771751133 -0.13359220626756993
Ni 2.565804462492359 3.412554900658537 7.297014091064961 0.03410928297888319 0.40118953797041224 1.9531881387618428
Ni 2.4653812299335667 6.353522301220987 3.849528338368565 0.09288470124587873 -0.16424104150167843 -0.18707963666274877
P 3.9425704633342855 7.312399843231446 0.5868505476116357 0.5105493540531787 0.7921401718216358 0.521832640276482
P 6.200148636949378 5.462914298580952 2.9332978044103917 -1.818062526568882 1.7732417707097654 1.0594788505464527
P 1.6288191851797167 1.0467843880385141 3.1340447592338947 1.6596038960769355 -0.3724260926844747 -1.5583127159349162
P 1.0786733290683197 5.160895991352772 11.990512056996305 1.5245222497480324 -0.11896597171396286 0.23620801875828354
P 6.133093305754438 0.47138756656944775 7.680482943406142 -0.7234091850038251 -0.6865493358629983 -1.5354849194071232
P 3.385020676167872 3.3605995718865294 5.38749553799082 0.6602960585934241 0.41918108945182647 -1.5588518762678378
P 1.8281958193480312 1.2750829131837607 12.186435044903074 1.0662783899667896 0.6366802189466971 -1.7924558817443712
P 5.608464080097752 1.000379725211574 3.023169294042688 -0.949524852523113 0.37058466860036177 1.0927576672042407
Ni 3.5230752327818773 9.353693762069234 13.10552490217374 -0.046602273239571355 0.7901804769921037 0.2814056983408444
Ni 1.3378565629177839 4.384971320294877 5.301445608826625 -0.6435617765578787 -0.5081487150314862 -0.638459679444623
Ni 4.626890887529007 7.749934738105325 11.773142318368887 2.020766757142765 -0.22110073080319986 0.6082440750931912
Ni 5.78509941678389 8.790054675255847 9.683667158426346 0.2974444969712619 -0.12149156634929398 0.2103342363153152
Ni 2.208872905824078 8.633184456614236 10.539622755264254 1.1065596060843395 -0.8984576015336526 2.225985012387753
Ni 7.311203893825518 7.929016749911985 11.658297396676174 -0.23076139382141547 0.44013789420915167 0.4974603820797046
Ni 3.514840527712056 0.6919808909620017 4.369889576641502 0.9596935655259988 -1.0224372244121231 -0.4563715824591947
Ni 1.3150148422030479 1.6213696072008101 0.8597798961214429 0.19349633882237 0.20872266885382118 1.0086095745004113
Ni 8.16627120152452 5.199778041122581 10.782767485935603 -1.052448683172549 -2.4536677672838447 0.26481539808233107
Ni 9.21109277183575 0.8641428291068834 10.959917719923222 -0.9757521616507583 -0.0056682540293708835 -1.7453527576089813
Ni 4.279408244106031 5.396753647094263 8.6331242026747 0.36264021694230447 0.40018937884067207 -0.0845970073157898
Ni 7.636292156387884 1.5455318078493658 4.234400377150135 -0.9471902908526655 -1.6429400622680095 -0.1816875191129
Ni 4.90966445164501 3.9534618193745255 6.867485666641451 1.0268656924971218 0.38243334040883165 -0.5438952765034762
Ni 6.823320441900573 2.051290595169777 6.374048809956005 0.05934260362437521 0.847031938763509 0.8962163709079598
Ni 0.9856083806406537 8.920522713119274 8.755678889812494 -0.5355775006664002 0.20060801016648677 -2.1309950918734137
Ni 7.790058384204952 4.991609809412983 1.8159587919915035 2.242845792698834 -1.3526362901065867 -0.3299162443467221
Ni 3.541963929887708 0.3628044898960149 8.61519317803209 0.17696106017150814 -1.7768094334563658 -0.2979515185146675
Ni 2.4059945819522084 7.021172468810949 12.524368351848187 -1.4607432076188585 -0.3044713219110563 -0.1337197329843697
Ni 7.753860373559896 1.3597305688460444 12.791736992089671 0.35091932896095046 -0.28399814165836895 0.7305637937707354
Ni 9.089489366591831 8.883000941681397 2.622288879052768 0.24933941393391895 0.3455680919513661 -1.047893973922331
Ni 8.450852383826582 6.135539980874962 3.9959463243777615 1.3890089151983498 -0.5081654272020345 -0.20262632614809617
Ni 3.3320519856854984 5.601817887979316 1.71865872196529 -0.4256409861445573 -0.7884393259312809 0.6723244505128679
Ni 2.887597017149841 3.3445866309857912 11.829555525728027 -0.4596939619642083 0.2870886076582346 0.27174503532262884
Ni 5.208368792198747 4.305098332871525 10.846169237342357 0.49909123281490825 -0.09330559083338123 0.4223224632942856
P 6.23660227036822 5.73419396726136 7.321772982583092 -1.5140437188142117 0.5695093775271546 0.4798290421511865
P 8.705361372669673 2.936220120477852 0.7896954350571397 -0.9649815533978154 0.8815135174801463 -0.02818006197864179
P 6.443793657906563 5.929946235672781 12.149971369160976 -0.9633363044849086 -0.650014474161758 -0.5301781840276998
P 8.399800864147602 3.2588251903805827 9.788851365146902 -0.3251219082818724 -0.7612051728056761 -0.3326778662522593
P 8.782669002970387 2.797325660464265 5.380560857313397 -0.5652742563998845 1.0100828166118283 0.6991734523849119
P 3.7197860865949943 7.620900013652055 4.928544932304541 0.9276820456164089 1.335955744127112 1.6934211017366965
P 3.686619031696259 3.4062191076225554 1.0538916140882433 0.5621326254471094 0.8993284341743801 -1.5727772280996783
P 1.3161286271459725 1.7866114716839134 7.683970368391366 -0.7198284096311023 -3.505978125106317 -0.10003468202709868
