# total energy = -340864.15994975594 ev
CRYSTAL
PRIMVEC
9.29323288730681 0.00000000000000 0.00000000000000
0.00000000000000 9.29323288730681 0.00000000000000
0.00000000000000 0.00000000000000 13.60158570495138
PRIMCOORD
 96 1
Ni 2.6044563883604877 0.7003686959030874 8.18083660284205 -0.3713858243454185 0.04808220021920751 -0.7509572698254228
Ni 7.3950157014795606 0.7361141867709453 3.758689849265296 -0.01058343194280113 0.8465030628432325 2.5632111601323277
Ni 6.363606252652291 2.17795275954147 13.462930800355746 0.6152788704527855 0.2878249716036269 -0.6545249604376018
Ni 5.150467635272359 8.314655438714764 4.030340338959128 -0.03769597188887702 0.7359931923164228 1.5121855825595505
Ni 0.013274453815424353 2.555471757962069 6.071557116833525 -0.05165089140707234 -0.5941783410287445 0.4682012281042711
Ni 2.8101620976887 0.946292729074069 5.446020319878871 0.8991636264617417 1.2326457337828514 -0.7375139998363234
Ni 0.2995859476672045 9.16219827543186 2.2175075465581258 -0.42473518650083625 -0.780665852633449 -0.6920646092542727
Ni 7.670643694836934 1.0350988622721893 9.438208220659726 0.3951883260816549 0.7639436547827617 -1.1365170716783783
Ni 4.597650385437346 5.951163285148547 5.5348524741289955 1.1313195866378387 1.1332162894399194 -1.7915544529760243
Ni 4.479152373255552 1.3700641474326174 12.34745104979517 0.24061103292198563 -0.3017348968164997 -0.8696545612590314
Ni 5.051225201573874 3.9021541315220962 12.30954395296437 -1.393106225196175 0.4777875862411255 0.11240014557098707
Ni 0.4143536561795011 9.043254188072845 9.06583767324287 0.46940141905995925 0.40090054597508373 -1.9992329968360472
Ni 8.161568013832738 4.289207986855763 4.650287256349251 -0.5886764373739087 0.11625525765101914 0.6787743199032698
Ni 6.485068806116025 7.955128139108686 6.394336185746287 0.5523902013483647 2.9015904476447383 -1.4473091936011395
Ni 2.0932170623354778 5.3268253152326706 8.783604979292791 0.8552810661461786 -0.19685574221290614 1.089471283143485
Ni 6.973558298102839 8.128010149979827 2.536219896771903 0.5844832252281676 -1.7532373025633805 -1.1573435215054262
Ni 5.117383726295245 7.568315907829346 11.300428969765218 -0.8074220376813708 3.5605137942603515 0.6118986411266429
Ni 6.208883218787128 8.531726771829215 13.259492639845067 0.6658840942041628 0.2858015134156949 1.342103508896063
Ni 5.220863874177315 0.5738515530874857 8.036810079997295 0.07321447651046101 -0.06240658726167961 -0.5962596490378054
Ni 7.142341993283277 5.103889952184355 9.332279305919378 -0.9157955785914681 1.1567128298999627 -0.6262345981333408
Ni 2.448190677840773 3.18516263000458 7.910655373263185 0.2778272369609667 -0.3496412335794753 -1.6842880290871767
Ni 8.330203017287436 5.9275027142901955 7.099647022883653 -0.6041089698788951 1.2549102016080065 -1.0349348426585014
Ni 3.8413578021602186 8.437809360558788 13.530721216767112 1.496542476705655 2.090909022485805 1.9358699591983695
Ni 4.2001509363704566 2.621964839066355 0.9355590451222241 0.42296960995998123 0.7397254056653454 0.8841445273450903
P 1.271314255075645 5.499818844898117 1.6640314065134276 0.8835174352840527 1.565616191574865 1.2828966595186035
P 8.504311734895932 8.300799228522383 7.256269593545143 0.08177496448596239 -0.4403721217071448 0.3500513245337003
P 2.1230111668805987 7.521134164605523 10.079346496937635 -1.1552933238446168 -2.871261971864526 -2.021572283763196
P 8.819054945355742 2.3324062896537305 2.6116679370588702 -0.44657567941469545 0.4031536036753185 -1.3825135372819934
P 8.154588795955824 6.25571181916232 10.779011695113315 2.272279267468603 1.1678948146587111 0.19624073433672656
P 3.0839221512414654 3.46671041269297 3.1052287462166994 1.2010548463504478 0.13754502026773086 -0.06546928534740337
P 7.602245500996607 3.167802871024454 8.73956249012865 -1.9407110893407544 -1.4867943961799555 -0.0855899673566784
P 0.5709539230821306 4.801376636166647 5.9547337452128755 -0.828858867398908 -1.0322431547589515 0.9247903258909105
Ni 8.9940279336201 3.8909557859273143 10.51520934056869 -0.843533181581631 -0.08731440624695284 -0.562183790400019
Ni 0.6061464665948935 6.829847745175282 5.176559315846558 0.3095266249467766 -0.12426090156431502 1.6808034129726859
Ni 9.106671209100888 6.600490758221576 3.0846488820510194 0.17170675375110428 0.17884824989189196 -1.887842266366181
Ni 2.3234383199450463 7.406046768882885 7.683005553185629 -1.0848165579802929 1.1545410190596244 0.0641834766564443
Ni 5.826364461088527 6.30011488576138 7.473839973264108 -1.0869297476685538 -1.2949865008036021 2.8529030097413637
Ni 0.20015579066497244 1.390211876270366 0.11077440635289607 -1.2442936024344247 0.5487685454353776 0.26288192850504405
Ni 7.3429828907034755 0.9723788337085525 6.875669888431871 0.8783433472822807 0.30997065446273064 -0.194108261374756
Ni 4.852768213875479 4.032556774995937 9.389936381221574 1.780772788979488 -1.2094361284356072 -0.1557252907211834
Ni 7.631602823597367 8.590394950866441 11.362846038937661 -0.9902374997511267 -0.7580601994187912 -0.5510506566013349
Ni 4.99763112767752 1.894945939294258 3.4077002426865426 -0.5517988476212691 -0.28818466893589084 -1.9002884625493337
Ni 6.699491567865735 4.305833580440049 6.759076988986119 0.03459650702794687 -0.9276324233253959 0.8023831897058827
Ni 6.532640865119915 5.6544582396675525 1.6173505685406901 -0.18445402611444364 -1.0734898201135643 0.132558622796733
Ni 0.19843003732310438 0.9183024410268297 10.837730057607978 0.3573514577395394 2.3594455781734656 2.919040781910702
Ni 5.579814993346152 4.207204500110239 3.7374984903775106 0.9372717461873729 0.35002895593619715 -0.32651184665086347
Ni 6.367611636014409 5.908488759861213 11.774362471125388 0.7279433254287527 -1.702509951411842 1.0884240728258932
Ni 2.7887690756478807 5.665758810823781 3.8336202564820314 -0.4046638696722579 -0.22744415652272443 0.09038250364931531
Ni 1.2741672775632784 5.34313493889976 11.376611175448026 0.6865411083328821 1.2708160742049857 -1.2650148941421762
Ni 0.12684798190537294 4.003134399765166 8.107714658739626 0.6382534769710879 1.6557097032288517 -0.5513733300480763
Ni 4.248057551757261 6.076138680632884 9.965432836525055 -0.8561089613641126 -1.5672732675623136 -0.06040164101650889
Ni 2.5175460746655505 0.976365630604952 1.4686588428008485 -0.18973044402203454 -1.5138981943752832 1.0058348399687518
Ni 8.565712124393627 4.457006599353174 2.4160360921495325 -0.45589464282277614 -0.39125788067899714 -1.8407121456475979
Ni 3.9989524449787335 1.7196476878798437 9.768033418725986 1.2955773403100657 -0.2681873998783575 1.094598062847089
Ni 2.615673320420987 7.21202265325811 12.368248375609745 -0.903526788526444 -3.639464916144274 -1.4232765781319683
Ni 0.11918942870648523 5.837990295394811 13.521091568878886 0.14980352592010976 0.403892281613556 -0.6930899651949934
P 0.6990202478152843 3.619927942835018 12.604779738330398 0.8162046689700072 1.2010103662657576 0.8321439659080829
P 3.3440676186561773 4.0065821891557585 10.76930026677593 -0.240050018212193 0.7149435707349752 1.361366470890733
P 8.327182716608345 2.5312535931321922 12.027596561263055 -3.2120676094302425 -2.582081514674269 0.37798250372632963
P 6.694166545437677 2.845318397593314 5.237589834676476 -0.32832447437957 -1.637065862875419 -0.5088118025367817
P 2.5900983435937346 0.09567383228072929 3.4899490707795358 0.08629085007844493 -0.8452511927140023 -0.27259298514522085
P 6.259847307784458 3.288856522242402 1.8382404910367978 0.3063245730697111 -0.13264706874548124 -1.2075275985589848
P 5.951711585887213 0.2193769841867046 10.417549544426048 -2.440164847701404 1.062458502000067 0.29976826000843215
P 4.693054713965172 6.222767308678086 13.302677363616347 -0.736735469799086 -0.0621798159628542 -0.25890186081137345
Ni 1.0974192818229005 3.6731874603484576 4.1861599743016225 1.387599436445333 0.07599409613812719 -0.9369752979928767
Ni 3.9106667328207023 5.524120648823722 1.7431660722754572 -0.4256227313121122 -2.9440211060051236 -2.1192675190238406
Ni 4.320256677836813 4.508732733444921 7.3143615921451275 0.40687964637665414 -0.4838893282634893 0.8748633591534802
Ni 1.0146444567501023 0.09709569690811652 6.400457638230339 -2.233857730267611 -0.7454270840358129 0.5218799485746496
Ni 2.3154089667550948 2.1683993161626853 13.153521905556854 0.5345130639576278 -0.20992208847856106 -2.2054565534170987
Ni 0.48316261091218454 8.023442693853283 11.455881522409792 0.5641368003613316 -2.1314910576732258 0.1237040006195805
Ni 2.7494494074225506 7.8119194207555 5.36227528129562 -0.02350836753458532 0.5767606597729293 -1.9090227570985383
Ni 7.145399466893802 6.4055559057766445 4.716091708898703 -0.5146610622287072 0.3940770952953471 -0.8687844999492522
Ni 3.963043393212561 3.575562049167393 5.291696895026632 -1.2721021400062607 -1.1973984805447828 -0.9239696297618281
Ni 0.6013613809959282 1.2790183451155406 3.9511248220712276 1.2835846867245637 -0.5328806705605275 2.8105996209874626
Ni 5.332633585769383 1.1308191607172122 5.512749449097768 0.5605197724340346 -0.624621230899634 0.6257628007032449
Ni 7.667669860322136 4.245353220995368 13.366917765075673 -0.27478485059021707 -0.23137203082222088 0.08285405648275408
Ni 6.762109370867925 8.175991111229502 8.849395491992956 0.6611411802025388 -1.2770700255344973 0.10151923699242515
Ni 3.0226797467023685 9.01542095566092 11.078233348052457 0.2855235771639599 3.548653038267024 0.9914212356465829
Ni 2.479573925204739 5.521871686471908 6.346758550802682 -0.6416049099418241 -0.4521788845340858 -0.3618112932831059
Ni 1.8867493079128492 2.6879467923634093 10.020029650246867 -1.6624375088709886 -0.29988498809195446 1.4349535002492642
Ni 7.517491217324897 1.0127114643154844 1.4824230499879285 -0.7804439664306301 0.057678585658390985 -0.45150911216057077
Ni 0.23846528447855675 6.817980286814671 8.811787637260206 -0.4480116405302736 -0.9812311824874586 1.545940053302176
Ni 3.962411453378167 8.096589729684426 9.12897589728515 1.8391057203924264 1.381446786580376 -0.7689133400832112
Ni 1.5228820685617395 7.696088566404164 0.8564085808643348 0.2447481950188108 -0.29211151479412273 0.14001867861920403
Ni 1.3793759667570749 3.404352820210824 1.6381339545059765 0.10209824942434674 -1.8363366422877214 0.08664694786628303
Ni 2.4651694142736913 4.540404071027507 13.305941146996336 1.820468307796897 1.4733796654359463 0.5291505140941338
Ni 3.864451485814188 7.641472236893349 2.2117810564705698 -2.171884116778292 2.018288985026234 0.3908886702650365
Ni 6.349963786815661 2.5798757874491205 10.75221651681171 0.35659169675537944 -0.14820918484979637 0.24664386937962682
P 4.283269611059027 7.914200741598794 6.75558087478466 1.1698838200642818 0.1908704711637487 1.1851430602161976
P 4.011405377009445 2.0553657249018293 6.932646699088807 0.09010919538327063 0.468940934483773 1.0973900237699294
P 8.864898463047906 8.415542774629246 4.2053793091767835 -0.834585228359724 1.1526995949755114 -0.31754306749334993
P 5.253260083922883 6.285710374830332 3.2286224334684785 0.37196329411544327 1.161784330885599 1.896641609825366
P 0.5527791475802925 1.9431592313654016 8.226905946092682 0.7385941202743797 -2.108178093978898 -0.3884831461473374
P 7.716886821542024 7.054270025480997 0.5384313253696837 -0.06985224490644744 1.1389395650769418 0.003272500103684686
P 5.049422314399279 0.10339557946305643 1.873604959357447 0.8633623004924162 0.7651343326567531 -0.4406665130191121
P 1.5446932860812026 0.029569208309939234 12.81707342043217 1.1077734238867825 -0.2243655175974007 0.5785627459786745
