# total energy = -340862.1983711628 ev
CRYSTAL
PRIMVEC
9.34050312799668 0.00000000000000 0.00000000000000

0.00000000000000 9.34050312799668 0.00000000000000

0.00000000000000 0.00000000000000 13.67077048034864

PRIMCOORD
 96 1
Ni 4.075896700555594 1.4291623731848115 3.800105266859071 0.651612157666181 1.2379607182378614 0.23327181894809504
Ni 6.26562822784002 7.850580853904435 3.4506667675782907 0.36755822306921215 -0.4187087778010982 -1.8558027214321329
Ni 4.5710087536996165 2.1720312737196528 13.289492352080192 0.03264092596347282 1.9568725295919651 -1.9495024623801394
Ni 0.8530943107022148 3.1879884663248195 11.301393333332651 -1.577227036340916 1.2030811327518571 0.8403337008077271
Ni 0.2308327896420005 8.621321815989294 9.397342030483022 -0.23547808257079444 1.1582935441235211 -1.136796807702326
Ni 3.453744463382825 6.281404337745508 11.998261189655805 2.0285877958490808 -4.230010288406121 1.9593721560853674
Ni 5.1643642195055275 1.98808874419402 6.193761462165761 1.426561676641143 -0.03866373511878503 -0.07453036710840713
Ni 4.904558122986183 5.377972187195656 0.7643399152416188 -0.3887770232386724 -0.048701578970761286 -0.6330683332257225
Ni 1.8048187308988166 6.892973784792217 -0.1025671315933591 0.7633276184653176 0.7366061433100733 -0.5521935119565264
Ni 0.9111427359417896 7.884897862662734 7.12799485606928 -0.6679466331601465 1.0844213794244033 -1.2305351151977517
Ni 3.876663767290894 6.385457543398053 3.5232443455461 0.98063802898815 -1.649559881577372 0.3560921314111416
Ni 3.1187379755969955 9.074224135170672 5.867890920560251 0.6050355954582225 0.09950580610682218 0.31099832439629665
Ni 3.7726572641543523 1.7583217059671858 8.13417721207522 -0.3890148502810913 0.0848903701864925 0.03747022903131612
Ni 6.353204785847044 -0.022463910196981 5.1192934894126 -0.24411801763397958 1.6836218562580876 1.2748439644174563
Ni 5.8812291591304335 6.312041188242847 12.261573711076583 -0.3327706830763817 -0.4980512215861681 -0.1787045252251761
Ni 3.948977943068452 8.631643072025744 2.9711094544139085 -0.2863872107158358 0.250963065580271 -0.6039660165431275
Ni 0.6478862575402132 9.207307624770083 1.1725273775020042 1.6690820107706996 -0.07461392796114892 -0.8694470732339157
Ni 2.829471931983563 0.4653569461488022 9.880809278287096 1.8455393918329122 1.2400983334061546 0.9047292934749772
Ni 5.051474897825398 1.8032028238451459 10.691048426255517 0.16364737378173752 -0.512913226299665 -0.0615457819232811
Ni 5.763109155658076 7.601535017071959 10.02632124144497 0.7563560722434909 -0.5443115381052884 2.100317203173583
Ni 1.255821314791642 2.2926732130561214 9.179361773244784 -0.9052031477876025 0.10388182368733076 -0.688258348134305
Ni 3.115963846146474 3.1388480789874733 10.706346302397147 -0.036971435018026653 -0.27331957889860026 -0.6593488641888063
Ni 2.5465200685336065 5.245570554329874 1.914058717978547 -0.8723218236785493 -1.0771137900193966 -0.27275753574754313
Ni 4.654699662375271 5.128029662055941 9.997639358267476 -0.49884903489711496 -1.8243941252138647 1.2382890481115576
P 0.42807806382565416 6.226668988991118 5.688926879240436 -0.7274956963683729 0.5982535395393825 1.228734571653903
P 3.483447263560122 7.053396927259222 1.4169618079044388 0.6005423355735593 1.6380971323534113 -1.0680136274903413
P 7.172404278535619 2.5895891287906876 0.09591202306306848 -0.27992191470646627 -0.4315640364972116 2.5261610493575657
P 3.116458892816096 1.9987462583456854 5.835067458263698 0.21869572090613304 0.8399603766287083 -0.855961637152971
P 0.6731476484457163 8.027163066908146 3.0414051474498582 -0.24847500905109465 0.5696392182367996 -1.6900079622900892
P 8.891701362131501 -0.18472526369382697 12.958591949501262 0.14224628239814213 2.741577071071162 0.9393630814987628
P 2.0887700281912167 1.4286486455087892 2.2927245858237235 0.34774504499802694 -1.3995195849216866 -2.333216212163291
P 1.6178311973298507 0.4642146026073923 8.221765912736405 0.010801461490878171 -1.5035353630837203 -2.3936258235996006
Ni 3.2942553712358604 0.38693221317753734 0.5038295447809622 -0.2923603975801352 -1.1177588172342687 0.7690681204935207
Ni 8.212459969397838 2.5625110100127046 2.2879263693296736 -1.417839466276797 1.3322651826494023 -0.7979449514288709
Ni 1.6777692063668683 4.0388055623467745 6.15456684263621 1.0870007101158055 0.5180310071422046 1.4456289776852393
Ni 6.645553195516611 5.555946135176228 3.604804685441742 -2.02508389646088 -1.5916861491890395 -0.13292603343848075
Ni 1.9943749028478943 7.480370009556268 4.506009125978298 0.25251241234526195 1.1430155349185283 1.000884952162644
Ni 6.658125512824361 3.1600043187363975 11.898245883536797 -1.6008431330979591 1.9784659394920252 -0.5526707087032611
Ni 2.0794482059972097 3.1214373810219134 3.582356654100202 -1.0934192120476396 -0.11134856437802114 0.8206886728832897
Ni 4.942732759566249 8.977045539873629 7.375982413889149 -0.1227290383008209 0.2512957663293414 0.6318478305550602
Ni 3.7162779868366904 4.003573184274836 4.848694441445183 1.5146818666188429 -0.09879463897241049 0.041180845113683924
Ni 7.326494559832748 4.7656741808993175 0.9259978722317184 -0.1279054402954378 -0.6643658577874235 1.1780550430211647
Ni 0.15316370337964866 6.2024397236892606 1.255873621609564 -0.03269569046080821 -0.9609577769504032 0.15167940278658396
Ni 2.78361006126956 4.119619596036705 13.365311084658543 -0.7533319407051865 0.033012193259962505 -0.3429316827697836
Ni 3.920461386797607 8.170203532919194 11.993695551691445 2.1588475953093083 5.406127233864309 1.572964661520136
Ni 8.256276269910952 5.775130383277 7.2043179758204525 -0.4415185766067622 0.07442469476847827 -0.4763421120438506
Ni 4.447237745791011 4.023459115588505 7.419223339405117 -0.8313916611230908 0.07212895675576611 0.7724326660903794
Ni 6.581888325702631 7.531621350616906 6.609994833882978 0.3183946168603678 -1.5943500691744477 -2.704856575721677
Ni 1.0665360174353755 3.185382465931906 1.3665931443962391 0.29837189388153773 -0.20968606120835498 -1.436254992669507
Ni 5.553143984216106 5.389124748016943 5.8541659851575725 3.4182680260828415 -1.3263716999831028 -0.6713669716956051
Ni 6.131153003263748 3.18731595009439 4.103254100379269 0.029287436110207628 -0.7107948386739242 -0.015643877184844023
Ni 1.5484219180476197 5.263896621609074 4.231253554086699 1.6374258173179992 0.7538772716856952 -0.27948225606588645
Ni 0.24293808178972912 4.6458542058444845 8.88501636399097 -0.39827802075057217 -0.4163595608426313 1.5096335055616583
Ni 8.679718641998244 8.280337406155203 4.767380690834032 0.0025513056669439933 0.4465764507456437 1.1883458834242113
Ni 6.013565408473813 5.976455589258593 8.322710598923853 -1.0710413585730716 0.6209157570235886 -2.345985338903502
Ni 0.8079722078416841 0.904373673272454 11.25278068442613 -0.5746837226392425 -1.2012471648669119 0.24032255514728937
P 3.3601152593019363 0.9995552689852506 11.934145173537244 -1.1971773656729126 -0.22038699256562688 0.8405668998644555
P 4.883794184371676 7.430594468001295 5.161358445575637 0.5267560457200283 1.7153893784776715 0.055410358449504565
P 6.979252012854384 3.4143088588707027 6.112953032777753 0.05191700058426543 0.36665473741833626 1.06314832897824
P 8.474825363794096 2.7266236512438717 9.75933042986387 0.04788808193053042 0.8077040876981638 -0.34594244457164935
P 0.3686463100620988 4.400236333686559 2.7884269587700103 -2.2231688830951972 0.804261637675518 -0.07633425308636531
P 8.179805570209213 -0.027411574742237065 6.5575815342242105 -0.2617228751999363 0.2505372908967621 0.576336170641001
P 5.566510244295889 0.23919534215732566 9.364067421881888 0.297646585679739 1.3340950367692894 -0.352086095575542
P 5.0159996666702495 4.448293222652658 2.717667042725001 -0.933472684156257 -0.10742943182927304 0.12227780969601522
Ni 1.1318728373222289 1.7515405006436897 6.387051967294362 -0.42771303818223755 -1.982829358667043 0.9603196291457721
Ni 5.516501190160906 1.189924064712764 1.3093293214254986 0.976045524521461 -0.5584423210797157 1.0902004480000256
Ni 8.586528441567774 6.40369954614845 3.505253602331795 2.703058346170674 -0.5422366578541307 0.12515667390570703
Ni 6.168104033924561 8.749865821033307 12.036813182565169 0.7958024511645715 0.8897040237107388 -0.06918195831230022
Ni 3.5907789858360095 3.0105002245106687 1.7811508298393028 1.1425211117806129 -0.31872166118248335 -0.6444179539105869
Ni 7.770598124999342 7.378567865175023 13.224078006016775 -0.6957999079269888 -0.7660481027202742 1.4501284082174897
Ni 7.670822869812585 1.497777709695008 8.096008179797073 -0.5790417424976221 0.09581704440132531 0.08630370559425136
Ni 9.040037893457178 3.329543792327001 7.022825460284287 -2.274121462883664 -0.018916377288528713 0.8966655426302365
Ni 6.302121573844014 3.5869867415366437 9.087193423864438 0.8173336403681278 -0.9087209311328737 -0.06561429556569989
Ni 1.557220672062404 1.8463092461150286 13.314619239739612 0.5682001717974279 -0.6691205988635897 -0.9123934948884544
Ni 7.445492570605945 1.3535790212871108 10.98507906055148 0.9287346552506391 -2.4072747818416023 -0.638659711270571
Ni 3.5750682594529235 6.141651728861007 6.14792294270976 -3.3448146940886976 0.45177393578618324 0.9614830533262537
Ni 7.21661288018315 8.400428255802847 8.418843057862452 1.7183368911417696 1.3016402586746938 1.5799459779339757
Ni 2.015615207125622 6.193220647030459 8.25740553674788 1.3868185924152503 -0.6571670260461392 0.06016998462167701
Ni 8.734388607230231 4.207849989267757 4.832384988806951 -0.43987692723828115 1.1156296867064077 -0.5039462469143643
Ni 7.931366866084764 5.065093351491592 12.452390850957716 1.1406195238825259 0.37682627863469936 -1.2422747722321832
Ni 7.62859445484354 -0.048849897687813275 1.2769373903768038 -0.9554180780790965 -0.06932285476553868 -0.3428221537751128
Ni 8.416344473256343 1.9177640955981488 4.925510739765337 -0.7718456832386579 -0.8813595084007854 1.0876056906896558
Ni 2.3164728152107603 7.789914285617786 10.56788828725622 -1.2315887532732468 -1.5396123113119355 -1.1003131109539952
Ni 9.063333108438997 0.7232388990088638 3.136402735249607 -0.3433587430048732 -1.2082223106331644 -0.49312601637040876
Ni 1.6862130212600368 0.8492049251695648 4.258034644862908 0.12326896996469092 -1.3438806554011435 0.9827532755589399
Ni 5.418995677251848 8.029591597740252 0.5907317184569173 -0.3573280607007717 -0.6131343133059569 0.5255509696683336
Ni 1.998690215326483 5.360514786714093 10.915289622788992 -2.159265913793649 -2.0642001457360517 -1.9572129436505197
Ni -0.13264355189867255 7.850422065350028 11.469926834728573 0.16222015441690774 -1.5591393256012696 -0.5822916168934875
P 6.283300459895192 1.0440721072383947 3.285878807965734 0.9756524028481005 0.14743271169508804 -0.1946790462765615
P 0.7727388957194254 4.928656621243235 12.671560154253367 -0.19830275907207784 0.29914502460213643 1.316516661565894
P 7.466723534380472 6.801707728021031 1.6820238055746541 -1.877309228045341 1.4375989082919112 0.09141968666457805
P 4.493305107575423 4.13395726844933 12.045261667709935 1.348815887919232 0.9233669631808228 0.11612875937548388
P 0.5924569093980325 6.580384504687366 9.852373984394093 -0.8530128389372922 0.07360811240445388 -0.6409531352904382
P 4.001873212692362 6.934445619002028 9.236888998405774 -2.4548661584673206 0.5525362400079259 -1.2827547346241006
P 7.3321362237657945 5.428607055045068 9.719125167888034 1.3023077170553636 -0.5776811147046695 1.7216009066050222
P 2.3570946636293346 3.9513504308813556 8.474825363794096 1.7113810286492268 0.7409662200509819 -0.6737066755723753
