# total energy = -340895.08402762475 ev
CRYSTAL
PRIMVEC
9.04555137514470 0.00000000000000 0.00000000000000
0.00000000000000 9.04555137514470 0.00000000000000
0.00000000000000 0.00000000000000 13.23907877587629
PRIMCOORD
 96 1
Ni 6.550453686541057 1.7290752538996 11.458992339447017 0.1708793727538025 1.1306788677300463 -0.12132778707792008
Ni 4.678051669656821 0.44055725228353504 6.140549999066757 -1.1498654679608262 -0.9615884685558665 -0.3370906506079743
Ni 2.6731051871358615 1.6632960036361557 4.804554611469155 0.6328407905959489 -1.0673340849248134 0.42101659999866853
Ni 3.499470586897579 4.193997074036951 4.8211034478768795 -1.1181570811139518 0.8945569809276658 0.5548728585609024
Ni 5.088556886303635 4.74648126649991 2.568725855099976 -0.10829152271925221 -0.36035604889381806 0.6536813814903839
Ni 7.306272830416553 5.935102911386823 2.630512398946164 -0.609173528885996 0.6750284797075922 -0.9683455847740419
Ni 5.0235284168118985 4.926542013989477 11.26739580017239 1.2003668191444874 -0.9287853059829166 -0.009557304671131929
Ni 5.658001487766038 8.120842831066124 12.420374354061217 -0.3031459182314134 -1.1330185716068164 0.684139697980241
Ni 1.9995372427440696 6.480015977272432 0.24063518743926038 -0.5112047282489905 0.08058557216355154 -0.5122367690579307
Ni 2.6689713701157305 1.664689018561977 0.20114773706796782 0.6270069575229911 -0.01618997949630115 1.5629995798876242
Ni 0.752667673744613 9.042005610195401 4.555739531838856 -0.3036184869924578 -0.2901538768471197 0.6545483574763695
Ni 8.497752869566838 2.367365547572548 1.5203229217138547 0.6452314509508178 0.3311480598712942 -0.4230179466994134
Ni 6.627340874005203 0.7122548634583108 4.7543382325036 0.7936969747857944 -1.025552630112653 -0.4151845666979237
Ni 0.890128396603308 7.135474727628551 2.24994162576701 -1.3348195736401398 0.6265801543982177 0.8459829286737044
Ni 7.573035188711278 3.877619865949186 3.925969243092082 0.42893559773542905 -0.3828997385222889 0.1772243411352238
Ni 7.6208680648654425 3.8127270797294464 12.599776585404031 0.40192204526106257 -0.21181673439811263 -0.6878917088235056
Ni 8.011717298175833 8.954815539611058 6.599707618830589 0.2302001220013068 -0.7148638665369753 0.7320077253061135
Ni 6.737434280902395 0.7694761174794221 0.5546234653847568 0.709166559041882 0.21986968660957618 -0.3189196361259024
Ni 1.9345178188038004 6.369705477140046 9.29399206016981 0.09979119855772492 0.5459750418506403 -0.7252786341123961
Ni 0.16833861734429642 4.7853500011509045 1.111323789386192 -0.33838854348379144 0.22815583787776836 0.9084489084184098
Ni 6.367236041589727 1.7361036473889695 7.079994742264715 1.1836739318698388 1.219622582050306 0.503761641707384
Ni 3.5508945469838937 4.523815971603741 0.4890459309190126 -0.2830074956103255 -0.4699428933857262 0.1715134067933756
Ni 5.819238442654087 5.374224447163072 4.9862345126712 -0.05754694517653315 0.4948885075874703 -0.5351021036918785
Ni 5.297653854000247 2.820321537251037 9.450597692707078 0.857305295665059 -0.9349035030655125 0.16184554468630835
P 0.2541727597638301 5.6131355524928415 12.34435553953784 0.4135745418983265 0.22036051020306568 0.18570281091988017
P 3.991865180969442 6.30552728948615 12.589040420368596 0.9023247977985427 0.7945330975338445 0.4120074545215227
P 2.4713532072299405 8.337149103281435 1.4569344107029722 0.2799214004858341 1.346782402428971 -0.9625392625049102
P 6.251036887452735 7.660180031538287 5.719494051189569 0.5577689491617749 0.29991944087431577 0.15790712886385064
P 4.813237436321724 1.237386212842114 12.584790820289694 -1.0623291755110542 -0.18018085266038647 0.946445442266841
P 3.9750766374478586 6.327562252858228 8.255360131477662 0.2827367584474421 -1.5477156571453603 0.18639006679489192
P 4.642963975518771 0.9782402088820737 3.7028381022953942 -0.20995756970218676 0.21096698480330767 0.34105374902078034
P 0.1010722784197809 5.472160632889462 3.468241725015083 1.0223359229475684 -0.3064495286833497 1.4235367737718903
Ni 1.4783325672518175 1.0381127140379782 2.495989671203746 0.023401409643075827 0.6042452383464432 -0.3543381248345123
Ni 1.7627156598030307 6.245148233448129 4.72515999713853 0.31631510862351975 1.090909044031276 0.2838870700018014
Ni 6.253126409841468 5.804693195896164 9.18717947478947 -1.5394179359129423 -0.4297866328818147 1.110157350737927
Ni 8.577064264823973 2.286661137389593 10.196340996804183 0.15871676924933956 1.2362036263374385 0.7723203088822312
Ni 2.2321074164959143 5.356151435333263 7.1053078134882055 0.958326252864827 -0.9040685199625268 -0.6671894432791476
Ni 0.4972746690879696 9.185938425128285 9.251640788204265 0.1327234305093714 -0.2937793894148489 0.03931499554953874
Ni 1.4689432848297255 1.2393943252676483 11.33438624977718 -0.12448690153219204 -0.3360472969451245 -0.26512418757200146
Ni 4.09018127985742 6.781422797683353 1.604906968920736 0.19805824716143955 0.32077545838771854 -0.1617211032933021
Ni 5.619612167342763 7.964861341580035 7.958447141035232 -0.1445222229165124 -0.3601845563129603 -0.12220299059402179
Ni 5.101772436996001 2.655900548246825 5.201660652728834 0.8737600987869726 0.18091284573040456 -0.6294909002871094
Ni 0.9324878095651731 7.33708197871101 6.816047359586325 -0.6595774352598447 0.9687780443257702 0.055695750900407306
Ni 5.1791299931363985 4.402487989785318 7.35355392793127 -0.2477551001659346 0.7156313408306192 -0.24676471122820726
Ni 8.073516505794075 7.37351746001755 8.948120926970798 0.9078665535523783 -0.2620311504689745 -0.17575238457538764
Ni 4.739036777643089 0.366269756310823 10.542529628859665 -0.7197872719805217 0.31952950179575934 -1.0463217443392043
Ni 8.138083652161026 7.257879130071473 4.576908835935601 -0.18626845361536307 -0.10117342361723221 0.3821417773103419
Ni 7.074860487252403 6.05816763908679 7.0381726350599525 0.8301169081757253 0.1721153020434326 -1.1042088464639759
Ni 2.1486079309098507 5.091523827184604 2.648252534482009 1.177519739342985 0.13039658214840769 -0.38099686507262126
Ni 2.6507988572197925 5.152463707413539 11.329977447992471 -1.8508312363594706 -0.009008374146197389 0.12130413292883624
Ni 1.0344854478999637 3.243246296061176 3.9380305814173395 -0.5291996221645144 0.17108968899239566 -0.8085947178332332
Ni 3.595308204683772 2.8335280423919373 2.8244119356241293 -0.5265688694098867 -0.5386335138839047 -0.10148298443785103
Ni 1.075371340527957 3.485866077492158 8.148282511439358 -0.9530043264312812 -0.3963790039556464 -0.12241922036988595
Ni 3.583331894542298 2.734397843871986 7.172323590637103 -0.6856023985686966 -0.4351900632855731 -0.37948325664157223
Ni 4.09750817654518 6.852855517613279 6.084667486662668 0.0830682293760892 0.4932900527520988 -0.33990626567989846
Ni 0.7726800518088104 7.432548728887081 11.122799041761875 0.11191009330844598 -0.30605512145840835 0.9200196439751446
P 0.06818355784320543 5.603492994629691 8.024602686239678 0.4035909483230533 0.3309372294120687 0.3465772499421709
P 8.407116443873809 1.6900527448736788 8.17580631544123 0.584460085299716 -0.4417905993212262 -2.2145598012699472
P 1.8110550868393134 3.2698130807179058 10.18285046134724 0.4279027855955405 -0.4965530397740868 1.4335105971551505
P 3.8218811778134127 6.162055797678052 3.9468870808580627 0.4768175090183724 -0.8807835812926573 -0.9556553909008831
P 6.8611774249623405 3.9186595329521077 10.435822876431482 0.5270920889032084 0.639807194611453 0.5516906041781788
P 6.338670190058931 7.744683573337118 10.266389747359755 -0.6774836261163042 0.3455084423580243 -0.2065557431094894
P 2.6290262148402395 8.642753059572753 5.794837163018407 -1.5039997043146485 -0.12280514295439496 0.05880524306366646
P 6.934573029560467 3.97627065024142 1.5034032176960093 -0.3494815680731594 -0.7984085213288509 0.8401087292811145
Ni 5.008856532333446 2.7634159729761016 0.9494129409138984 0.6674437253817989 -0.15534990965963566 -1.353284979434179
Ni 1.3961175499739786 0.9559791067233365 7.077916074537744 -0.5130875470940003 0.7895191892590209 -0.5247061051695351
Ni 6.869472195657001 0.5588685426879243 9.21430617908197 0.017519754051318216 0.39540249897498997 0.35804899802719625
Ni 2.718197261195717 1.542402208288118 9.138234900360088 0.1636697423792407 -0.0354277446799906 0.6529049083356755
Ni 6.321420323412562 2.1240221220242566 2.8340101702850946 0.07383539792391156 0.1851641648075908 -0.6970877735004769
Ni 4.064102954979875 7.054254721012012 10.508426090721155 0.46528559711937284 0.08570026768229758 -1.193197555089558
Ni 8.246168946632682 7.237888461330794 0.23588175014368282 -0.11594106884471002 0.05851033753106697 0.7028853540188604
Ni 7.479305184416749 3.871514118709386 8.202509687925101 1.1239456627712707 -0.5522827292362231 0.6711862231433667
Ni 3.170565290028892 8.549520560608874 12.323358100918956 -0.1465323113680057 -0.24587228132092495 0.5708250110147846
Ni 9.269338409648217 4.846904978879554 10.355568030156407 -0.6762289277735967 -0.39521609399579677 -1.1218371010687003
Ni 8.598257991909678 2.2425188462337062 5.817384104603482 0.2655967563330458 0.3953215092254095 -0.06837206081649515
Ni 3.571681224253613 2.900193756699086 11.624255469292748 0.578077835922456 -0.2777814713246958 -0.6097381431402144
Ni 1.1416752327764508 3.3858675060314356 12.42826478860533 -0.4568752615684906 0.5797557378455112 0.3642898367305855
Ni 3.1255546259322333 8.43113238301702 7.958870472843858 0.03632583101422776 -0.5061491681029541 0.5746117317507266
Ni 5.546117061678505 7.601926680094863 3.4567104560057538 0.16569911410444366 0.3655753883112285 0.9921663413427235
Ni 3.0131907856169824 8.207282120878759 3.6340475879487952 0.5190118829982351 0.5573956249827561 -0.046694061622429256
Ni 3.613598309748772 4.206416616200277 9.263475987742863 -1.5449224106709394 1.685940219978619 -0.5328001950315792
Ni 7.34767431947813 6.286676360230235 11.43539973211243 0.1228298255447433 -1.6225062198936895 -0.007625634866057835
Ni 0.8535979370063719 0.010515453579655379 0.12542018930180962 -0.6519232611486967 -0.471979978420413 0.38147354759872365
Ni 4.645650504304283 0.28160339458559774 1.5747355320046583 -1.039934866976254 -0.4671457902565632 0.11052683980767417
Ni 6.190241736047262 5.592792107244975 0.37651836612222045 -1.117979674995823 1.3142821158084204 -0.7941173501526646
Ni 7.913184106052663 -0.3296144681036509 11.464644904558352 0.5975799105111257 1.1129945630764058 0.11553174922143329
Ni 0.05260621366296928 5.020859979129319 5.803416868584259 -0.6855527762776839 -1.0546899137982415 0.23600027362285161
Ni 8.062508069659502 8.704769360426187 2.3235244732804916 0.23549942272703311 0.3094849730755638 0.7215723889054025
P 8.426347286291312 1.5360703222616585 3.5291680369168192 0.08854725021278943 -0.2227727191889841 1.1309498620032457
P 1.8655273977697948 3.3130327256242227 1.517436486240936 -0.23852561114786663 -1.4574557951168383 -0.7483468287857692
P 4.744002785398125 1.0637478068936712 8.360187218311133 -0.22530756979569583 -0.5416180504335253 -0.643476415932924
P 8.485867014940029 1.6350557919581479 12.60557568844912 0.5323579652878381 -0.3891308070336653 -0.6385818068447842
P 6.333975548847885 7.657583958267439 1.4008664644938231 0.12904649587841646 0.17703665060444995 -0.5518309864107851
P 1.750648894146893 3.2925807337587596 6.007946737345502 0.16155295314655402 0.09738027512338712 0.2960388748729869
P 6.884487811091176 3.7501590002365637 6.09570848678252 -0.1498639468444 0.42226101392873083 -0.9939817972849075
P 2.40332161465137 8.531284728852672 10.151751855405859 0.07501707693683855 0.4683025295688257 0.3453084105320763
