# total energy = -340857.8090507253 ev
CRYSTAL
PRIMVEC
9.40994876406526 0.00000000000000 0.00000000000000

0.00000000000000 9.40994876406526 0.00000000000000

0.00000000000000 0.00000000000000 13.77241118840453

PRIMCOORD
 96 1
Ni 1.1463670019602212 0.780248481414623 13.62806267402103 -0.5843688111374904 1.766802442842325 1.87557527607337
Ni 4.611260677263195 1.4967182124423304 13.555619242859192 -0.5629882885791853 0.2519439414363016 0.3023442482657244
Ni 1.5379996574462254 4.86812404728173 4.702011163646159 -0.2418101954364094 -1.5193391628851964 -0.5410138411906231
Ni 5.684305358851784 8.147067726067275 0.5004794142389224 1.4508159212028175 2.445371588713324 0.14087151353780256
Ni 7.822443315366485 2.9156067390795055 8.71190366154409 -0.9451665755544174 -1.9214766665911747 0.10927291279591504
Ni 2.8350575780962965 0.35248538685021574 9.073994724040528 -1.3686740602957397 0.81532252347537 1.156993337254859
Ni 3.1252792163023884 4.454585031191883 13.58039657881537 0.9847651637826458 -1.3971487706966648 0.5610609896494854
Ni 8.29309131019548 1.249274201085499 6.630768351348079 1.8253384914050046 -0.7247111916447003 -0.18223876363067967
Ni 3.7190846198870204 1.8086297824318682 3.577769774094795 1.6419260191811982 0.8201695671550262 -1.1670640912272998
Ni 1.1331083842236158 2.216212300986393 5.836624198668981 -2.3897419151641617 -0.8361733987824501 2.332381889187454
Ni 1.0994113578823923 4.30819445906387 12.011952914298002 0.9816435874345287 1.7254380209629254 -0.13660219673848734
Ni 4.846452935395711 6.4211325729251785 8.454111529587582 2.414153768349623 -2.0655152650030493 -0.8055603018822837
Ni 8.200073967167558 9.531431150876482 0.8955815178154065 -0.6358605512588791 0.7539883433422627 -1.150108694319884
Ni 4.01376657378307 8.681552812965206 5.187778123072318 1.2464098774464794 0.12863434804166232 -0.7266953119542646
Ni 2.606282904986041 6.682324519351691 4.178452909193753 0.8802081684051615 1.0862975134011936 -0.9806213168176017
Ni 4.184679472257139 6.454857829112541 5.9215028770550395 0.24458904373312718 0.1107340707224738 0.3445327087083163
Ni 1.3107776258736132 9.05437498097394 6.928198010268323 0.03249540152454404 0.23380198041995218 -0.06027205741718007
Ni 5.042010489549106 7.632879898543266 10.311129150291396 -0.9167988230450018 1.6038976036535666 0.17224102898801952
Ni 2.7192587492342195 4.572661067642503 2.458127026479471 0.6514267811282523 -0.12512504933682322 -0.49332759085825356
Ni 5.825238160726262 7.15572021920488 4.418161942708505 0.5240677002545878 -1.1615495891669738 -2.7480963602469184
Ni 6.253569616192934 6.96159297725586 12.065430593828808 0.9882598071994658 -0.535357157125478 1.6248636643822725
Ni 3.6250039526545286 8.065605800058906 7.586904771121331 -0.6612928752890547 0.9325216330968973 -0.4851851642567774
Ni 7.616459538039096 8.307921389367156 7.709478763056762 1.1968554635571194 -0.7609064106183347 -0.6298451983027347
Ni 4.594520378502782 4.420361047722731 6.626898980437298 0.18153582402638413 -1.3031348409423493 0.6363112656430525
P 4.427917236539264 8.991262454955905 12.131400921270979 -0.06586729211677043 -1.1959139255794564 2.0473887306056673
P 7.432993767981896 1.3387910431921897 10.396958233497465 0.2168890067146974 1.253680957186596 0.4367972598716929
P 4.934915863246546 9.303729211919508 8.75581048223891 0.10141999241039953 -0.35269133325970875 2.005301828737946
P 4.104487889325024 6.555431360956996 2.4069218495628544 0.14820635663631895 -0.19393034103599505 1.051547254404202
P 3.1263519504556694 2.4291594403613965 1.4915380356758283 1.7442615814273315 -0.5818046499547399 -0.43793445879992965
P 2.1334423921069177 6.891432399651793 6.580402541856663 -0.27421740812252127 0.4580224877990563 -0.8513179677333726
P 7.727139354801304 7.531478291212067 0.31818141881700424 0.36180075176014465 -1.1968883736775837 0.13027599741014337
P 5.954267377478804 8.1788827626659 6.15115832136483 -0.07468180508460687 -0.030007344995367675 1.2940886715796809
Ni 8.863230692766939 5.150168440056233 5.580539972403882 -0.03900492050828767 -1.70430920940411 1.8543197091287034
Ni 0.9412395299657138 7.98777611425375 9.094005920973576 -0.6192741076551076 0.5934887711608876 -0.4918124397653078
Ni 6.27425268346409 0.0436198172590733 3.8323662874683717 -2.2284941519628525 -0.7187919979467878 -0.07003582167216325
Ni 1.025543260485407 8.316258603926867 12.655881350697257 -0.37423923463381353 -3.8573407122522725 2.828873993816618
Ni 3.0186833172816177 2.9451539780383 5.648134456993915 1.6079159807843406 0.7809826125429196 0.012154633084662938
Ni 9.246836662000762 1.3249866484302306 2.8100129995966685 0.34885319046054114 -0.29635614900308965 0.14542390879517536
Ni 6.594143889962245 2.920434042769271 6.63286206493672 -0.3478226923134977 0.2617511573347105 -1.2913838710540084
Ni 3.181484839965088 8.962420962150585 0.4839847151399191 -0.22777814282337544 -0.5077131701559643 -2.2338489885168626
Ni 0.2995751272268057 6.236311770253307 7.3705258234506985 -1.1721900995999555 0.6497902739660939 1.7424078160480445
Ni 8.35033202821661 8.210293171469866 2.742500381560438 0.41154979815881376 -0.7754375143549742 1.4963424448797067
Ni 4.321537766338891 6.556099467315619 0.2918109785437162 -1.32648611407378 -1.5631060235585015 -0.6215050538681554
Ni 0.10855881432230073 6.858939846745832 10.986086892571741 -0.4078373823042331 -1.4230793745194974 0.10732427370997645
Ni 2.6112795877526396 6.246737993427302 8.813006973501087 -0.19294766540775157 0.5580540845023615 0.15545583910988067
Ni 3.9832783399529768 0.9915545257340806 6.988644697815968 -2.238115991323333 0.26344834253147537 -0.1153707981635368
Ni 2.191802894024893 4.700410531370078 6.928321280596464 -0.5673897600809905 -0.4074707429934337 1.1791824717573887
Ni 4.324125502234964 8.794274588598135 2.438667252541004 0.290446468386874 -0.37129686417603797 1.5221563206190172
Ni 8.242305816991465 4.519692466337072 10.213840631542645 0.3345653130829593 1.8105988712019851 1.1734280857721147
Ni 3.3269061873756622 5.703943921815798 11.69400298021934 -0.37603386464039107 0.5144214354140754 -1.39346386564591
Ni 6.495969895039601 0.211712554103859 12.245519133292914 0.7000288584066718 0.3219928757345874 0.4535963337069026
Ni 8.684507536861087 2.6458987890677363 4.755709976971717 -2.071252938817775 1.2929357889221602 0.8401107861636434
Ni 5.431168328523594 5.061507903282425 10.479579465187276 1.7127007759019148 0.4470395064249914 1.2832522430858093
Ni 9.280006731214057 7.708074798708783 5.336464722686301 -0.5033587498420106 0.3161361598434942 -0.09393859643168984
Ni 4.155009903965076 4.465707590570639 4.261831641754959 1.7613612172220956 0.7783701146207369 -0.26025426107420985
Ni 6.283681452074507 0.65681818414631 7.35696044138605 0.3053002455702548 -0.6218423826029162 -1.2700632551993611
P 9.234970716673677 4.044283037459302 7.723939972238887 1.0731316654431968 0.6326538713961234 -1.5277176167568787
P 9.072093914400503 2.1142084569375625 0.8013060646445559 -1.7753714154582585 0.23636357049954126 -1.574537919544527
P 7.444088097514512 4.861715872208184 12.320055337048522 0.18729175267355486 0.19890439721181874 -1.0367878367068404
P 8.137422528636458 6.886953264064409 9.19377302021333 1.1085696945358328 -1.1261249298107765 0.3693644230400155
P 0.9143929462875482 3.082200471094312 3.6179982458377062 1.6518368505370067 0.7053160749475401 -0.7688848008381209
P 8.06347915164977 0.5059409484719427 4.534001234350048 2.039064527010688 0.20307961163543092 1.1554313920843777
P 2.0721930359340544 8.24603215668181 10.954438412065336 1.3379141534050634 -0.6519410017605095 -2.202962069130019
P 6.475794964998947 4.4272114903857895 3.4576461328042276 0.042018253413314735 0.9319475057609821 1.0886472445802928
Ni 1.3949778469574634 3.321288447994007 0.8561933544925656 -1.3291428349703367 0.3293359463632199 -0.8889856574874755
Ni 6.985127258987053 2.3589988627573306 3.237507910622756 -0.0941820799010636 -0.054581177679989865 -0.44664612764131467
Ni 2.3073947040152833 2.194983456689884 12.353853049840975 0.9619149986573498 0.8384033165542335 -0.930335938299488
Ni 8.766534059792235 5.851143749533128 3.5604441765244346 -0.9258424213045087 0.907567791365037 0.11034814813796479
Ni 8.750744165851836 3.0316031768645555 12.455741151520636 -0.7030756156527956 -1.1440172367101653 0.47830823463128586
Ni 4.036143431822564 4.063027655295582 9.054754201907073 -4.491114041964821 -0.24268925560725302 0.45721876095083835
Ni 1.0317632365846945 8.00042308532401 1.399153041201418 -0.15292638781980758 1.799181887614295 -0.17782752193686147
Ni 5.2196703212503905 3.4843346293440147 1.904972601334963 -1.6896220397055803 -0.22044998459307838 0.8339810191168218
Ni 7.202412384718745 5.604631323098883 1.8271165676734118 -1.07796431094515 1.3780051078886784 -1.244629645617605
Ni 0.8621169172073938 5.886026429412189 1.934252597750308 1.0170733889970485 -1.1528839430721758 0.027857645642216544
Ni 2.1178783369356293 0.5817757251499434 2.3844866498413393 -0.3595872890485936 -0.0391005655458875 -0.4679723999229166
Ni 0.6454622580394717 0.3924889608188863 11.115974296646908 -0.8132905806470059 2.1052709476344327 -1.2503428939522983
Ni 9.136664982469053 0.7431572865726233 8.859833701281548 -0.2617133621182396 -0.06248834834220851 0.21005167207788986
Ni 6.692383754525879 2.5823157656140507 0.3798513996973384 2.509130319127524 -1.931562847182583 0.8885729954300889
Ni 5.83126993785129 4.588874409274988 -0.10987150216776309 -1.0156073459744832 1.3747562619340776 -0.6179237642748003
Ni 8.843309831341536 4.019431362908291 2.0145589820567227 -0.5636020109037843 -1.5449928588975586 0.6028457868957553
Ni 6.253927194244027 2.884986765967431 11.897903394901672 0.06185045764789348 -0.21020285294377347 -1.27087289558485
Ni 0.6917657926714902 2.735980228097206 10.191115605400771 0.22897679111716693 0.2834288994184603 -0.8016403980025872
Ni 2.302078082992443 0.5523564614936459 4.779191562990118 -1.9286407884397818 -0.498918968903102 0.14859356477240862
Ni 4.712295296594587 1.2119449345410607 10.869930485658571 -0.39353716363147706 0.7239321473868308 -0.9233240257580292
Ni 5.338376824264782 2.161728697938171 8.679221968669 -0.07067911168311698 0.2084267348799572 1.0704492335150273
Ni 9.0055279372048 5.6391940647217025 13.684983453785918 -0.29904680846137527 0.6282120335746858 -0.2923349436588385
Ni 6.637514343580424 5.203193501053942 5.580718761429428 -0.9061986789316523 -0.1719579505299619 -0.9597182481163472
Ni 7.589885842873606 8.63554757370739 10.355875338411414 0.17401329039709387 -0.8500686687073038 -0.24750878848308341
P 5.904347599556384 4.270262955801799 8.291405047386112 2.4201338971924575 0.8874401673772264 0.5011573713153176
P 4.090307096614545 3.448049867106718 11.569348448623465 0.11046487622148717 0.11846820614193793 0.12744135617482566
P 4.853660956109862 2.0286155634441894 5.384144932815031 2.3314928017142815 0.42189566016951213 0.10592945024497886
P 2.5414859981483797 2.448478065069169 8.155319310093697 0.22705797682789927 0.1634817947381507 -0.4624028762549392
P 1.203777099058184 8.242936283555235 3.752720481561609 -0.11931409908200098 0.6883079704253178 -1.3639193192195738
P 1.6957292177733931 4.885607731990469 9.989391711855752 -0.8871676304421302 -1.2318592333258138 1.866039568668793
P 5.814670788321573 1.0566713708279838 1.9886947970241933 -0.7831353972198641 -0.04852597262484546 -1.9314913705146994
P 2.100244093047483 6.3455989146059935 0.10385854494016135 -0.7172711904268874 0.5907670013543502 -0.43178849380319184
