# total energy = -381174.47277770465 ev
CRYSTAL
PRIMVEC
9.18579158994289 0.00000000000000 0.00000000000000

0.00000000000000 9.18579158994289 0.00000000000000

0.00000000000000 0.00000000000000 13.44433450592526

PRIMCOORD
 96 1
Ni 5.330744373453758 3.031559166566706 5.657900007207784 -0.48672474082975525 -0.758195696555391 1.9136864811227947
Ni 6.086698259565421 1.3162504161649695 13.18176676614051 -0.12822142887395982 1.2047963156707509 0.1950189461144835
Ni 5.981070844668001 6.039033188176369 -0.05444510399499896 -0.4271286264336773 -0.39298591911369735 1.1888094533241913
Ni 6.074922075036462 7.835544334238004 6.164241035945806 0.8954041594193095 -0.7836763573249987 -0.22843557390171626
Ni 4.58201051935439 4.849923310283874 2.1328093979604916 -0.6443418492570129 1.4041501417151623 -0.15973878275595071
Ni 2.2135920029550453 8.728090937935946 10.80866625188281 1.877468893551657 -0.01186255576554086 -0.3045741660375077
Ni 2.8186141511608467 2.9509722189282104 6.105932388103007 0.4316403982611018 0.32638123461027013 -1.196382894796075
Ni 4.257384652542077 0.8367438397393074 9.188879627298693 -1.0409093150743816 0.18072001299330812 1.0867806236851993
Ni 0.5700160158958116 3.22141110248286 1.5161580378875597 0.9672963175739211 -0.4846100084795976 -0.37385279782867226
Ni 0.48789044820380567 0.7098228418804389 9.976597061368768 -0.24424451590951485 0.023981450516261923 0.9368755391902187
Ni 3.53511506336309 5.991221144125489 4.95732909438941 -0.20454745443020902 0.07449591432604588 -0.6106886799789418
Ni 6.820293929496518 6.409046050119403 8.281023983713105 -0.34093393561346447 -0.9606764982645585 0.6012853843871708
Ni 4.8939324367099575 7.9225062210832835 3.925301760300272 -0.6129209117435701 -0.5074678869143776 -0.5454430806065703
Ni 7.209633696469917 8.382098920410405 3.4748764807546637 0.5700181988427732 -0.055917637103226274 -0.3083673145313528
Ni 2.2747785592322614 1.8095641555902238 8.323346598844713 -0.27745108456847056 0.06366334248691617 -0.38511320123383996
Ni 0.3849627373883373 8.685891412408617 3.7833968995680514 -0.05765673128152006 0.21901993701477118 -0.8720870819599238
Ni 6.110719103982914 3.383705664306288 0.9880815896234679 0.06200318117567386 -0.31824112200163907 2.7397027368665845
Ni 3.852291253379003 8.379995374187995 6.169658815692436 -1.2274225377106989 -0.023275939808805074 0.385737207971084
Ni 5.1376131100205695 0.788505574969127 2.005195791432759 1.8119839244749696 -0.9102929036056838 2.463662673713028
Ni 1.080965556161274 5.371143483873695 0.7372791722681584 1.3786568825400642 0.7324880073766418 -0.515896477297705
Ni 5.739576389702079 3.0835048167314945 3.4874738750315846 0.08555628590526555 -0.7307463420951866 -0.7969915863766661
Ni 4.13621487865636 0.4492008135567547 0.1298475909875161 -3.611962082738315 0.6027809950960908 0.16378055692549215
Ni 1.7166498759409154 3.5707375622736204 12.729270090642267 -0.5454600498874348 0.03059998427404408 -1.318444474716226
Ni 5.771515386275548 2.464529451443409 8.356971188133521 -0.22411329237727853 0.32847411258355685 0.24078869615043047
P 4.339781201079328 0.2888435351320451 11.473636711689931 -0.6737866368806912 2.162289788221637 -2.1430831333861993
Ni 7.950642300031958 0.3225563080179497 12.390499942287292 0.5747500571008037 0.16452103463594248 -0.26528642418147863
P 3.544236554187782 5.842705269348424 0.19237251706650238 -0.7863965844696392 -0.2887803935383607 0.5561242144695002
Ni 0.3052677300913098 7.8394758529419 11.898787286296827 1.2111937345566623 -0.27535820659518384 -0.1934415743250346
P 2.430633881309356 8.428689254209841 4.061223915116961 2.6287128413795626 1.0134828434323127 1.8064930765637275
P 7.226590667328308 1.2851748839797388 2.0107210449383506 0.4570027882852904 0.6170218212858212 0.0904408676910765
P 7.865618615164533 6.774291486344394 12.558634830260106 -0.41098389835301474 -0.03447257985557289 1.5695569213901677
Ni 7.982893613511812 5.021862953039756 0.865473320810111 0.534611537208705 -0.35011945876747447 -1.0164612093343461
Ni 1.45615920443374 7.4139716253674806 5.598059169365429 0.05336967387039196 -0.09157935217089389 0.9246558571955753
Ni 3.4259235614163446 7.780365285513002 12.452652843816027 -0.6349174706193194 -0.1090397137391864 1.0363268379100217
Ni 8.938923221328029 4.832112060828608 11.963561812680915 -0.7252200129603187 -0.5908089103358792 0.07117096371787097
Ni 0.09202233930784028 6.027192703107861 3.753872847544241 -1.1288973503495912 -0.310023362077537 0.6457410435973847
Ni 7.91364193241679 3.542454510663119 2.758454566358153 -0.6749042954249023 -0.8599437617291706 -1.3787514991363998
Ni 7.053282341659153 1.2004635160186987 6.795479432705155 0.657494584588887 0.17903748308456263 -0.8132954657430123
Ni 1.3739004427669526 1.8261445090026807 3.54166820692234 0.6521220074230639 -0.07133705698209004 -0.20920783602035584
Ni 8.439500930645554 8.28479383248899 5.815386725831168 -0.12845411371005622 1.4900190737648402 -0.8868907226316597
Ni 1.2507097947811026 5.127444438980354 5.57013528219727 -0.04039974397328526 -1.5269239172109896 0.3382409621623336
Ni 0.13686094269411492 5.307568621841776 9.58749061349602 0.5047605152855436 -0.594961241941356 2.185123498286701
Ni 6.048678269108823 0.7504883402499384 4.853108942728992 0.8159205620706852 -0.27630282989664023 -0.4969237928499442
Ni 9.077270425064878 0.23370490388904583 1.4152447711182696 -0.17229682192661938 1.1304348700400402 0.13085398140080046
Ni 2.6085902174088167 4.101024111939949 10.28503664521815 -1.2848170164697679 1.045994957127405 -0.4606434703616712
Ni 2.7663378125069453 5.770302861815468 7.293228990780201 -0.035354211129577824 0.3103586339297687 -1.1415278946294083
Ni 0.48316619570517605 6.266445824980909 7.707905926073589 0.9861232204724372 0.8815857654789785 -1.1366409988507522
Ni 8.232214362720068 1.4438594297970198 4.470321400735708 0.32759736640555837 0.5210044879482317 -0.39734291053081244
Ni 6.10737547592633 1.3975079265730546 10.697146151825232 0.4745497960301182 -0.11888215375090494 0.42685300417478744
Ni 4.512005603367502 7.307866549319121 1.4882075119244438 -0.2083280045185638 0.5871697709213952 -0.09827913278857267
Ni 8.329197947943737 8.160170201050319 8.089630672006031 0.7251439083067447 -0.6525264419503343 1.162214219334166
Ni 5.765388463435599 8.315805064134672 12.442085509430605 1.0567236563988187 -1.6958587646439116 -0.4896156892243052
Ni 5.034824104654701 5.143198071170028 9.354702451585126 -0.06175558394124204 0.5895392995948363 0.07040143254169812
Ni 2.4033337093748286 1.9240283017800437 10.95921586086792 0.6356502350202858 -0.5161538447241498 -0.03294688723966584
Ni 2.7768831009930954 0.019682395156161405 2.168087429694863 0.15656912677871745 1.6777409719972785 -0.41846426589045993
Ni 1.7458331351051126 7.869357232249779 0.5185085279790972 -0.26274566003749583 -0.26686533863282424 -0.7759453072293281
P 2.194384513212415 2.069972154975121 0.6536232517348697 1.9465181829408351 -0.2940766089402935 1.9056906074015114
Ni 6.054823563531501 8.656405022129402 8.431412841349339 -0.7150322737940396 -0.024118233204442334 -0.5394734932866967
P 0.4372602033623764 3.675574999113715 4.081485015129069 -0.4645384345407032 0.15159121394815184 0.51661407219002
Ni 4.3998195334360135 6.049587662453883 11.604234781831904 -0.20330304050014664 -3.6476196840409245 -0.6234400661073393
P 0.7401442205946654 7.6231963952708215 9.69634958979538 -1.2177359065505544 -0.808156344744234 -0.6066656748624778
P 8.762418240264118 2.4322322090067345 11.365288465390423 0.5729675112790843 -0.12854821608575928 -1.13218553418256
P 9.334968615997324 0.790824987288598 7.498133683004939 0.918916640718953 0.8673390257519772 -0.8038788004148026
Ni 7.67302012763047 0.9916521067267487 8.944219748628651 -1.257818376393737 1.2073489068892755 1.4799526906677738
Ni 2.6046954418703785 6.455507782839739 9.622795284025347 0.07059246550658164 -0.16085001354225847 0.10537229218992819
Ni 4.572163351011922 3.2518068861071368 10.868869928484054 0.8886053913299213 -0.3408043520141356 -0.07627357505175897
Ni 3.889144648332342 2.6171146317948337 2.2327278435250344 -2.7942162945334332 -0.14899697085841435 -0.808660280963846
Ni 6.4501432806830215 3.8322754139963195 12.34550150613128 -0.3963586922406722 -0.22581716244226271 -2.0477682254322733
Ni 5.179684034468798 5.1365200008482255 6.652162715840251 0.43039572722072333 1.2159492469637767 0.2650707086262467
Ni 7.2812920549023685 4.189299566950314 9.419906873005061 -0.453862957104728 -0.631773525673699 1.4832089928215424
Ni 4.085095949714352 3.752597859702884 13.321573592125137 -0.3580734235072284 -0.22024378211954326 -0.47774516303896436
Ni 3.9732773114374345 1.116679912985447 4.478267110265777 -2.56658341903867 0.23675514951100518 -0.4144317476922992
Ni 2.210349418603468 6.9133459960162895 2.609746708541575 0.5440953083294242 0.12371197103938049 0.16997305888944922
Ni 7.3635232591950635 8.033847198209262 10.655709965560272 0.3316339983687772 0.12394902675085104 -1.8632884882862166
Ni 7.973367947867092 6.061501633853305 6.2367591844499515 -0.0559160944413295 -0.7613599532159856 0.02440182588313217
Ni 3.7253619883079065 3.7908199375694953 8.086028004632976 -0.36368845570116076 -0.8976397336180476 0.5375161124500097
Ni 7.991316984192821 2.4926563446007184 -0.11287776002121538 2.1406722099518616 0.4602230949948009 1.3370908861728197
Ni 7.361686100922215 4.138134709051486 4.804668590548799 0.24018422979721216 0.9265921549863396 1.7025837420725711
Ni 6.753843914767591 8.269315774040242 1.1021103293026229 0.8613627535638843 -0.009929343298569995 0.06239655995935061
Ni 1.8978855395574108 5.915814982816426 11.890209594320895 0.33718295321146446 0.007627948858902992 0.19799705490620095
Ni 4.676192438211963 7.700669359636838 10.089407765113023 0.44144324328413653 0.3786286219507608 0.1155389483102849
Ni 7.3694848377904565 3.8440699701080066 7.231666735636188 -0.31133591024137347 0.02074468874651911 -0.7317071633465592
Ni 6.664649880620802 5.777008489511365 11.176840118394724 0.1000141132018084 -0.017435678977944166 -2.0631884166420855
Ni 2.17869518156229 8.564712452731538 8.167433406282024 -0.3068735035946457 -0.4287779891116422 -0.3970968559582774
Ni 1.6714465966374805 0.8115058779660524 5.834074299782582 -0.39798748609334683 -0.6837707446765966 0.13665490435329367
Ni 1.183699446778957 0.7872976434047291 12.851143496146484 -0.3178019775816914 -0.16661905481555175 -0.9198736053155835
Ni 6.677335458494819 6.047410629900558 2.3925808220038474 -0.26963750206132275 0.5496774304028921 1.0108515764570527
Ni 0.28212688448651124 2.9149363594062887 6.384835059820669 0.07113316850140007 -0.39333198959920646 -0.8076300399271187
P 3.675574999113715 3.996563292545788 4.06336144876742 1.4158268067221422 -0.9539286380177635 1.0466477602200555
Ni 2.0813166073099603 4.715838313740032 2.8555768570314206 -0.5517510251024692 -1.6384097784978235 0.4272846923955674
P 6.840511856289215 6.412077361269602 4.512724850831321 -0.4860135736953436 0.3453621465881472 -0.32489205165925333
Ni 9.196722455965482 7.137901851706551 1.7841571752558665 -2.3067927278644405 0.020468295156680874 -0.4584508335857266
P 1.402753013442037 4.130620731715537 8.02969613909176 0.9583365372774721 0.5232058664749248 -0.4982515105224322
P 4.420313033969637 1.171252699480409 7.039049876519397 -0.34139287752775394 1.0183771954101366 -0.8827013671406604
P 4.263006356856993 7.053658959105087 8.022153685802582 1.4976719623244077 0.39395393945392154 0.1283913787929208
Ni 9.269014634002067 2.6979587815915282 8.802584031583404 -0.8598666286343319 1.0168363332855779 0.8648036609246332
