# total energy = -381174.9634445348 ev
CRYSTAL
PRIMVEC
9.14813729724441 0.00000000000000 0.00000000000000
0.00000000000000 9.14813729724441 0.00000000000000
0.00000000000000 0.00000000000000 13.38922364240527
PRIMCOORD
 96 1
Ni 9.0408021366754 8.462566678590713 12.53179076684237 -0.03986521162605392 -0.6738745686088072 0.29558147562059417
Ni 3.2128898324191306 3.268638580703653 13.170483519444273 -0.21114593358333317 0.41044679490262215 0.7911744654742567
Ni 2.8914700308148173 4.174670092042524 2.204040577115803 0.17496665544929865 -0.46541389516712106 -0.8171266665636443
Ni 6.651894172772055 0.6187726837818268 1.84017433357428 -0.39266993053517535 1.8510891180065474 -8.253241147727722e-05
Ni 3.9634396033832493 2.8234078898176325 3.8441396605700517 0.1681159510760524 1.3237381190149977 2.3479542897044143
Ni 5.511368459795975 8.963052118350793 5.44763338770896 1.2838484819089115 -1.3988498125481716 3.8889560251647093
Ni 1.6729472998088983 0.29023746103939363 6.89724446886106 -1.0691243440560168 -0.6617083655599184 0.13999990956612665
Ni 8.047058285567577 3.397920056049381 5.824017942237115 0.3819162915630971 1.2386163495439892 1.1738345771819139
Ni -0.016065958604738736 2.7527659741213606 9.771562657181843 2.455201430319552 2.0442267879379186 1.8225413882758421
Ni 4.618775562049155 5.568343058469424 3.358646188103815 0.355329285103188 -1.0877165052359072 -0.05228312567443254
Ni 0.969208547054806 8.119795124689702 3.6587124077839843 -0.1453694014081561 0.9432559887952658 0.047072270897454416
Ni 2.6472422111640315 0.5272684411307056 4.897978539960753 -0.020467780936048622 -0.9406445193143477 -0.7281999215242491
Ni 0.6070566644303357 3.9487385468533467 4.425325392911673 -0.00189927390524189 0.42212268857865365 -1.2260819645224046
Ni 3.732513175266053 8.261307659513015 6.959986053244809 0.3255055168735362 0.11814681824677717 0.7314341121908305
Ni 2.72262286194586 4.969871920830199 5.050495369059002 0.7948385445894053 -1.1533853081886265 0.399647390294273
Ni 3.1986461827507684 5.525932294267415 9.7487069511244 0.7285825016746484 -1.1286777781396173 -0.6008981762510813
Ni 6.5244606211469485 7.88231863031525 7.412059550779471 -0.25487345637827075 1.3489953509198895 -1.667870764071418
Ni 1.2205261730594652 4.274256713937061 6.971916139007502 0.5983692391816404 1.990606431509301 -1.0355709335806038
Ni 1.5603794711838497 1.5144009334618267 13.291682615546586 1.1411070050419057 -1.2541663814634465 -0.42967838943872455
Ni 1.5668472042060286 4.3643109768371 11.183657227550412 0.24711618103035504 -0.4147539069184083 1.1585552824253402
Ni 5.017616049037767 7.483432402640484 12.553936577450703 -0.9283245642964141 -0.4676540973515494 -0.06990340985935703
Ni 7.578024141607003 3.927231276223725 0.7893644024206986 0.4338695447019366 -0.15639583442564678 0.38124600496894984
Ni 3.6925815562535917 3.3015535784600876 7.081693785777154 0.6507310406128083 0.02329907973725665 1.3933733628146325
Ni 3.33115695053897 1.722219166934011 1.9959451550855256 0.916657412371131 -0.8596426855489839 -2.3728885910522486
P 9.333112565611293 4.93178822553836 1.8393848493312617 0.0720155711063534 0.23690761592846943 1.1222122250199318
Ni 4.715325002383065 6.6096480750402 5.518395144002955 0.2843593816525296 1.610498653909852 0.1321413327536563
P 4.281236742644165 1.5343804651739035 5.809061652678474 0.6131250573345763 1.0365741780341375 0.8410453821627709
Ni 2.2512833874031233 2.6794253579420015 5.622027986994676 -1.639812315272305 -1.1829797340162915 -0.9704986265613028
P 5.3790772473013115 5.441815172430168 10.274568408749008 -0.6197723874477649 0.9468989848644919 0.23385340248317787
P 8.85008177168759 8.337722049801926 5.754366769802941 0.4188237061124077 1.5705617085055983 -0.15564584363349968
P 7.796966509951845 8.271087018212747 1.0711810031391367 1.1716817925049694 -1.4663052750876684 -0.7647514953960377
Ni 7.00118834851863 6.47364271882983 9.065508510894633 0.8777206260966174 -2.0997711008621254 1.13287356138852
Ni 4.708720047302425 8.726252586131421 1.4536408356022696 -1.0260365117276071 -0.7458382034313027 0.09688970864021378
Ni 5.064372178424408 3.618893310859462 11.474644835842733 -0.2566801705697063 0.42035865469969536 1.0638227293374454
Ni 7.101927635704248 2.5361106400842193 11.996851612643635 -0.5693959918777419 0.9471136719784591 -2.4426873570129413
Ni 8.584246051897644 5.113214083099673 11.02909213052619 -0.3595098988434389 0.6982568541079136 0.5455749781987442
Ni 4.818827027012387 0.6447726046054961 3.7154427511933723 -0.8931107353994425 1.2362265091555742 -3.88555162746885
Ni 1.6795614030267698 2.103760526419171 3.3790117712070313 -0.24719511389740653 0.8512297788949406 0.03561929186550639
Ni 0.3410105374840812 0.6861898811042401 2.240766688842591 -0.16728599897558932 -2.0680873966055997 -1.3673322015558647
Ni 2.3201231200649266 8.455668983118688 12.76271536533212 0.22871145327092227 -1.181054749079437 0.6243420090963183
Ni 8.25928592118501 1.362230818764626 0.15737266034035935 0.4953073402924437 -0.02212614247507802 0.9257521755835476
Ni 3.70142780495578 6.501928759147478 1.4418589496627168 0.6323746495928078 0.14935821085257503 -0.4543560946910626
Ni 9.020420086925167 6.262366489484402 5.1088989067679025 -0.8781826533347005 -0.8496845458950076 0.4422937642098899
Ni 0.7621258238159785 2.881461968684317 1.3441577588514484 -0.1850114412798104 2.283631459256628 0.326064988921432
Ni 0.03130126634892043 1.4793544197306148 4.842252662019307 0.4375097125576852 -1.1014222848577742 1.084840983460325
Ni 8.630700292755668 6.215839063528531 13.592739578488851 -2.0102494025512088 1.0781589434544594 -0.19187860071328888
Ni 3.0215199496879332 7.53455219348622 10.586417429182454 -1.5385383615214665 0.7356023846359073 1.240174952280361
Ni 6.349886718371509 2.3549409303653683 4.8764758433997475 -1.3773978133219826 -0.6577671215239833 -0.704923724605128
Ni 5.053366969335751 4.411862994162821 5.705375750490813 1.2412555869390494 -0.9650702564568799 -1.4071768443566284
Ni 6.009951087012046 7.62644523196965 3.48058262406693 -1.177887664205365 -0.9025366566990328 -0.036701469186091636
Ni 3.1468128372010304 0.5157061104846918 9.132428049551692 0.07023045418147258 0.1397682531712948 0.3316967332859126
Ni 9.055878266831765 7.3354246903833005 9.944123054952783 0.9283595312994076 0.8797510262630849 0.5726067855055558
Ni 1.660185648371926 6.022511479429941 0.5850489906941895 0.8628833039734688 -0.19614534640944284 0.10884533834019318
Ni 7.103418782072868 7.540855260038244 11.284263866746185 -0.3254219560207944 -1.013571546491377 0.09000249460207725
Ni 1.1421998220893177 0.924254600702633 11.142297584316225 0.31366918636024044 -0.6059061709886339 -0.26015630204376483
Ni 0.6331352592341898 0.4988149899017346 8.975907995601244 -0.603964988101863 -1.0251412536068474 0.05118140796982154
P 4.8455487358635665 4.57503831794868 0.2739418841901617 0.9003920995522041 0.6522042827242253 0.9607312627618938
Ni 7.650568869847281 1.0674686890508762 6.663535177398253 -0.5867565946433766 -1.3873153295460108 -1.1710994376389379
P 4.0355452210364495 0.08146050278542112 11.253977128816162 0.6081006075367914 0.09013104976014155 -1.5693342638564003
Ni 4.052533311874053 0.9741759855711327 13.063865639274141 -0.8917807037341093 0.4379182608500135 0.31351414883961487
P -0.19992339104199996 3.2711817628538165 12.459717167669478 2.0267060054453356 0.598704253923556 -0.036708668274943235
P 3.0312810121132014 5.986440374328879 6.906509702248419 -0.09623073489997619 0.23328030358852728 1.6805887258587187
P 6.659523719222546 5.863873631710561 4.627690421780574 -0.27235207277900836 1.1198182708664586 0.4475197884955196
Ni 5.400392407049086 0.8168325992699119 7.907421118876577 -0.596113096157612 0.6717132992914303 -0.8857386113050875
Ni 1.786997126665337 5.898901849167311 3.261882681358704 -1.1528052673154403 0.7857630646506983 -1.1593610661560871
Ni 6.381493532503938 0.15000292098722331 12.555865004778955 -0.0681915693745729 1.207279744214237 1.2222137398162498
Ni 6.99402535706691 5.6536860306955985 6.738059562535279 0.6195502441346298 -0.7430385291989784 -0.4772304281860749
Ni 6.7393229202868525 5.374082364373292 12.480911572005805 -2.269923879862549 -0.096754211503614 -0.463434402843247
Ni 6.190873797025666 3.4601731299050056 7.5476523260007315 0.09372570908993536 -1.2592389108903475 -0.24140113292344875
Ni 7.239305212499238 0.23674372858226472 3.949673486478335 2.6678162351389276 0.660843703566778 1.3224109155631418
Ni 1.8679581411579562 7.481849774899556 8.566478539767974 0.7978660185618194 0.014961763516154877 -1.3573704623574625
Ni 3.420698917754084 5.6376859386789215 12.307280842178859 0.15787833250844424 0.08035880086472612 -0.39250846525664657
Ni 8.244164050342489 2.393079514480592 2.8933170397217167 -1.0425334809413658 0.40595584901080417 0.349752819456675
Ni 0.9391843606633059 5.285967506566184 9.042144168407159 -1.0248951990343123 0.1329442882709259 0.2574515015180921
Ni 7.963343681768485 0.7244034799447564 10.850600080574795 0.7391957584141204 -0.47512340914540113 0.7837989989457921
Ni 2.853688224051595 2.4980726854785344 11.002889121055997 0.8105690679507846 -0.9686235210257771 -0.9418529378001521
Ni 4.346655071981647 3.452863768257593 9.30943352720308 0.7814284418310865 -0.48115290316893267 -0.3749930820807026
Ni 5.670857084277818 2.360658516134621 0.26747140672681374 -0.5146680042072427 0.5418612767925829 1.206689933149038
Ni 1.9798490076279252 7.202456515733557 5.497748713086753 -0.07540505640387658 0.8255447154240104 1.4011977439550578
Ni 7.57594751445561 1.7178920980238404 8.8431538873627 -2.276634716223821 -0.8054417740265483 -1.727768983088947
Ni 8.34652255781796 6.704011110575948 2.952819268712038 -0.5925114948492829 -0.07766737007549204 -1.550992271014103
Ni 0.4563593998272943 2.219091092487923 7.353589231668785 -0.2550354358774317 -0.19486467992480633 0.565495114161439
Ni 8.837411601622925 7.016383404458996 7.494510796826989 0.8928466831047784 0.15353959592377425 0.024850997605408813
Ni 5.05075060208774 7.8011014679801685 9.400827992207432 -0.6310189068958616 0.6440276604507037 0.37928348192594036
Ni 7.304805875071798 4.418083727479768 3.362810420171277 1.2584943194148392 0.6108336901972383 -0.07480676069824536
Ni 5.717823620820768 3.2181866038757665 2.4577925224375794 -0.7821750901891239 -0.7298539121879043 -0.9206562491178789
Ni 6.1778559977462315 6.65616635285884 1.4070329060387674 0.5798979198503302 -0.7044889510605545 -1.2537820015408343
Ni 6.943518491415639 4.092958930296978 9.691695759902029 -0.3297352386841676 -1.2391560240975434 0.9610487940023126
P 8.358195580924466 4.1946862163035235 8.060646928610213 -0.3434569591456343 0.09617262796853114 -0.9130858929697887
Ni 3.4181557356039205 7.747969086943656 3.750616424032092 0.5663350935642312 0.027668669559862025 -1.6557539262032257
P 2.224689752473175 3.3395274961051564 8.846715257186654 -0.4340788324992653 -0.22834352840854225 0.758739741984319
Ni 5.584965223817796 1.4685596177982658 10.21185335396323 -0.5604956040643185 -0.5159499562434599 0.8530709458687373
P 1.2236090953062464 6.55074321941105 11.757425650225299 -0.14023259440222302 0.21783363001615386 0.39680657841136824
P 2.456915216077145 8.784004776469489 1.6538103115357785 -0.17446477611221567 -0.18946279218294468 0.24216552189329904
P 7.137953000119156 8.650140084371127 9.347914251650735 -0.04844164044115528 0.5600862844410418 -0.6556942981553545
Ni 4.951886683034437 5.747747177702729 7.965128483342215 -0.7058542068391973 -0.4621192835762493 -0.23471832158663444
