# total energy = -381175.2986539534 ev
CRYSTAL
PRIMVEC
9.22858761382822 0.00000000000000 0.00000000000000
0.00000000000000 9.22858761382822 0.00000000000000
0.00000000000000 0.00000000000000 13.50697081277849
PRIMCOORD
 96 1
Ni 6.1504936622437105 3.32820702913634 11.101865268883516 -0.566030932060251 0.8177383320057142 -0.5101742301019472
Ni 7.274471021167412 6.4006714411231425 9.521792657911448 1.5994696497892003 0.9629318699576384 -1.0675256321103292
Ni 7.995343677540167 4.810862670325265 1.0341675138272024 -0.7131638531267331 1.1949662169542066 2.8567558078285513
Ni 3.5045837936774036 9.158551761979986 8.17185241088266 0.20562963175079424 -0.42086901867721066 0.11891377831978876
Ni 2.7999626799143598 6.6446660663691235 3.294323347225029 1.5126581513205948 0.3832491514419077 -0.5730145624669357
Ni 7.292392938116906 7.292512909754571 4.724279139423177 0.26685068334480494 -2.0501763206531334 1.4559100478962732
Ni 1.2024480385434504 6.213792543992725 6.732995646028598 -0.5695001215557741 -0.46783510301410397 1.0927928913175502
Ni 4.629364039714702 1.2068223890244292 10.206596302849906 0.74942000724529 0.049638231852417745 0.301163597694062
Ni 8.677880781385527 2.0094418735839126 4.807576370312024 0.5183703927594944 0.622739697606205 -0.17484941314514404
Ni 4.342391882422481 8.077644220977652 1.4683153390530757 0.03042617770034115 -0.44841453239564705 0.5946678790706532
Ni 3.7411955489132933 5.99065452652525 6.583027407513628 -0.733902114115349 1.6031067323211552 1.1038198385556732
Ni 6.487032563066177 0.7680002842234174 0.23797020331774668 0.0823002408618131 0.522496756223042 1.162268212500553
Ni 0.1358641882194429 2.96771071513113 8.55277620334704 -0.7196697725660509 -2.4608064352111554 -0.5801054078754461
Ni 1.461642147422705 1.150924834460531 0.23391793054095825 0.4634326030710342 0.32265699168114753 0.5579869787098519
Ni 4.055650439818076 0.1843198098131698 4.269647541354308 0.5801987389202008 -0.7948375161481408 0.27229190896503425
Ni 8.954683035238848 4.05714547099512 3.4559878975534852 -0.009077022600603722 0.413167793378211 -0.3384538495040881
Ni 6.138736441752641 4.31519523502281 8.583112416218503 0.11557931462991707 0.5790623113229124 1.6090192411508484
Ni 5.077688821077451 1.010751818731449 2.2922141006991423 0.05259988558390296 0.7445127997516597 -0.10286520949735833
Ni 0.726860163950939 7.1073043869639365 4.548337041353958 -1.764271448890355 -0.35480760827176316 -0.5434221935217997
Ni 6.151601092745224 3.686045509937917 2.3684200849432977 0.061484589668042496 -1.9711478085640566 0.3316550814146998
Ni 0.14687666169824426 1.4143917793581255 10.69942502463348 0.9903318592371461 1.1688954880090836 -0.1282535676634759
Ni 1.4192091020397095 8.492884516107683 10.236433249136935 -0.008185364024269774 -0.1575757136663609 -0.49992041358442285
Ni 5.320548330059379 5.901100313302853 10.539083853754335 -0.7386306299392699 -0.7194196042284577 0.38095135654666656
Ni 0.8099589802082646 3.6868483970515142 1.087565966892685 0.13653869049040357 -0.570333930310979 0.3869186298736949
P 2.0761737898876187 7.3737706228031294 12.073502642301507 0.31341361870600865 0.7507785781557135 -1.5213243116360253
Ni 8.07794876436557 6.784811396335668 2.540877468367754 1.0086190875821082 0.5105694086578367 -0.2989352225841755
P 4.106933700625667 5.118534549408277 8.561001643397033 -0.3569868753112691 -0.5276338203392913 1.0091376790897395
Ni 2.776798925257701 1.6142368419437645 6.467705132238511 -0.43461747861155475 -0.1548148630917721 -0.31355348671798255
P 3.198554603171637 4.112443167370698 3.3682064959922595 -0.5656864042366386 -0.3400844431289756 -1.1759899329620198
P 0.45128438937804466 1.142379162423851 6.871104226731108 0.17973348071032272 0.9566542644790427 -0.13462373285587784
P 0.260452888215975 6.838161860746084 8.764038874403285 -0.7360369010701646 1.5860160953874556 0.10085254994270375
Ni 8.490992655667597 -0.10470386248310443 1.234102093711714 -0.31837687624855493 0.7405435306912667 0.02045441119960993
Ni 5.0220404383763935 7.0865216078855315 8.46897878301501 0.6153778579244951 0.5009370277743954 -0.7167513133676753
Ni 4.555950626051863 2.565630385794085 4.513421603358736 -1.2114415889014105 1.1505144143987345 -0.28313502232712523
Ni 3.7437795534168252 2.5440816339521333 1.0997753881718724 0.06089734970600481 0.04719748362140904 0.3395457970166862
Ni 6.40535956357955 3.2302732584524882 0.029039596325939984 -0.6234248965986876 0.031005961463211117 0.17235775707154186
Ni 2.6485769303574527 1.2505289794841652 11.436095177110328 -0.8023965594423214 -1.1011024396245102 1.0542818797265456
Ni 8.8651657363665 7.0653143137815455 0.18686782282540235 -0.44565471026232284 -0.48614315729467245 0.21207410182455733
Ni 8.374574024195983 4.282304549127856 12.554729183864225 1.9780291090649222 -1.3480191030495494 -1.7016033804371729
Ni 3.2741736492499895 3.303197556977158 10.594719316432874 0.24751084536561244 0.3734231664904214 -0.7502682141781982
Ni 2.6271112358031146 6.815376478177442 8.84418915695033 -0.05505220377913744 0.627092832368578 -0.8197201383224335
Ni 8.073537499534538 7.549279900118008 6.982941787361463 0.37059289613047786 -0.8834511008224915 0.84191544347255
Ni 5.975113585154009 5.856987664992561 2.8829544445565394 0.4001569829408399 1.4749981748759757 -0.3529872672335727
Ni 5.618354849091408 8.21048973822172 6.294545453304345 -0.854238226703961 -0.43630386517504205 -0.6567129692278562
Ni 0.9313490517729249 5.962045905236149 2.1793770840411724 -0.035027166807462255 -0.8685315033981816 -0.6676363010085793
Ni 2.15881579106307 1.7416744069054404 9.07364506542894 -0.22283725387833236 -1.7046635074197354 0.3143736686264328
Ni 0.26183533062536446 8.958356013068867 12.290248940057745 0.6375058001717859 -0.23632397551085751 0.5839414937920846
Ni 6.48344264252377 7.583407216739651 0.6762708929242959 0.4225376646288852 -0.7104297420250216 0.03146464626718452
Ni 6.744473240318035 3.9275761023180302 4.991122824491637 0.4743960440610733 0.3601007383499024 -0.41905459117629124
Ni 8.447479865545626 4.986445776340244 7.663666396619346 -1.200097624643501 0.6097281158378853 -0.5164649482066653
Ni 2.687392369435504 7.6976202157957525 5.461287058202985 1.7082221713052708 -0.024279955593287217 1.1966883418516359
Ni 1.1290899964056882 4.931738709565473 8.92342027218112 0.9088983372510024 0.27592924860730544 2.5754028171025127
Ni 3.0457845654878377 5.627158921578442 10.90346171166735 -1.268033626363842 0.7482619823814467 0.6298385134345152
Ni 6.493215716699628 1.4009088130021976 4.3781360475763345 -0.3141990907217814 -0.5968561449712236 0.03580492551375124
Ni 8.343824370603954 1.920201432336943 13.077907961400532 1.2750720212678623 -0.09600910580747336 -0.30553395884761575
Ni 1.698207759721032 2.7219072867326775 4.379338532529228 1.8436542589950573 0.18724315882380657 0.1478841974102098
P 8.696983957536636 5.420253989545653 5.2213354771462805 -0.6179921556188905 -0.058215946219099736 0.8118777594598792
Ni 4.541074142981531 2.40563436408791 8.181536890618398 0.6994755570063631 -1.550994327896632 0.3572172461545203
P 4.757244576876983 2.1536477820560065 12.415539935563988 -0.7844101501672297 -0.29881515206654347 0.0656772875931514
Ni 8.61948227960571 9.06575831454066 4.259855087144674 -0.19927669294957293 0.11533660249149169 -0.742218090180212
P 7.572083739861675 1.4744145125401618 2.510000460268053 0.01792084614447881 0.08361381746691407 -0.25003001224304033
P 5.361467887090307 5.533507215500443 0.8589203283976826 0.31985140391155237 0.032973112491910955 -0.3499996453601585
P 5.412409690159932 1.2843240669553548 6.427616148083719 -1.4197410541748838 0.2564372013209648 -1.366295275650918
Ni 1.9425807570550297 5.107534073093242 4.93284060291448 0.47177917526351654 -1.1680385393254271 -0.9742789195393413
Ni 7.596834811570503 0.49189663444480164 6.401331285130294 0.4767881984423337 -0.02116943498876354 -0.07551998471518608
Ni 0.42261855084636557 3.590889544095362 6.1477250859899275 0.2908647868712152 0.20164622162301402 0.8354084955919678
Ni 6.408838741071806 5.717432964626823 6.722959557108632 -0.6531501915772622 0.5806337695750903 -0.8970496654425325
Ni 6.636867909920966 5.7451002699896385 12.477428689141075 0.26672804172401166 -0.07362071080994417 0.3252178104297883
Ni 8.199839948232164 4.406355222472404 10.26868808535227 0.08648162593301234 -1.6279826696272284 -1.1316733704328317
Ni 6.611480065673766 8.540051826884648 2.967791926701241 -1.1384811373832846 0.5719928060706407 -0.7662111106606998
Ni 1.714357787868105 0.22145564596392536 4.507384261407985 -0.4440955933053191 1.632312150240518 0.6272938926357906
Ni 1.2362338974271274 8.421953592485739 7.475094976539115 0.45517370549635155 1.1380119110563498 0.08310345348939882
Ni 6.947225307970147 2.6899210024139597 7.16215265112765 0.4769440072939077 0.009454203434364363 -0.4224890707791369
Ni 4.57765626388153 3.961740333289724 6.512034652355348 1.2509905548386262 -1.218064750644883 -0.21155216788281633
Ni 3.906839466177188 8.215556232766144 10.587330909270277 -0.773181628441262 -1.17532247458135 -0.692029642251279
Ni 7.406255250847528 7.983900229024527 11.970336262498003 -0.8967136222593525 0.4617336181020563 -1.0337197393044777
Ni 5.104017981250936 9.06084870598395 12.3300546065759 0.17296453741760534 1.2289518298710318 -0.46230054634911993
Ni 2.096301339252628 7.869262714942846 0.6130615284741542 -0.2744619200331596 -0.46105099021273505 -0.05823291549996422
Ni -0.002463110007116465 6.2285305982503685 11.212798427937635 0.7021739297741326 1.396581328228969 -0.4085359510331545
Ni 1.3466078040779814 5.655333799254449 13.195810549744175 0.19115406384243855 -1.049346132987825 -0.8709128591461647
Ni 3.1111045079021147 5.227007367031533 1.0930625136151975 0.7128422081212562 -0.4813357086037001 1.5756141833278412
Ni 0.886908788605936 1.6824361036619762 2.546672098466924 -0.9976049958597916 -0.28573492184381755 -0.27133982946441015
Ni 4.434317842635621 6.965027253281979 12.750944642981153 -1.2220607591781534 -0.5203617121579103 0.10420526846502053
Ni 4.452885760710999 4.551483989695758 12.64209253041113 0.09973026341280243 -0.942878550851189 -0.4392958579238305
Ni 2.3933511141086217 3.291080421573097 12.915297480852034 -0.7273247180081475 0.10726745233011203 -1.1794066719530527
Ni 7.08909638380155 1.1921212491168363 10.974778390247321 -0.5875652065876009 -2.1045489818667438 0.5556256775665269
Ni 4.4988718122863505 5.272799618269119 4.589952433883335 0.19943738689715332 -1.6215999060293365 -0.15443048316915986
Ni 8.534690017539821 9.26550186266366 8.863530430659265 -0.2649609225212598 0.12555622333697083 -0.18099434970061734
P 7.357583680306006 2.3920591118568564 9.285839823823958 0.1632172282228544 0.6317131047494089 0.2016271954596205
Ni 2.651031734635808 3.610149606234186 7.965222490757749 -0.41098569812522767 1.2057746204236202 -1.1359791968970372
P 2.7709110864246536 0.251730027299053 1.961806673420057 0.5118796428288281 1.628261891430544 0.30587874378154417
Ni 0.9940203895710813 8.416121125177767 2.6353043757968124 0.07729430300678947 -0.6873317225549774 -0.9297217017542568
P 5.130061055211532 7.235544839039209 4.402772684800007 -1.0223505782355875 2.006244138046558 -0.34274142113584843
P 1.1848952650944602 4.198831975076271 11.298459100088463 -0.4146029831628408 0.09080802122250813 -0.2641980762133063
P 6.189779759284906 8.21886006709566 9.981030244007862 -0.27062866232999844 0.33044229205352127 1.914740633418922
Ni 5.949744198081835 0.17634446448476948 8.219383328007625 0.932527032413536 1.1253803383352683 1.5094139333516843
