# total energy = -381173.5188078119 ev
CRYSTAL
PRIMVEC
9.25388717162369 0.00000000000000 0.00000000000000

0.00000000000000 9.25388717162369 0.00000000000000

0.00000000000000 0.00000000000000 13.54399927291871

PRIMCOORD
 96 1
Ni 6.457362310756479 7.848332565348666 0.5698904482794439 -0.6075308510762505 0.039379273128570896 0.029371254073265546
Ni 5.0064176148687745 3.055911086100763 3.989805028169356 -2.22110325881542 0.19145179758851547 0.05738882233211407
Ni 2.0235844739787368 2.3622212128721483 2.1284125053003895 -0.5684763082769501 -0.6695227193980147 -0.08697604907092762
Ni 0.7727634117915022 2.8474117593256776 6.702301593546608 0.8764049926089875 -1.0155582379041026 -0.31096052917982575
Ni 8.916480973837759 4.704870454853999 5.827373419096444 -0.321266281981208 0.3738085748542982 -0.6356774887137955
Ni 5.022639678684705 3.1740276990765377 8.800727803587932 1.439250070742089 -1.0030068836016532 -0.9480688368028769
Ni 8.665219435486282 8.025775847533756 1.2754623123464237 0.6852972086234521 -2.248068217440038 1.3020313234655252
Ni 7.0273184616332385 5.727443470135186 7.200395759957314 0.6091071944244348 -0.9059425970567881 1.0957656007926289
Ni 3.5869361345966784 7.65216866987229 10.148761873529146 0.9527698418229722 -0.28241331366975236 0.043988746876124245
Ni 6.055836156179633 8.311508114758215 11.609590646063626 -0.44819367463409265 0.9443942161647672 0.5566366353295445
Ni 0.03050173676194387 7.856975695756012 3.8382069268351 1.66556345609448 0.5528969657814542 -1.349493630712547
Ni 2.595474687227161 1.3645318995881295 4.630774582079239 -0.25090624420040664 -0.12668056674940117 -0.7470059984871587
Ni 3.2029923652167893 1.6645244065960163 -0.14127076350277942 -0.22439894193849738 1.8184281374384166 0.5463054286068656
Ni 2.5938182414638686 9.280445601301734 2.2783439815957127 -2.4883609477906563 0.059327177005407496 0.8258601897819002
Ni 3.0349973016033283 4.178435334283184 8.32075552398312 -0.7421201311497672 -0.8803171831792 -0.5738681687164826
Ni 1.7775328739777276 2.021465333868156 8.78968976723902 -0.6430331577479184 -0.18431955741910835 0.3590211321324785
Ni 9.139323825378783 6.159618498276414 11.026982580954614 -0.3009625374268494 0.024030815696958613 0.6033756912572963
Ni 6.777028581411067 4.800370568134317 9.61648292335208 0.6938880356162566 -0.11366101456128165 0.18053283668316653
Ni 6.683878955414973 0.20668001260154703 3.092420446267899 1.1474748562414625 0.14110419837389893 -0.7269130843920255
Ni 4.302252341617551 3.8571033639783567 12.95814015750772 -0.5846863423779092 1.1298257757011316 0.7535072899407862
Ni 4.15253370472198 6.45344791657842 12.420998289740654 1.30300397179144 0.05432715268765482 -0.5733007262487868
Ni 1.7603391520324918 6.119299312853705 9.667083177171536 0.7132870089681586 0.5774348030218184 -1.0268705775931284
Ni 7.887902185928768 5.891487124022804 1.753744832194938 -0.1303806413088077 0.5966064908542629 0.03528093468948117
Ni 4.876826182080248 5.13358452927751 6.796676434174321 -1.0245169897592872 0.23170678845382028 1.0597508732609167
P 6.533003582651181 2.1900804079069833 2.1107782983365353 -0.6745371418934705 -0.7800241052843921 -0.09038456053184434
Ni 9.198548701831694 7.237761104666935 5.992732050319056 0.363878974445412 -0.5054657688826844 0.8255894526190168
P 7.543426244372577 7.761318266397616 7.234079908439909 -0.7829708466175419 1.3682940512485016 0.4452248218137558
Ni 1.8624743022529264 7.418248915657181 12.277716656604559 -0.1731368013294115 0.16688002178642228 -2.149228327051989
P 0.44184533999955516 2.3464896050643436 0.47427558680099696 0.005622231282783866 -0.9307979655375712 0.10472617396549706
P 8.356916938001095 3.473529750076299 11.59588471410825 -1.3963267890160016 0.6753904910327013 -0.7453934025844001
P 8.778949706049763 1.4277914707493953 5.438525089635299 0.6108020656283546 0.8950714586702392 -0.24976467439679564
Ni 4.820710611641115 8.219219100248077 3.60180990708461 -0.34496748225288976 -0.8884351843006442 -0.16647790125199718
Ni 8.567044948878635 3.280632476691778 2.1313376589639463 -0.3376665777161023 -0.9315458994471892 -0.7881469915018426
Ni 8.620153006060395 4.517784622471419 0.02604784097494603 1.3867489155195796 0.09713833431591012 -1.5096800425288774
Ni 1.7542686021960683 7.575278123239908 7.569903465701806 0.8479012287423398 -0.7456515413417932 -0.8711547999536416
Ni 3.219158905711045 5.613361551867765 0.8527438312750751 0.12249275392029871 -0.6891656904399228 0.9560096889165084
Ni 7.024347963923647 1.5758444079947276 11.984583130600875 0.31830205714656146 -1.441137774683105 -1.3810387525086796
Ni 8.915527823482343 6.4438238741548215 8.487631792664839 0.5142640839006046 0.05745181435956557 0.23298334117339872
Ni 2.634757437311943 2.759037138993599 11.110724705481642 1.1941362648537435 -0.04791327874151103 0.30715606783207106
Ni 7.090874157176769 6.166577421259631 12.344136430157805 -0.7257617443964016 -0.3990899751289062 0.8081105791079631
Ni 0.8707685522680408 3.968001945136433 10.221412289162977 -1.3994277965388286 -0.39410871986423096 -0.92256220789134
Ni 0.27543916877468244 1.727552630583638 11.505938783772782 0.8971990465362032 -1.0243521820466488 0.23034384666802268
Ni 1.5888091036057477 7.434646803325081 1.0214449664624983 1.0726539544758302 -0.2795038533324412 1.0237353743982565
Ni 0.006239895967530946 0.8023064458658645 2.707960309996436 0.9050499100391897 -0.17409839391173243 1.0957766565362226
Ni 4.485266463743993 5.4480686232424675 4.534287079061806 -0.10233839045961084 -0.08855342086037653 -1.5833223506053764
Ni 7.442512607228983 9.06037891584444 5.402728278762986 0.4685966637704769 -0.9361175779782717 0.038753466619113906
Ni 1.4123004640021806 0.30783147463964655 -0.006683157152233203 -1.7268747534094517 0.5118870990279959 0.41604228671252863
Ni 8.720363347796109 0.9361787267555031 7.563984679611294 -0.1463243091222577 -1.1421125634882847 0.2829779279239707
Ni 2.073860841755091 3.6552760896911702 0.04023404966280742 -1.1436750228793982 0.7205015244387268 0.14674339893754726
Ni 3.8574457577953503 0.987454514322 9.226172479753503 0.14020714048092628 -0.08500889804222779 0.6007426245098234
Ni 6.154593637664862 0.88077292944511 7.306215807959554 0.09608083958567325 0.5645258082696342 -0.7730494737387719
Ni 4.625046426059809 8.388815086303156 7.840403835013532 -0.3908755576389139 -0.6916167230835767 0.10939015510006966
Ni 3.5244538899388567 8.856247423707758 12.719751701286501 1.8821984378168426 -1.5231119996640672 -0.28993276197524903
Ni 6.87871029117116 7.642202233631698 9.432501770039805 1.3853018986604078 1.1982130060262783 -1.5466640759523944
Ni 7.247264846560237 6.8366513750026465 4.044373348711157 -0.3739934371715946 -0.11556723044505902 -1.499551438735308
Ni 2.9491397385204983 3.5602386707581393 5.764705171311013 0.23309261305775342 1.064522583617947 -0.6188940986078696
P 5.549102560916357 5.373843196050468 0.44224233174952865 0.1665627476563196 0.1272428670107744 -0.03758515734262559
Ni 6.169714488934246 0.8314062187555247 9.577177963938627 0.3695706255135506 -0.3842763071548414 1.2723237690987634
P 8.631840665272899 9.011046444536555 10.293371439441959 -2.011857627578593 1.1229496174065885 0.09838763334197893
Ni 2.185795858251093 5.165399392597058 11.764209216096981 0.2570390965710218 -0.4607745966228968 0.5994107930722774
P 5.706631478394155 6.405919953224958 10.569885909879739 -1.6760116480109974 -0.9236225308350545 1.2946319456776607
P 9.415459811840481 6.612670295367293 13.247114061329283 -1.676640282733932 -1.0636772048985166 -0.0077364494123092565
P 9.143737929451913 4.2260743442799935 8.106814911683925 -0.7870810121311734 0.024634253608912415 1.7251852815221709
Ni 8.654216563907765 8.594316153707812 12.359846754025632 -0.540473652416437 -0.6121284977492619 0.008128799754721484
Ni 2.8156894348755874 4.197155947574471 3.266027066925273 0.8512812009581661 -0.08521124386102098 0.40930239688553377
Ni 4.462150254153466 0.03642237362984584 5.513220614284143 0.027151106493495177 0.013925351831840533 0.47800844400268006
Ni 5.364135868644358 3.288775897204053 11.221785229661268 1.7165355762669727 -1.8628488296456371 -1.5904147386757836
Ni 5.954774456844907 7.24706126104743 5.715147830550345 -1.9879584523634928 0.19876452919984477 1.3878259506338422
Ni 3.3142703557396422 6.863672724884288 5.913323521048731 0.4226662197869495 0.8117849426357568 0.37491492054459946
Ni 5.388529114633401 6.317184431301995 2.3950937954695974 -0.02961088088789739 -0.12786995907181203 -0.31665500846144173
Ni 1.700623819571455 5.589458761886848 4.677162466560981 -0.979970313497164 0.3577749184302032 -0.26064995385073175
Ni 3.820707826620654 1.721074909721601 6.983814088323796 -0.2200874590473371 0.22392560184650467 0.6354777139981636
Ni 8.069222846744134 0.6748202723575002 0.8094541481427753 -2.0132637638975 4.2788460789619025 -1.6932573224653227
Ni 4.065695229622899 4.83584997068439 10.19088371612889 0.23518909057546591 1.9301405129137599 1.0008253025693024
Ni 4.009524135862091 7.8579751155461555 1.2059924576558534 1.2278434272982015 0.5284074652805222 -1.2774695749657612
Ni 5.327666300191089 0.9751468446841294 0.2618248503000694 1.9722770370724936 -0.3609049794187526 0.2301895804783455
Ni 6.708901465716329 4.651780905446131 5.152732672145691 -0.8644023117211564 -0.4516443521868544 -0.5745407693034751
Ni 1.0988898209229307 8.746635132835143 9.244158334421297 0.1446921728354734 0.5577974884068653 0.010446906364936847
Ni 0.42249453700726103 2.8429698935917096 4.1043737008901235 0.9634882566817407 0.5444593765370622 1.002996342078692
Ni 4.262516151072425 3.278383782163956 1.7397538805216322 0.6779423109202776 0.18141266818495852 -1.1208585392055148
Ni 1.7683160025797433 0.517000782829605 6.810138988903023 -0.08127977001709873 -0.12161240819787443 -0.2870492697798669
Ni 1.012282692997494 4.971021497301215 2.0956629993993188 -0.2188710701417327 0.9320115262296981 0.15273329797239502
Ni 7.425328139170694 3.1377061928144006 7.231534164141127 -0.5173568638933155 -0.15832493312755958 -0.19931474527635998
Ni 2.8190671036107924 7.020803725223418 2.9366775289706335 -0.23964764056745183 -1.9686777497570096 1.5076689256361195
Ni 6.522713260367489 4.276230411526053 2.7249717303688406 -0.40243395190047465 -0.0637978111822514 -0.052918188155270156
Ni 1.4668706353213707 5.26364791030027 7.0667437215769855 0.7297883490572915 0.7303624763932066 0.17215952501780674
Ni 4.479177406133678 1.00759097231599 2.4566376959911183 1.1496281551390393 1.0427990758979266 0.6104215423604843
Ni 2.366274415354394 0.3707838167543129 10.875803680699 -0.5096993473480577 0.5962421655363086 0.9012703883920995
P 2.3796555358779736 8.344035527372588 4.60974049705151 -0.4147071128408729 0.8728072479554 0.05560421962786553
Ni 6.650250330254054 1.9662566443497076 4.952268495405616 1.4361855728841526 -0.538920191886388 0.5113409967165388
P 8.587338722950703 5.1879973845186225 3.786943169321632 0.769592368428107 -0.657224618756952 -1.2636843482562108
Ni 6.708466533029878 3.1230202742314677 -0.027523835942795925 -0.8308386168330981 1.352369409598445 1.7935318884173692
P 3.5691409099999674 6.387227101594508 8.26097263814738 -0.31349692244843425 0.05606470420405184 -0.32823628554113793
P 4.601051097209433 1.2125182987300087 11.697464631111938 0.6429208005397702 0.19266150162590046 -1.2593463830024891
P 5.30289364483727 3.103115163411122 6.234762836442129 -0.10693012359535133 -0.3232668573510046 0.35527940570185906
Ni 8.04566245058021 2.3802385307555576 9.46181068077444 0.4065024655428935 0.6756707412772816 0.772909862837114
