# total energy = -340854.78555318294 ev
CRYSTAL
PRIMVEC
9.43482694131521 0.00000000000000 0.00000000000000

0.00000000000000 9.43482694131521 0.00000000000000

0.00000000000000 0.00000000000000 13.80882291553364

PRIMCOORD
 96 1
Ni 8.609732437185091 8.903061206161718 5.00765892808286 -4.340334782395002 1.2996139722732845 -1.454449661300663
Ni 8.107327903637149 4.295620088209878 3.289261822533555 0.09475517879571423 -0.4205229481917016 1.513440280902258
Ni 4.942066124362071 8.891484673529543 13.039740313093564 -0.024781320709737965 -0.8996644773575603 0.8818611306275521
Ni 2.5983702037215006 8.70676963206848 13.315157063160507 0.18954352482220904 1.1662482801942236 -0.42031983104195997
Ni 1.6093456020646002 6.285953436174937 4.920525471018535 0.3301612704779927 0.3712755240197993 0.041824135124637646
Ni 9.319391813708572 3.6162276364492465 7.94754344883237 -0.1669270729742738 -0.40787260641754275 -0.14087434175127997
Ni 1.5019300975680123 0.5836836805077301 1.1774890433364036 0.10438138903156861 -2.114875817714048 0.06414465299870888
Ni 5.950535904303334 1.9895219528498445 2.0611190804232136 -0.6442513464257356 0.0963898861856598 1.1902071050026664
Ni 6.927502797155085 3.7229449637536742 10.477306421631795 0.2225580320750167 1.7849629158014355 -0.2137095805454513
Ni 2.0462818716071105 6.950457731054092 7.323454178552388 1.3665199900672145 -0.8037625865519125 -0.014731135562587535
Ni 4.394478204689039 7.433171780817721 5.639992350126488 0.021901942279413892 -0.7624228472628611 1.389451144942091
Ni 6.540901329236579 5.794785781490012 12.216499772680562 0.5704982238029852 1.1178634611329328 0.6968566313262773
Ni 2.5932376578764287 4.196846885173008 11.189633967208561 -1.0778257284847568 -0.023934142218094263 -0.276992142654181
Ni 5.527242394488717 0.2140724489087202 10.281925308336442 1.9960551133286981 0.5225777459726226 -0.33900329424965486
Ni 4.476372502364084 4.530339712352708 12.531105963329628 -0.11711066367277895 0.6182685492087288 0.5941204912076156
Ni 4.736028374059349 1.9840497532356134 7.933555374439164 0.8762286149321231 1.1319767606058635 1.0093171420903972
Ni 0.5145405514165362 2.528127917294 1.3320598127845895 3.07388444135788 -0.532781940199134 2.845221067716074
Ni 0.8574483923807904 8.270984411410343 9.029519965315831 0.3134210749051764 -0.04175728644244422 0.6006058418216431
Ni 8.880813884281793 5.063152693067316 11.025392500166259 0.13328495943979624 0.7357641070247523 -0.15612818258655692
Ni 0.05200193554096119 4.358484339985089 5.586110997062846 3.2448702577825603 -0.550327148171749 -0.7258370777190274
Ni 5.878453826626221 5.362265010946571 4.711928995654814 -1.1639085763174535 1.6617661938355768 -0.9558199415032054
Ni 3.2884711840375678 8.938904113634932 4.2455777662204275 -1.4723735927689352 -0.05338407204809516 -1.3913460479719588
Ni 2.6904729841251624 6.510351359666096 10.17059812459837 -1.7733502712631717 0.2211444395569417 0.31394275173660124
Ni 6.585612974015616 0.5354386930467462 4.138380206225717 -0.2988478050766918 1.5250097309074124 -0.5100734428580248
P 8.318224589804231 8.697193282743577 8.292225980740481 -0.4889364037690935 -0.5241432906875295 -0.22727729192755697
P 8.548764585621019 6.276122346523163 2.443982469915584 0.34859428037219964 0.09683905790793644 -0.9866322988983719
P 1.0891469849434874 8.5350652169316 5.060463767394805 3.8925612260174636 -0.49522120833654065 -0.1935207643024022
P 2.176142829348967 3.8894790937377994 0.25692448930161016 -2.1403158550537076 3.1803569085905226 2.7196249922801035
P 5.058180539279902 5.791266591048446 2.623717809727696 -0.13871050133074175 -0.8855722609305522 2.2038791816276495
P 6.516493431991724 8.218602252344462 11.728606946419946 1.188795055146488 0.16729654049855058 -0.32387312347643576
P 2.890698881044494 6.747910866712172 12.646561827328366 0.20896280988908528 -1.3872525946288754 -0.9995896303899882
P 7.979948305375539 1.7132796554273064 2.816364710181317 0.27213738566504103 0.3487639731808445 0.9818844998007411
Ni 2.5371664814844026 2.1812093314055914 2.8944945119148477 -0.22662963104122905 -0.5838558760568139 -1.4171984902586885
Ni 3.844729709651079 4.361588398042127 9.104695722740368 0.36195218973634435 0.6500772090788933 -0.7273085200582312
Ni 3.5615622492684627 0.06608341472068517 11.198664983537427 -1.8155554438763117 -0.9690125289340794 0.6522935000039217
Ni 6.680008417361101 7.1553633021262835 9.806239261146331 0.8141351880354882 1.5157432180038217 -1.169833940662953
Ni 0.9082530483854656 4.924687173173427 2.050665292194648 0.23155972135299474 -0.028956278023034004 0.042083045212979134
Ni 5.961376520435664 3.7165575859280975 0.5565066615615359 -0.08269181987327694 0.500176752569603 -1.679821508675391
Ni 5.855734763400241 0.0370496218364208 7.809482683013396 2.0491530215949423 -0.6974317871034569 -0.8529578173296407
Ni 4.885843990739307 2.8267496241733587 10.606750360023739 -1.0047102394460052 -1.185089581270443 0.6593843454124321
Ni 3.0197956178057423 6.462809266810733 2.8852983861148633 -0.014436744250620298 0.604248837890869 -0.33001677448032846
Ni 3.3660443309827537 4.185704354579202 4.146693232225887 0.14566713515423302 1.9019334543519244 -0.9559119869963796
Ni 0.7529935365720402 5.421081721972635 12.953959810209723 2.0055599674953393 0.18582596676130578 0.15425384838197953
Ni 5.181455987830839 6.258252784334622 0.6638910311292842 0.17148101089354337 0.6739172489212846 -1.536480450551173
Ni 3.84256913428615 4.120547439862168 1.3871790151402785 0.5845125358042063 0.539394046199013 1.591506943298698
Ni 8.705429886645687 7.591799525841975 12.351508371990564 -0.22027514957811095 0.5775970396312956 -0.8113468266570736
Ni 6.981970052970526 6.8234460910424035 7.238916242374055 -0.8153909148194601 1.1119362970152205 -0.9635833874987083
Ni 8.227036987611916 0.34637891378852265 10.752516548989165 -2.4111792591023313 -2.394854553800379 0.12095857666395941
Ni 3.746220681767998 1.6152423688902802 0.8239019217801697 0.4909616617292384 -0.1538177892858254 -1.2270013910128803
Ni 6.878177522011636 2.1292989136857643 12.286372213892756 1.7595832993860663 -1.2494921159162287 -0.1887850493896297
Ni 7.4377004977398435 1.9048066419253944 9.408931151637773 -2.455725935364455 -1.7297412763239697 -3.534653381553822
Ni 9.26986840719978 7.3755061186760305 6.473465903818102 0.8608359345261368 -0.520139311734459 3.0273968393193025
Ni 8.39278802696159 2.0913803442899113 5.232328574589346 -2.7426494781997346 1.9183468627129412 -0.6059267398139242
Ni 8.14132158503383 3.50492498326117 1.1333963232033906 -2.061213552303902 2.4962208101547074 -0.7368586256405115
Ni 8.7976458849724 2.6673010492069706 10.776295143278384 4.248173589578709 0.3210217700705697 1.474656218155525
Ni 2.3740383240187892 2.3278548462400632 7.734141816117739 -0.33207468545062163 0.9271441708350678 -0.1255636795361386
P 7.584780014612686 4.618989346103252 5.6464410543270525 -3.1616094527796905 0.4168506415464369 1.0083347235724698
P 3.4049158178976366 8.45538810358301 1.8139266150907056 -0.4534101858380256 0.6729939657760667 -0.008567172843720728
P 7.636690432332513 4.010980794827572 12.616003366413654 1.027837826602404 1.2030708483392119 1.5632821441250497
P 7.235389504070952 1.9997210007515407 7.293903357152848 -0.789017567032254 0.3093582176897124 -1.1418225430516915
P 0.45314530219293964 7.006406254696144 10.84513164049464 2.233329625678283 -0.740132668406093 -2.403976827816621
P 4.289223275557381 2.24007321656626 3.9042927154866 2.123382826743795 -0.18397220138201864 -0.6121176991159846
P 2.335015879873169 2.5629801679404993 12.645277747384407 0.8619805896535413 -3.9840050810517575 -3.510664989059025
P 5.753782023690963 5.32557296905046 10.268116495654738 -2.807019359835372 0.16019798178055636 -1.146510178335348
Ni 0.5273851247869055 1.0745230032158009 3.880914157858836 0.7604821785967226 -0.5408143235853073 -1.337504833781787
Ni 0.4728414468734031 1.3945617672060298 8.958570066869248 -0.8297376704594356 -0.5336046932107454 -0.03229768369144115
Ni 0.8515497385897263 0.41715992883321756 11.250116868668888 2.151200106066379 -0.27632648404572413 1.6638927532602763
Ni 8.047935668168899 5.511174884242104 8.745417513585334 0.48922488154378974 -0.8974777541188865 0.5141018472911275
Ni 6.036072045169919 4.300007282728185 7.744319163917517 0.6572598428702616 0.28788822074139453 -0.25280783209849367
Ni 5.552206946521916 7.9574745476495075 3.5781005573784377 -1.4633305087300603 -1.7353215986252242 0.20779964281891955
Ni 4.681032767936327 7.214859320690664 11.070547581810589 -0.36665628008023304 -0.833691512900861 1.7420110948302583
Ni 1.5096572208163834 7.231955227071675 0.8947829459902281 1.1133601739459404 -1.6387481356738487 -1.36867071786163
Ni 0.18781249513925574 2.9631489169715293 13.037834478055503 -0.6264035196110374 0.17108043302101505 -1.8354886924651292
Ni 0.3686451053222905 1.0604745459303007 6.442879138422627 1.3049585244146493 -1.1360601866466178 1.6432905036288927
Ni 2.633599847444844 1.7048732246406169 10.071755103842284 -0.6438309710588654 2.251620967788303 0.6364210517480394
Ni 8.382173846675366 6.22848590539859 0.32125396969766506 -0.8816132762828043 -1.1853564617785843 1.4180101875267062
Ni 2.0136279356332247 2.8081818847926576 5.529384100199804 -0.34545393497100507 -2.0217954555175957 -0.9767834311287501
Ni 4.3637301037532135 7.90200720018043 8.845158729864309 -1.3201241764114942 1.3850280761737306 0.24407610865245058
Ni 0.3208794070688979 8.147671223551722 2.35335529644238 -0.5190036554681191 0.8722678305121623 2.7123873368810836
Ni 7.889713620702253 1.2782397860959347 0.6832965831405782 -0.032950229673775505 -1.640406497212878 -0.7312801031114696
Ni 4.129567134398728 3.6612034563820735 6.352832206805069 -0.8010076495145947 0.6781621402405675 0.9115373175357462
Ni 7.418802539416904 8.226414289035123 2.346243323909264 2.2756576970225324 -0.788867671717951 0.5426320935203365
Ni 7.112897146154465 8.293514778097903 13.814760396595574 0.5946547664445306 0.11166069630180124 0.052653621639973835
Ni 5.9565741935328305 3.0662998796997853 5.094157421295394 0.9156395126295779 -1.0421701840646762 0.156412289485879
Ni 8.588343684554983 6.462828136464575 4.516230872174913 -0.9265391902612172 -0.30673826356836204 0.16677280678459663
Ni 4.318093845935911 1.1243011500514617 5.632052943272393 0.6596915922402058 -0.10628374826060405 1.0946947363259534
Ni 5.649772491712889 9.058584893128934 1.4956889595597125 -3.417180192335302 1.3060502148169313 0.10728673560382168
Ni 2.5199290526995743 9.401805026864277 6.700703710212509 -0.6580831101025054 -1.0663658074742732 -1.2931085670545988
P 4.793410991393407 6.354742759256589 7.620054002022558 0.06850832928404331 -2.1429430082639094 -1.2207584954269621
P 9.311891126306307 0.002605899195604529 13.331120790310989 0.8251014572390049 0.5684822218142209 0.35937928680284553
P 5.029998711266612 1.4258665229302003 12.442867688032843 -2.9698213548976793 0.5382452773065504 -0.005851830795086696
P 0.9239082566956272 3.2541661533524913 3.7101683211371363 -1.1526988236445632 1.354608069120977 -0.558215035560258
P 2.036101693359256 4.666182350362535 6.494081944123371 0.8308468443632142 1.6365002201799366 0.7545879245994747
P 1.452944476193723 3.5622226871529383 9.406860207128595 -0.0848443474399055 -0.2239058043521628 0.4622617226913846
P 6.391972586287203 8.424102217512681 5.602004906494111 -0.15306959826589123 -0.15467113842505623 0.7339748763348133
P 3.2709601452720283 0.491873379738622 8.5260502398085 1.367805284537541 -1.2982222341320802 1.1651362780769676
