# total energy = -381168.41769403615 ev
CRYSTAL
PRIMVEC
9.22632402533780 0.00000000000000 0.00000000000000

0.00000000000000 9.22632402533780 0.00000000000000

0.00000000000000 0.00000000000000 13.50365782220381

PRIMCOORD
 96 1
Ni 0.3610721984159588 5.129024350729844 6.192926558852029 0.6277957719728737 0.5121128418855567 2.2657214117454267
Ni 4.198014426167239 8.903043047289177 2.5672883763232295 0.32188720339465854 0.8976788143860992 -0.007777329952573702
Ni 1.7130423919175328 1.680122867094532 10.678328067671098 -0.1932762523917639 0.8599298777720997 0.2875544915510596
Ni 4.853618572712306 7.23471142254997 9.841006852417673 -3.857961119445091 -1.5458284674249765 0.07370401455236984
Ni 4.203956178966009 3.668331152599839 7.7207034377655415 -1.4939490049468658 -1.0009255755925923 0.854046165297813
Ni 5.428178687294021 4.668473924555591 3.7948249803116734 -0.21259757842819516 0.0948881048291527 0.823914378909439
Ni 1.8402549502862369 4.396915523738498 10.677841840384612 1.4781668024119445 -0.8230008659562342 -0.4497381363030771
Ni 7.913298342731274 1.0311709003133056 6.309138570851208 -0.36497580705401655 -0.48784394203586295 -1.0890156836633051
Ni 1.4282534421665323 0.4432215440210696 1.7562049818914574 0.18678884489520733 -0.18574677678393817 2.9337163816450054
Ni 2.8015272182959956 1.4216012624026917 6.49303120681104 0.5858803626860104 0.3062896060667177 0.7769076711425975
Ni 2.673069106157363 1.4264543089433022 3.769559614062989 1.0383978615064375 -0.6635832139851281 1.0098010237053512
Ni 3.993494497144969 2.8878025760930477 10.164473475938433 -0.015192134359406095 1.699712334062047 0.7583538193998101
Ni 2.514468592786459 8.626419394474375 8.099399760709778 1.9606170842360622 0.624329410690828 0.45935946144292494
Ni 4.037670137518434 8.030158965323238 0.28307193081334325 -1.2302589787182299 0.8881096826404253 -0.942150928656545
Ni 1.4223485946646488 5.835982217892855 2.6064762658224487 0.9105088762712319 1.6814305050337235 0.020366993692126217
Ni 3.026437323848208 3.6367309921405404 5.576011157665787 0.19085401610351646 0.9249415067567941 -0.5326510710482245
Ni 0.7659205373665846 6.0773520858565675 11.83000122074667 0.6358620939207759 0.39543823730893185 0.7291779691668022
Ni 6.375057889517938 3.381872238164712 1.0156882056368823 -1.0847754203297124 0.7061660816526613 0.9838174551573958
Ni 1.1116244475264692 8.80862084520437 11.764373453925344 0.437063369048886 -0.5207399214329355 0.5855132091545786
Ni 1.5343469443917812 3.331597997480707 7.782927613581485 1.8650129271764913 1.0676320757812066 -0.13702591453946725
Ni 0.7057519865872354 5.258312832048429 8.936275344503294 0.2341907312179386 -0.35069307188275733 -0.7308165332114898
Ni 4.9304277218579005 2.442041947646168 3.1278254007203934 -0.9091819299296923 0.35474693023715675 -0.2618429457175684
Ni 0.5148362726298513 8.329073417457652 9.648822518879806 0.8772130903325795 0.2164372638892595 -2.200503323176881
Ni 4.493985680874931 0.32233270827391386 5.099588685932956 0.9202320170962668 0.5298889349220551 -0.5933748712908425
P 3.700475666188218 5.213131522334798 9.303250545156292 0.12116940712318486 -0.3139651203341044 0.04104071999139384
Ni 8.613880819857094 1.2384956318989708 10.644556030490012 -0.5808253167606061 -0.8535926227001622 0.923395502425913
P 4.200828455054856 5.786778230818565 5.696841867570346 -0.4219540242112733 -2.5780829350378376 -1.2271579711954028
Ni 0.648760059237415 2.034266096019999 5.5029967956725745 2.1027237557325464 1.2475331924176452 0.038766836355552586
P 7.160467191538006 1.1556616930366104 1.2788746398552107 -0.5974320720793517 0.11383327847308781 -0.48494528033182926
P 7.61148682479125 4.666481038523705 8.653387017541963 -0.057355140880701226 -0.8928088878883075 0.5076892588965644
P 3.8695203785780783 4.300177514274046 1.0140413067633103 1.0764597013751656 -0.5026843494828053 -0.47104949618634356
Ni 5.249003470908741 1.0491161009244987 0.34698175606458903 0.9142912261317995 -1.5254357627012374 1.1599120535635508
Ni 8.152389308612229 1.9002352840514638 3.086652928881088 0.8280584829847998 0.6578781931805509 0.47668124055082417
Ni 3.5669892073487626 0.7068185496672631 12.373793389313882 -0.6455240424905722 0.9135864867552911 -0.18169677508428062
Ni 8.612423060630068 3.0209292082878574 7.3006178243627895 -1.5239509506255948 0.8718867930236597 2.137114831617907
Ni 5.518845775420599 1.622338398494068 7.008696003355999 0.4392981719166757 0.40404243403817514 -0.5604632081644864
Ni 6.567149959813588 8.497204723749563 7.179071151698627 0.47019331883363535 -0.3740739127005429 -0.7592832731926149
Ni 4.003191363901967 6.501181741628483 2.0608609755890295 -0.5571783667656275 -0.9693352023808209 1.537362081825178
Ni 0.13945865850815745 5.223557268705312 0.8319155118919331 -2.0136350311939903 0.8733682626651926 -1.4655712251351212
Ni 6.437132598881489 2.7163682457297686 9.19296644646955 0.21342804474929047 -0.6994750427857308 -0.11661418365233465
Ni 4.522651870231732 7.601042625772293 6.472870765754217 -0.5950556014273752 2.0032760565571697 1.9716566298796756
Ni 6.232963270179644 0.6810429676891191 3.2507892367850078 -0.9744954064255218 -0.8252210135360045 -0.417104666538772
Ni 5.758112041461765 4.751769179629036 10.218353364128278 0.1452308189477628 -0.054855771497615204 -0.5786488779345776
Ni 5.240911984566316 6.107937350651481 0.15707355671221387 0.5486718719565131 -3.078616556726227 0.5869620257859633
Ni 5.108606495227238 3.4197555254189838 12.50973497302873 -2.0615153998150366 -0.5388489723288203 0.3595605495757162
Ni 6.020591739244712 6.6382849195628415 11.702188951303555 0.8245856939448508 -0.2143073620304503 -0.5934764298657134
Ni 5.755307238898371 8.875825390835182 11.861181583453881 0.593849496934416 0.554479993997858 -0.2786430479940427
Ni 2.168223097394761 6.107236150010632 4.813392721738146 0.7840070011915401 0.2993329722432264 0.006709293699375542
Ni 7.522259043243256 8.494649031940154 4.260282888339446 -0.7253472825668025 -1.1212904845366107 2.3946882034258437
Ni 1.453911849827061 1.2997584247310128 13.293352522884943 -0.3837888259954616 1.0530881165287604 -0.8795239978539433
Ni 7.711638574217728 4.355083369717342 2.7311958713864515 0.807988708818118 -0.5478483476139533 -0.16342317358607336
Ni 3.4715428832753474 1.9618209982312649 1.1215962587452752 -1.5324175933357091 1.0772366887505058 0.6344377027694235
Ni 8.666184851869874 2.6283214336821517 0.5694219746226541 0.9471609802766269 -0.377989188594549 2.1019740220507157
Ni 0.7436546491223728 4.245456185315184 4.18886191253932 0.45524646771581595 -0.8596521986306807 -1.3316761429151518
Ni 3.0293159370053764 3.9384225678656826 2.991033149912305 1.2337996448816364 0.2485778531775461 1.7532571000577224
Ni 2.3443444004626603 5.701296336904579 0.361798310132206 1.553307549410841 1.1699298428108689 -1.5866138768724547
P 0.23187782560443487 3.746136744761377 12.5827225786817 0.1435099796019141 1.2606802713225642 -2.4590010065713006
Ni 7.740277084601863 0.6312272753189317 8.601478794838295 -0.0009623639132693104 0.5149731941524873 0.1331232370509514
P 2.8051162584182348 1.839535296996945 8.871701223908087 -0.546336024734485 -1.8076567578545257 -2.6523747037728773
Ni 2.315908869211402 6.77282317936357 9.875225443691088 0.32277654797814737 -0.5547874979359477 0.17480750416361507
P 2.890053799203141 7.453495248818977 11.972356945060437 -0.3808950493874343 -0.45705138213503865 0.6646044561607909
P 2.426744702086601 7.87452932835172 2.9664699069368914 -1.450171088529967 -0.39004663397971534 0.5837129227210464
P 8.237492923233125 8.225231138342496 10.946483800115228 -1.5077843681680612 0.07639415979002326 2.8593960736648754
Ni 6.947320649368452 1.9692481892297278 12.712667974284868 0.8521885432637839 -0.4831617060688453 -2.8513703751469217
Ni 8.537210065574826 0.1426315914079977 13.23854077594871 -0.5043442536837314 0.0694256988919901 0.048076543792252686
Ni 8.059009681164474 6.986892353955294 12.839115670375595 -0.14809039988374495 0.32010774289673255 0.9187400059317726
Ni 6.444670505770613 6.513259000034679 5.931089935867334 -0.49935477088894 -0.9260419389098246 0.8893165584643329
Ni 8.466028974204464 6.754158325463085 3.066518321532087 0.26254022889490913 -0.22062173428425227 -2.3043182981820185
Ni 8.017869501459943 3.270722710265976 5.136723718292847 -1.955586720901006 -0.2538349878114274 -0.8932590880518488
Ni 5.409476928096649 7.059392809689358 4.0608605034496605 -1.0140335737294601 1.0367780665148272 -1.4079252924868784
Ni 6.177734493388589 7.8086164681119445 1.3215528478074963 0.9507651526881173 0.46945978310172054 0.8451740596191638
Ni 8.246580852591494 8.855628967113896 2.1703885156895923 1.606569236948459 -0.025121220547659966 -0.7864909439556583
Ni 5.48670126183222 5.578936825076486 7.869850659338899 -1.666894773311394 4.040012449655313 2.6410343390593933
Ni 7.9671616235375184 5.917007797207765 10.538336127622925 0.2009929043097313 0.20189870395345227 -0.8433562896841347
Ni 3.132623089315674 8.98332129434213 10.352700639017616 0.28451287651125845 -0.07531918155828964 -0.5260808740298746
Ni 0.5447175688866487 8.18836274675261 7.346273367141416 -1.0383125008814826 -0.00252096664964082 -2.916593348811474
Ni 6.35528587671085 4.087621456854682 6.819941094531335 2.0934045352141495 -3.0534344010336443 -2.604885142832346
Ni 0.749279939000339 1.2022730830046038 7.803088977270728 0.2908740428425958 -0.7670927419347048 1.0938347023185033
Ni 0.35391810661445794 0.1258212286760729 4.445445066512182 1.2299550743245657 -1.0338174412246066 -0.6929629526988259
Ni 1.60905249161483 3.711408860390924 1.3380845755479258 -1.0866129877590835 -2.2819959805357346 0.6601590187949277
Ni 2.4879890422702 6.288007520486265 7.239702863953906 0.03217092830558975 -0.4651459862177151 0.603371063271606
Ni 7.095689169177499 4.418145295772614 12.210182981890599 1.9473656185427946 0.5607133765020794 0.8236259011347428
Ni 7.95229801521637 5.476746057997014 4.682690767548798 -0.6469186088452535 -0.08096403854889281 0.6714875564338694
Ni 4.024328872693866 5.337317846358787 11.741525384622742 -2.091684467199249 1.0197709904338697 -0.5256491858090947
Ni 6.7681731119558375 7.851777212821024 9.48433468802304 2.232098838594975 0.87180374639155 -0.5974816943703646
Ni 2.334546044139222 3.4135000775966766 12.730006082762275 1.8182700145939976 -0.5104467670370435 -1.0549822482276798
Ni 8.446995067335111 6.627121067254594 8.13730426850976 -2.4155213381211107 0.3192415382416953 -0.77192590165729
Ni 4.837832331968989 9.197722616605834 8.613618792249198 -0.030763506435101857 1.0108091532548915 -0.05457937790777698
P 8.344776621282973 7.299600160801137 5.897830882312975 1.7260450584193048 0.5238833521579235 0.3789764922084828
Ni 1.1889041392073705 7.815093347715573 0.4681815189380159 -0.33561252340055103 -0.9643302929670617 -0.2888822092235476
P 5.3110597276238485 1.6589576793299678 11.19372253291636 1.0293280379946854 -0.547191944976877 0.2080647235548481
Ni 8.915434000718912 3.497348912123423 10.285061533515963 -0.4443023099994864 0.5885959618449605 0.304946718885578
P 5.779498661007651 2.754528322710691 5.053420159527603 0.35350740140310083 -0.5981252414916344 0.28990139451668134
P 7.351978003407689 5.6756932871893815 1.1106326176726373 -2.007552572445336 1.101358264389058 -0.05960074238176832
P 1.0262624958273647 2.39436953039268 3.0678828948844754 -0.6346349063818941 0.18568558452869957 -0.6010372729321067
Ni 2.5222002524842377 8.432094553717075 5.698975916362824 -1.2678047981824876 -0.01421922892317551 -1.0519699437639174
