# total energy = -340871.7665993211 ev
CRYSTAL
PRIMVEC
9.28468729534285 0.00000000000000 0.00000000000000
0.00000000000000 9.28468729534285 0.00000000000000
0.00000000000000 0.00000000000000 13.58907836731161
PRIMCOORD
 96 1
Ni 6.700944428664448 1.9724575130443003 0.6619127765269515 0.293357728496398 1.1957645444857858 2.56500347614606
Ni 4.853133840957979 8.54679594737678 12.975585231048898 0.14625206112342556 1.8742645276817462 1.2733015596310007
Ni 1.8363997071671612 5.1979764073618835 10.07609719844792 -0.4010003047777416 -0.7761422537314827 0.9354912572481824
Ni 0.18627775034341842 0.8375837002405047 4.322509326505854 1.5738568343171022 0.7976557023232262 -0.5459889258077112
Ni 4.398295585579974 3.934878279251342 6.504901044349309 -0.08365084135243658 -0.5715924853084284 0.17899505988240139
Ni 2.211640339385298 4.951690795331244 7.774583872605072 1.6983643046745844 -1.1207793492281473 -0.6067623483413421
Ni 8.112950369703714 3.112329272954938 4.563076499704794 -0.12056082700490849 -0.8222827568432871 -0.018486231729645582
Ni 4.23676988277906 3.6050769060725614 3.721627584192919 -0.5936309531657067 0.15164803532801627 0.3305752180869597
Ni 8.990139760030893 6.961537743633306 2.1324800249914193 -1.3399910905387504 -0.8634492037792678 -0.30657217030414297
Ni 3.791504139879513 0.15997144616765085 3.143384694621231 -0.10061472290028478 1.1134707313818757 1.1549390258289916
Ni 5.083914025404694 6.765770114527295 7.3237788853363215 0.9957723135264269 0.08954278135683934 0.5032672185694689
Ni 7.747198687779453 6.221919563192956 7.833492427330654 -0.6000643674958762 -0.13193204495632763 -0.7020898547007586
Ni 6.340299324686986 3.9830936597563227 12.05385162552613 0.34077915520315505 -0.9499202881893191 -0.3367345528201362
Ni 8.82722135415358 2.551747715329442 2.1690069128105303 1.7977258718940587 0.8096828086910896 -1.2385163336310154
Ni 7.278052729463228 0.517970414299951 12.7339178224196 -0.3423081902531718 -0.834591399007311 -2.012452837960431
Ni 5.67468938572655 2.7654533600594884 8.4382468126647 0.032011519909590024 -0.23892361791723368 1.2735964651636003
Ni 6.2924553316690455 8.656058146063975 3.470772977602969 -1.2456442029250483 1.5158985126347637 -0.6441911826117614
Ni 6.645914087772281 4.392446232659092 6.538195004093737 0.8188847869053315 -0.49858703948498007 0.6531054543822558
Ni 7.734162986984345 5.953462118186023 12.217532304220594 0.1547971224799592 0.7732286796291136 -0.2906495855366156
Ni 2.374846570565068 2.5465668598852327 0.3149960110079276 -0.25457006620523903 -1.3996658806915638 0.5195127338940537
Ni 3.8933014500772036 6.194344042280228 9.404362151357477 -0.014934766932961377 2.829991909471145 -0.6816675822906647
Ni 8.0194814239029 4.35319985996613 0.7913385303542719 -1.9976857069535854 0.7060118154629841 -0.49342632121964697
Ni 8.154508629503502 3.1983518996406004 9.866744215065982 -1.465790797345095 -0.620772546577505 -0.6102017130401942
Ni 6.24399854929749 8.020335615123091 9.442846251233288 -0.48525664092466114 -0.794615887055638 2.5219524105928564
P 6.9075287183305 7.973810047684144 11.638039695755015 -0.3020472858505959 0.0722233162417853 -0.7506137704430751
P 4.215220123843558 1.482578848264062 5.193841007693692 0.2672240075238237 0.2685185579655311 0.357110802483643
P 0.640855106011778 2.429486954595842 5.868375387967701 0.13786589394225932 -0.2999027287037674 0.4179346186392351
P 5.268205781161166 4.88769144662706 8.305508282452982 0.22583284617154653 -0.5517700512658626 0.4583006811611075
P 8.867776867738357 1.7416123357873527 13.473883250160334 0.5849470522384635 1.442365219332303 -0.5280343982118196
P 6.174511950472287 4.176735095499028 4.2172757535843255 1.033202176238111 0.6872543323498229 0.1514757714162101
P 5.010964238262844 0.23527118763374782 1.3949592553841275 1.532873192815889 0.13249640210022987 -1.392850143321311
P 6.379220733328789 2.020069388882841 10.995018472225075 0.14605819994506458 0.3455220692047791 0.3954618914580157
Ni 4.163439423462993 1.9561814564247682 10.812190911636261 0.3057432466449444 0.3944869291392561 0.03182845736450647
Ni 8.38818563634913 8.466000599571206 8.193806067975931 1.3802031439812616 1.188999200737494 -0.47745874214679707
Ni 6.580197071940535 6.238789839791752 3.029018703393386 0.9666669115200386 -0.6419049576807461 -1.0028914410697116
Ni 1.0459942878740776 8.679771237111485 12.439849496306383 -0.09119291536575262 0.7365297815461831 0.0764358116612361
Ni 2.6285135089006295 8.693818968808777 0.9139316828887724 -0.028678855991931252 0.5234069267421373 -0.4427074547085408
Ni 3.621557225809965 1.2980364059538387 8.779645688595025 -0.3394182702998864 -1.2693901403917365 -1.2531173713736419
Ni 5.509867618978156 6.066614600799963 5.165670338332983 0.7492089196757483 0.21654525022203355 -0.29724112271120423
Ni 0.9030193900508168 5.896389146115136 12.465519799410595 0.3131202558353059 0.2882301774618456 -1.2914882578423565
Ni 2.615654217161866 2.496763797873155 6.9876945643455395 -1.075441030302664 -0.3808968491596472 -0.3475702099830595
Ni 4.288058494739297 4.484466767260452 12.91727461017745 -0.27611513936586635 -0.3206461318987059 1.4956675302998692
Ni 4.271986701237637 4.3020598030007084 10.485169373797975 0.3167046307524546 -1.0761941064186045 0.372304736615262
Ni 8.07761285031185 0.4134796163525025 10.414125732933357 -1.1296594253265964 1.0868083915993412 -0.05717722054194024
Ni 2.1928481325410694 3.8879163315151217 12.115016359235481 -0.33786121022541166 -0.013724291564627978 -1.2088787132702405
Ni 0.9338445514751447 4.405844036254064 0.7454387508309864 0.8962626507648629 0.5896089764905071 -0.6457644406361525
Ni 5.145740757309694 6.564106709064524 11.92334234870537 1.7416254293560653 -1.161748078331025 -0.4588848357993517
Ni 4.032859583019696 8.674646089790333 10.70224164609804 0.783706696342302 0.2995674568515357 -0.4902309542108008
Ni 2.4978779603342756 9.007539263798721 4.946261110270719 0.4888584993433065 0.5247310448701995 2.375070686305232
Ni 2.8983729416711386 7.29358601110868 6.644501886852811 -0.3552133283506141 -0.5376613797786224 0.3462607471430165
Ni 9.222164092559193 4.133524161381914 7.22207906435398 -0.026503445607167258 -0.5626915832743729 0.021690083378923936
Ni 0.5875860702768994 7.7570683102475435 5.783946942070159 -0.8041878470147893 0.6312459353050032 0.021090759232028196
Ni 8.79050041637249 3.8135738412968707 12.029133931326177 1.1423938421741293 -0.3366036836692267 1.1034645120987834
Ni 9.111100664559851 9.290907916410314 1.193253140360346 1.4548708079984816 0.5784326481587134 0.3969554452844067
Ni 6.262280098347039 8.90901944817416 7.5294096376294 -0.3006288082365145 2.0196215877947283 -1.50109538618366
Ni 5.700816495439822 4.176892935181021 1.6534375186142933 -0.26453771894091216 0.6830719188373592 -0.03293068928974974
P 7.729418511837408 1.9965605609532027 7.877561266542832 -0.2041551040877968 0.3220615241889937 0.014296619128330216
P 4.009202200095242 8.405334453563206 8.409668545536965 -0.0007031967146116922 0.12017001932439304 -0.04964311694842419
P 0.9705747739434102 7.165763722756655 0.5240490989940799 1.170218063475249 1.2180953467725022 -0.05318172622930196
P 3.080584927500186 6.389591728904382 11.666182511054197 -0.6905736265310429 -1.1841089625247283 -0.5650264020551367
P 8.798986620451355 4.840525235772967 2.8825425500360553 0.34911132921793425 -1.0184635844763557 0.09577410697853182
P 3.8355042724065886 7.205483614495593 4.478607201183676 -0.9097462870735944 0.41146880840923333 -0.866408800628224
P 1.9468503458128859 1.1123055236850867 2.206159588545304 -0.5786223955720164 0.6978580760075982 0.8739961260571787
P 1.0919627740824656 5.791249348534085 6.1463672782356715 0.40437796300072293 -0.9876504557502411 0.05881372770409871
Ni 8.259806266766544 0.519733576394674 6.297409640746161 0.40611782850996503 0.26344140055293985 -0.143983576804223
Ni 6.587448412624994 5.725950143625259 9.93129228878227 -0.12526440312816492 -1.3361089818755247 0.09847376529788202
Ni 0.7609386076026049 1.8770202135621719 11.057365146611932 0.9195972117257453 -0.28017516836785294 0.8065833438301593
Ni 4.77089008195295 1.979207480621254 13.03575836016785 -0.37390936209822057 -0.25952201089387567 0.20258647404909627
Ni 1.9816029299126627 7.692121923451407 10.399803174495654 -0.7333770948498144 -0.6463018011968611 -0.36102376438480405
Ni 3.1328391469267274 5.1449144201510295 5.0539551252938875 -1.6128411860000997 1.2260215435981143 0.06739992671121296
Ni 1.438903679788147 8.276973653354974 3.1274855963010446 -0.3636288061078189 0.2969012228732822 -1.1864262978039954
Ni 8.307882376963885 5.402870883961905 5.294835192450658 0.35850228351453095 1.7797952555575671 -0.78967731210344
Ni 2.3190177465757658 2.2315838474393512 4.3626516715113 -0.06886828372662333 -1.0347831475719855 0.28681787049535123
Ni 3.4941991718167404 6.607159803499647 0.1870790188467074 -0.6742376083751808 -0.6960428771757303 0.053059084608508625
Ni 1.595694192129299 9.196974736250699 7.422952342938074 0.13375084333262127 0.5681721467729699 1.0249916154028604
Ni 3.0701025156784794 6.178012277537641 2.490986865512247 -2.163832193008093 -1.1594651958341193 1.0970560374692784
Ni 8.269629465798754 8.094928791895095 4.033822405079847 1.3371556779724842 -0.38773855467182894 0.2305135394766675
Ni 6.278221906228234 2.0183981451911603 6.267595581755299 -0.9334019788193214 -0.6282984226409051 -1.1764465608834642
Ni 5.06952276028189 8.684877815058286 5.649985618557361 -0.8240110523883035 0.1473740905430107 -1.3748629627152709
Ni 0.5642332250918182 2.0169868727404077 8.619171940851153 0.4988971145262311 -0.5130206984118068 -0.76346028738844
Ni 7.089257900426395 8.264262916611026 0.8980492970055026 -1.8404506644560947 -1.1824621709499248 0.7737002199488934
Ni 1.0737740719046769 6.028166711204138 3.8541479242560013 -0.2552825188912313 -0.28412823947833 1.0012765311741079
Ni 4.659993778322778 7.553557252036747 2.299964640021891 1.8126408413326784 -0.4439989198264547 -1.2587408882080062
Ni 6.006876923509565 1.9801916574619103 3.496130386749349 -1.3199601400298042 0.4726741762739602 0.6697908854577368
Ni 4.158657809567352 2.1704627517597275 1.912418083420681 -0.31613024630622333 0.3920235552004281 -0.8047596603578592
Ni 0.8132438928086143 6.668578009168903 8.463168769982525 -0.31555483341872753 0.35961428563178716 -0.9911543551384414
Ni 1.8361954440492891 3.9307651628323734 2.8147736183384136 -0.5722602007994144 -0.13248611768758473 0.9459800725946483
Ni 8.524094887231453 7.37417709579638 10.141990623336008 0.5758481752609889 -0.8158148897307562 1.922422832554528
P 6.569761083554709 6.072974611515526 0.4197569933521978 -0.8052319720085873 -0.5971808753004941 1.1568943497831496
P 2.45943007073845 3.084605197047395 9.442642916584134 -0.23696649419086288 0.33156972078974506 -0.25929292560220507
P 2.94173243078307 0.8030363077273174 12.186019147476525 -0.304576737140669 -0.6000108885501214 0.7415850845819034
P 8.886244110531425 5.225849038264243 10.125861264773857 0.056440342375915706 0.0340905139258058 0.20349124525155274
P 0.8036342415814519 -0.0038438604908649903 9.738395484951079 -0.5729364009308326 0.40991869031329403 -1.107552309014912
P 7.764096818439778 1.0759559733910373 3.0567269953327303 0.31694297201550575 -2.624357906844977 0.5225263239093968
P 7.473114722343862 7.529537766312429 5.9508336232464965 -0.714407495725847 0.3047220044692816 1.0050030880960756
P 3.383432853807032 4.32593073373021 1.4721317182536242 1.2293472655372377 -0.33428969082406945 -1.3655090323041967
