# total energy = -340891.5022848689 ev
CRYSTAL
PRIMVEC
9.05685687446873 0.00000000000000 0.00000000000000
0.00000000000000 9.05685687446873 0.00000000000000
0.00000000000000 0.00000000000000 13.25562551690945
PRIMCOORD
 96 1
Ni 6.586119100388601 1.8139435089834397 11.321589968206968 -0.1635555853988796 0.924433456772124 1.017950649395679
Ni 4.66306763743618 0.12989253465823328 6.149257989499964 0.2321844994211872 0.3861293012031802 -0.6014221670753513
Ni 2.7304793042646716 1.5045159961295962 5.2459008265604155 0.7904748683040709 0.5315578379840459 -1.3341186909183733
Ni 3.362756591762184 4.6167599285756 4.979979736756361 0.5331583497019463 -1.002651042924131 -0.026452280654257667
Ni 4.916143387229095 4.439825173969638 2.7735138650747495 -0.44062640380979595 -0.04473642367542618 0.5733081824479546
Ni 7.055146543917417 6.2452461806965145 2.7512847157245823 0.8948218045532782 -0.7605024903116967 -1.3100248831939632
Ni 4.8360717161873605 4.807968289511363 11.31889917604924 0.6083070671206426 -1.1791007106768596 -0.35896122542882053
Ni 5.619933616084546 7.915511713273885 12.432026727953057 -0.46959528023832026 1.0226082027723484 -0.45622554379963365
Ni 1.9579022479505654 6.589904866534449 0.5353960902196683 -0.1652877375986379 -0.4757975523942903 -0.8946161163003754
Ni 2.6981282117456042 1.6284590815504902 0.21547802012482925 -0.2515323078201797 0.009829327385595974 0.39418096786306306
Ni 0.684564333222899 0.1492461319717816 4.743578566033113 -0.01931438405789577 -0.6541544644720605 0.011699033604483077
Ni 8.817049353680655 2.3704149049959047 1.3058302942129423 -0.19484848197489021 0.8765186353687162 1.4419800680787422
Ni 6.818771638078914 0.7201315155945754 4.702605345832592 0.7028946099902411 0.15898056443368747 0.7048735880934829
Ni 1.120432812605352 7.456809086506473 2.60836208117632 -0.8136721323561406 0.2280229118443299 0.5954700632569745
Ni 7.440950530235229 3.8671601179840227 3.7976170429818787 0.3836754403460489 -0.15306137073577508 -0.7419668934013544
Ni 7.543102818175474 3.975353329415371 12.78448065044585 0.2089599816756079 -0.35836652926761503 0.49381661467953014
Ni 8.05057661885531 8.888390214759237 6.76051521803121 0.554862059927625 -0.8615756409056387 0.19899515715341212
Ni 7.133805345297063 0.7711053170827652 0.5438561001642541 -2.0969896814622464 -1.0040944602388773 -1.1452148565626923
Ni 1.751659504713108 6.733048488388832 9.322575024461035 0.7991135178156753 -0.8029359768855591 -1.130220697146705
Ni 0.1980906664243519 5.052014353066453 1.3220484076994745 -0.4293181778858284 -0.6146016418801028 1.5219814856040497
Ni 6.609032948113472 1.7176057231140902 7.0494479696136665 -0.7595797213871112 0.6799043197426549 -0.21828100196621764
Ni 3.290664011568518 4.153003575709185 0.16966843838870338 0.042524503625771926 0.6922841814642464 0.6709859342071025
Ni 5.966159138150307 5.943390200134368 4.743406485753757 -0.25642974512179706 -0.9613907507227636 0.7045210898500706
Ni 5.5854451053587315 2.7200095777943347 9.28336517428108 -0.17922388806375583 0.9588260753193809 -0.2683709766440733
P 0.12398202990516967 5.73787200544157 12.543493087434907 0.5226543648468288 -1.5772062104053095 -0.5747315451580424
P 3.952004752563704 6.194301361150111 12.653396233431652 -1.6824484047752768 0.9330947319915479 0.10531315681721862
P 2.4194306140421507 8.784698261161587 1.4269286209103653 -0.15199513425478983 -0.16978511124835924 -0.8534098172653947
P 6.312529569925 7.717311458882153 5.999774567879805 0.1592333038744419 0.8838701906377809 -1.1486282531196153
P 4.637137856394161 0.9246960232654641 12.43070170980201 0.7245193873488684 0.012295529537901405 0.48100352207526187
P 3.8569168129338927 5.899908230597961 8.430074315777537 1.2203646024226533 0.9089248196135638 0.40525008119303113
P 4.866330674783723 1.0348545726242027 3.9171304197378585 -0.8356272964709931 1.491320309074767 -0.41335111303361066
P 0.06289624779056938 5.747064715101943 3.4315769295910297 0.42150073872393856 -0.12548166134529354 0.8000203459006608
Ni 1.4529915377474647 1.1497317443800392 2.771989596073921 -1.2688206410415115 -0.03377761067107731 -0.9418243985550618
Ni 1.8616550306492983 6.508791656959767 4.897794195335582 -0.08568124151890406 -0.45959523160281496 -1.3634889165503743
Ni 6.011461535905171 5.2884526569026145 9.169168172471544 0.384781271815718 0.5026840923724891 0.773607660235087
Ni 8.755489897954982 2.4978177097175505 10.104962468069836 0.07951547902782435 -0.20524396627660138 0.699343402303873
Ni 2.3253298718044384 5.1941436069583125 7.234867187677596 -1.0115923112778191 0.08827008529200282 -1.2221214372127598
Ni 0.5540070252749402 9.037339281827707 9.105315520602025 -0.053674349595004334 -1.3516960376805043 1.495482925092889
Ni 1.1190652272273063 0.9299127727870159 11.590161999998799 1.351839248126588 0.4901088268106399 -1.3632035240994715
Ni 4.056222003856231 7.266497354394727 1.5876262426304975 0.6795963015839328 -0.48880296351502267 -0.3380414445570178
Ni 5.681701379516808 7.571749656259967 8.120780844404456 -0.8585880190322246 0.2939961334113453 -1.0419228439405603
Ni 5.16777003993269 2.8479557939244753 5.293156788328819 -0.6091588735979766 -0.5984875099270596 -1.0977337802625933
Ni 0.7496994360164676 7.147644222500069 6.848584999320309 -0.35690331445852724 0.6681201826235332 0.6765991666288218
Ni 5.1581244874319045 4.560064004955958 7.169291921643147 -0.04056223769307853 -0.5378868655258672 -0.9484457605263213
Ni 8.286181691865112 6.92655729095389 9.043968901011347 -1.066225425241667 1.1132105357419537 0.4772391699368232
Ni 4.905211761061538 0.459404533170051 10.118324048919048 -0.7272838374678829 -1.1876629984245741 1.192195853297921
Ni 8.276907470493464 7.470910612556918 4.752327489709882 -0.9569579117623908 -1.1245485864625924 -0.45745787354483797
Ni 7.227353619269472 5.997830966408755 6.780729216741543 0.6913999790870803 -0.752993069308529 1.8186932181743451
Ni 2.553227559670421 5.267015076837488 2.6158783666414864 -0.5237288288579303 -0.08231078238477438 -0.13234624967561076
Ni 2.274656757962283 5.299375226213363 11.407168208188118 0.3020665691243056 -0.12086010341288218 0.5912339136884398
Ni 1.1561258852866632 3.4330468574510085 3.8150614548802486 -0.723403014356238 0.7304689200640839 0.35785410840757076
Ni 3.3653740233797684 2.3985726728127523 2.910763284518324 2.247891839763174 0.7540395082951723 0.6119210097241461
Ni 1.174230542046354 3.284903850638472 7.983942606259975 -0.47798658962580903 -1.0317978396914165 1.3682140899401856
Ni 3.5275551582450917 2.76665239035682 7.254127499366019 0.08240488476047743 -0.41654082361550204 0.2821621168908947
Ni 4.0261079549688015 6.6620970721530055 6.258498173578345 0.6913349301770997 0.05686997371416658 -0.8135263508068957
Ni 0.7410981391056731 7.367807354651805 11.403377007928185 -0.14255969987350284 0.48131693955062266 -0.003279956302852416
P 0.1707072598646096 5.376141144520086 7.962972360006154 0.4287499640871842 -0.22039830541953656 -0.5183673074357008
P 8.620053661244421 1.511254297594934 8.055695554323332 0.8979906891995632 1.3655589117055256 -1.328177899953906
P 1.795793567939708 3.0635633271016625 10.766391060576064 -0.03890824702942332 0.5318342315738841 -0.269392218819736
P 4.135324591219482 6.382656812191276 3.7150212259476865 -1.0390226395746298 -0.5651143337832526 -0.11607630887099364
P 7.086809315319057 4.02880689829766 10.643021274191131 -0.5864583466766674 -0.9545169064210657 -1.3784095424159488
P 6.394919796309646 7.765666017381396 10.03985000741829 1.009105026079591 -0.9725015159239446 2.772309981378645
P 2.5211934571396424 8.366452613756627 5.670796018233994 -0.26999025741505117 0.22759662294018868 1.8921378084177414
P 6.659244162258407 4.270480065368989 1.6523003514125263 0.8936750925433448 -0.9653710755267502 -0.9408005852762377
Ni 5.207774176454728 2.8187202601474457 0.2862908664514895 0.5301714991594805 0.44783294886056424 -0.4569084287992712
Ni 1.4394877642463648 0.6668201393641765 7.0759592008627745 -0.032898550500233666 0.7687205073461149 -0.20978684845227744
Ni 7.193571543374702 0.5173466802865079 9.202691222261597 -0.9273264620492029 -0.039083596265023016 0.5144116652220624
Ni 2.5196537914822397 1.4201423181039439 9.372416718848195 0.7211425004568355 -0.0424154888517334 -0.3165030562646098
Ni 6.355223592919088 2.1177104863321277 2.2537879485047143 0.8563028225424737 0.8465534564651936 2.2932646114710185
Ni 4.208965893927358 6.955856222728578 10.313207682347599 -0.1792971645038525 0.808608087569672 0.27723356924102577
Ni 8.07561882793012 7.17790318109643 0.40033480738096705 0.09794771759108294 0.26189462489111026 -0.0932935066485232
Ni 7.893521664943455 3.5882179851467466 8.045528326870391 -1.3971086614873487 1.1368628850535711 -0.21221011318178937
Ni 2.867935220043474 8.32960026340386 12.436361339621483 1.3735200755341312 0.1401073816782684 0.164650104014639
Ni 0.30259592576338107 5.002283152332356 10.135516680198148 -1.0437994921379832 -1.262731240314322 0.4901661624111365
Ni 8.955555864849215 2.2150354695935768 5.609263733078747 -0.9792583750318037 0.685745094794148 0.8007669942586984
Ni 3.8859983801451814 2.570951828444165 11.332923718816813 -0.3294588450943294 0.2076993697956294 -0.38033352045700947
Ni 1.0163151867377158 3.504478287097672 12.869754580038242 -0.09887100073630069 0.07298384855689366 -1.3576080322895652
Ni 3.184789355480082 8.169538433031667 7.867638073871159 -0.17715363579828847 0.6517677094074389 1.3549441123041568
Ni 5.5621327559342975 8.099501759333473 3.498875715476089 0.23602187088940643 -0.43695795381927327 -0.23692124277522425
Ni 3.0930796234397473 8.629210143477561 3.6170495831101284 0.8713059808195253 -0.47054504574609934 -0.3107846657235938
Ni 3.174002639021457 4.0278559283327935 9.361560264592146 0.6347778597176617 0.07944734479405026 0.07501759115747081
Ni 7.136468061198689 6.052932883230145 11.390320643153414 0.752709219519523 0.9937205732037209 -0.4678677560242523
Ni 0.35742613688052344 0.10371821848239227 0.46013813857151925 1.8805344198508582 -0.4623823074296488 -0.016320591536894472
Ni 4.63020936093585 0.7694533464009405 1.4609027021694707 -0.24355366049007734 -1.7042888976891357 0.23487207355567938
Ni 5.843447785255335 5.737219911751376 0.17144720506584357 0.541493351930203 -0.43634423149467433 1.7767569829518752
Ni 7.964364398897582 8.83643102725031 11.540479706291466 -0.7911600672965536 -0.5433944256076576 -0.2885739339545094
Ni 8.888507953897744 4.97530277590058 5.4732741224172 0.9811298810229039 -0.5786761316280873 0.4549065678778939
Ni 8.169275784184228 8.873337718743926 2.4613176710946236 -0.831717677003942 -0.6179368769009228 1.2416024287555067
P 8.3899189297468 1.7004158088920325 3.483061537803205 0.05383375799100406 0.4339032261533495 0.09904712130284878
P 1.8249023057214218 3.2386142554915085 1.7779243894570318 -0.19481891428853543 0.7939707972724713 -2.292133840300685
P 4.662424600602794 1.0847669104944655 8.14727849036835 -0.3642844374139468 0.36499946120310045 -1.0317322765608037
P 8.502314522737178 1.7899428384415788 12.487038076206362 -0.953367880418287 0.25455978179259386 -0.2909910280364343
P 6.303644793396107 7.792338460681692 1.3823761308992244 -0.5632199449740172 1.0614840539019397 -0.01354842810839602
P 1.7907398418407048 3.3252793182896476 5.993186610237485 0.5405405010986304 0.2685645807121181 -1.349222122218715
P 6.938820275072261 3.8490101769402907 5.934967323302696 0.0651790078004942 0.3656926306153831 0.7759494209943862
P 2.4160433495958658 8.481529036362245 10.326728663876633 0.17863407699855688 0.7625110361012932 -0.6085798611660551
