# total energy = -340857.662928179 ev
CRYSTAL
PRIMVEC
9.38534920298754 0.00000000000000 0.00000000000000

0.00000000000000 9.38534920298754 0.00000000000000

0.00000000000000 0.00000000000000 13.73640724420892

PRIMCOORD
 96 1
Ni 7.775808889140897 6.085742099306138 12.279386621913963 -0.8250454071900888 -2.0584748132165003 0.7624387881024611
Ni 6.712523887036443 4.936571765013552 9.813028490170103 -0.30345367927981937 -1.110341441724275 -0.8920496411247797
Ni 9.41378698990953 0.6944942679114566 1.7031086713349917 -1.4729991421680761 1.3790803432307281 -1.3831084905535147
Ni 7.484346864105115 -0.07058815123157688 0.1709175361175054 1.6934115886549996 3.328806234475583 1.0597048505143298
Ni 4.143143713669164 4.456576841606532 5.3385171844308745 -0.31272816260320985 -1.1686172946470326 1.0082712173243862
Ni 8.819065555665691 4.971166162832966 0.6583484718393167 -0.9512947999393424 1.2334941978260756 0.18371689083810294
Ni 8.544149901589114 2.3316023467924434 10.696952895853649 0.7520006234882726 -0.6442608595074324 0.9901547102293334
Ni 3.255880939210696 6.249469519262642 7.986031329932283 1.1449312638840023 3.4036932135924607 -1.6696180857798277
Ni 1.1600761102736383 -0.01315356715786986 3.4526598055483304 0.048238780401729825 1.2070372891861278 2.272789631446118
Ni 6.57532884978083 3.3402833861965853 11.638363505032496 0.06305733347180108 0.02396216724255228 0.3167964191353125
Ni 8.093624975239326 1.6906674521951612 3.8003419504478813 0.1455177540605623 -1.4196436093650713 -0.7389720724390886
Ni 8.182034966411024 0.5241520537110239 7.79464246974432 3.175994260746453 -1.7536103696320828 1.5430575895480587
Ni 1.7612358941930375 1.7368058297535547 11.545106919440304 -0.18097378087532703 0.4620766032637719 -0.6217858183333679
Ni 5.147366712117196 6.954037082665031 2.2694469319799504 1.2337556790175785 1.0474352891183574 0.45188834987686044
Ni 6.1148272970387385 5.239718550029033 4.502835351637006 0.13549970770292794 -0.18205390131338323 -1.1243642383659282
Ni 3.746424995322279 5.301840177583753 3.248852251059052 -1.2089285926715696 -0.35418745818926095 -0.6464640378063382
Ni 4.571688151767984 4.7328533713433965 10.941364287371178 0.5184007317767975 -0.22593877562179152 0.1404663076795839
Ni 1.1642244347001658 5.547173210410524 7.654668430536909 -0.6052171153414092 -0.5717359528648284 -0.2347995684465311
Ni 2.881762142173944 3.8334928815324534 8.328919438367873 -1.3971839948099745 -1.8646318896879888 0.638357863759436
Ni 2.6108446469337934 7.613029389471904 3.015141096371127 1.2593589814079795 -0.8642603868266535 0.10820796186651041
Ni 9.011202428199342 7.231242761990642 7.788240722931346 -1.161840123824199 2.087486369957502 -1.3841420740243517
Ni 6.263247212154368 6.1006272634248555 7.655533759749864 -2.64583818820594 2.2818602262888183 0.011937117757218152
Ni 6.098280926079534 1.8955308584898336 0.022612122264328113 0.14815853411751903 1.0347265833024373 0.16017175652831125
Ni 0.9750439472216195 3.9950053590349737 9.662340136109018 0.30392676226149595 -0.7816786101686796 0.28724390228917623
P 0.8694381189135331 8.636999163018157 5.963276429369513 0.8998534534399147 -0.5051834617555752 0.346445609460313
P 7.12760034877312 8.100279187950656 6.841363147737899 -0.2466734370659816 0.019017935863399508 0.32662111853521814
P 4.902840819337217 2.1543975651244156 6.2374694115437315 -1.308454967603682 -0.0553530228490079 -0.7753552390538131
P 7.411488396858206 3.559027724226177 4.208368137729337 0.2150082447522168 0.8840856490826967 0.0651700089394297
P 8.746469878201458 4.926163412549708 10.42134554152767 -1.9092564703758992 -0.2747102885985398 -0.05671082242848298
P 0.31411544283738774 3.6518112882095535 7.114552836063258 0.48163807033546735 0.4149315701468531 0.3914756531167581
P 7.221087813960092 3.929964887822674 13.760721364439085 -2.677296149604905 -0.42083893677022355 -0.5637843021179194
P 4.0760853923398885 6.062541515635604 0.7083686299018092 -1.058135706254997 -0.4777454201492804 -0.8165515107864646
Ni 0.9963111489196096 3.9379236640980033 12.741712686575777 -0.9650355465642024 -3.9658101553102862 0.5229063329566349
Ni 0.5324646576580274 7.408766645537633 1.7969415173791952 -0.3324675500136661 -0.1690744583345798 -1.2783064690447596
Ni 8.077547871749186 5.102110557400644 7.556177635594774 2.661216213323907 -1.4232356975917035 0.4557627452306021
Ni 9.372125424006008 4.087329040898667 3.020704731484352 0.3269489341882821 0.6140316283092457 1.417195919155527
Ni 5.165611831314412 9.213006210595715 0.6879949134649173 -1.0544181481940937 -1.2283095683013425 -0.9061472568684265
Ni 6.701073760791276 1.1269458269577048 6.499697011791752 -1.587611979119666 1.1261282722448862 -1.6014013195942745
Ni 6.293205247379427 0.753239985293729 2.3181428172447434 1.0925036422119057 0.6128026409981512 0.024167084164506768
Ni 5.101416041546429 4.404582006034218 13.259644130716886 0.44321627602415925 0.21500335965621037 -0.4217179969410672
Ni 6.931699951137574 7.417429323016559 4.507807709739211 -1.1996929330059145 0.23341862893860443 3.852530178237507
Ni 2.4063097278674657 7.370108391436124 12.984599897353785 0.0669273579501686 0.7635911565393494 1.3647220176265271
Ni 8.2134383454408 9.178102096246718 5.1861535455052294 1.4563165393060726 0.5459295333246856 1.3325726865874923
Ni 3.323727629888 3.9784871441239136 0.9539944856292751 1.0308539877209084 -1.9495438571410362 -0.25290707668051926
Ni 2.1308966502736797 6.392905813856809 5.59372642041157 0.3795130814382432 0.1968824816857835 -0.4631973471317764
Ni 5.21893938649887 3.1001310662282844 8.392024650537753 0.9598439750609341 -2.125325295182146 1.6846194442846667
Ni 6.485867699478429 0.6174461807007418 11.600190473494 1.0973758827025424 0.9932878565416764 1.6229499922993273
Ni 1.5266960131547445 5.183903877258536 0.9322542623224683 1.0817746858301756 3.3793566937296253 1.3916836338170355
Ni 6.255645079155527 9.394077756208834 9.14368132739086 -0.4355711007740757 -1.8149988000418935 -0.7886450141841838
Ni 2.038056774194016 1.2476789613985453 6.1399265368891065 0.5955040018187034 -0.6389918977990091 -0.464717897541361
Ni 2.225641752277744 8.765803697926904 11.12197125818992 -1.1166015637013735 0.900759767304268 -0.3349514927777844
Ni 0.914244715394722 7.062916520837309 9.612916886267174 0.6539006965900417 0.38747013150179077 1.039118798832862
Ni 5.444253469095361 2.2291237168982008 3.917774257511324 -0.31148580555567645 1.8876116384126138 0.7872180519296701
Ni 5.662378374065788 4.024644292381069 1.9108993681016866 0.4508527095234945 -0.178526347776099 0.4024779177645326
Ni 8.110800164607076 2.869185774003023 1.7470921726754423 -1.8529552246810088 -1.4392773244355987 -1.6094851250436732
Ni 2.7065095131772234 5.242890798119908 12.49508916820908 2.754379365042153 -0.8989281134121679 -0.27127015256873926
P 8.902473155617164 2.1702118788318794 13.143077152866397 0.6512838277924848 -1.0140052915946858 -0.1702849337029132
P 1.9883801199188784 1.9400361852558836 4.103202482307233 -0.7182412676496405 -0.1607253150389361 -0.3165300528478033
P 9.467189627889036 0.15759409413583428 9.468904331220996 -1.0139834372178151 -0.14162484676405931 2.024611327699836
P 3.3972806129891246 2.8189553841143895 12.448729296405288 0.27436704632650816 1.5964750859372505 0.724948761576803
P 9.22027985636621 7.5026670660973815 13.222748445229183 -0.06031396639870903 -0.570091732393186 0.03580698239628027
P 7.304551726007853 6.361145791550543 2.9256208183676233 1.0967138236385112 -1.7295232467758925 -3.519722471275603
P 3.454737721901347 3.007403814341196 2.8395900132640812 1.159055104879894 0.0542631322189388 0.18369169402712235
P 4.45049513520746 4.724875824369304 7.444253590083207 2.217294169481975 1.6640729875918825 -1.905261490283893
Ni 0.601552091523537 5.815087393848664 11.794793815845052 1.529509932770611 2.7600291071287626 -0.4209294396015008
Ni 8.034619283679191 2.7993118478593617 8.46286339059781 -0.7889023816106284 0.2580510827753039 -0.7160866832004829
Ni 0.9574370317823302 9.405152468478748 13.17949230846578 -0.9955763954655371 0.15188277704664166 -0.1937634764408276
Ni 6.332163832661137 3.861883563410838 6.450163953362147 0.577054022643632 -0.39502634658249386 -0.8080054209886666
Ni 2.7674673574086643 1.2565575019132402 14.032289264391359 1.9982302666031453 1.4317581332404181 -0.7987129399431471
Ni 0.16063494733537037 7.277944260511912 4.197117919425992 0.15786419144105715 1.7655251187917982 -0.09564452337920303
Ni 2.780362827458549 5.717160658404343 9.98574989043869 -1.6952445280986803 -1.1863201112434343 2.1402410359517137
Ni 6.615779705614165 7.952366081701617 12.534677510434275 -3.049774435683554 -1.4140357762599907 -1.5086968526800015
Ni 1.6968523974374274 9.044755052237432 8.299620254669382 1.1596217760166416 -1.8107778199820106 -0.9838863607221183
Ni 3.3308698807671573 8.46446828534201 6.186795094629364 0.293575758044475 -0.506876790297598 -0.20105923877129245
Ni 1.181296385224722 1.9070185261325256 8.23255911773529 -0.7367501250871052 0.9817135214405157 1.0882248123308937
Ni 7.975576050721533 8.588129648789812 2.9083405130868027 0.2354081485648075 0.8093138553874449 -1.4298501175844278
Ni -0.16186255103444233 2.063509841716059 5.839402018490756 -0.5184750366581587 -0.17531658258954969 -0.04719157008413808
Ni 8.523107948276273 9.079340064707464 11.595670489231974 2.06149791631354 -0.4136123371147974 -1.2765727741831046
Ni 9.334593411830253 5.351713924195898 5.161345251485681 -1.5046550785104602 -2.111172143610216 2.0015673013961783
Ni 7.526121054201211 7.223387224558508 0.8891745701274355 -0.16197744227848232 -1.5030419683870695 1.014577362048072
Ni 1.8566567413525543 3.847186106279747 5.193021744182453 -0.8878543720965096 -0.39779671023877944 0.3989477931240871
Ni 5.741853512626503 9.388634253567687 4.610941437020267 -0.008561259306449772 1.4970615824339186 -0.3030402458914846
Ni 3.792019022616558 0.8665530625137262 7.8801786669354685 1.8499598894981106 0.32355173558127504 -2.2341809179349847
Ni 3.866641935547149 0.8108444441912374 2.601964229349222 -0.5059589064690189 -0.49376982060199476 0.2395630512734455
Ni 7.900446328924352 6.987946349979611 10.152770629493087 0.15009174658448987 1.38754184373452 -1.2203399198323048
Ni 3.9050280145166014 7.6958644831111185 10.102165764164141 1.7976250846501363 -0.1354500854119151 -0.846587909247555
Ni 4.4465345177685585 0.6258582693511868 10.839234792473917 -1.429116838962829 0.37398392408989783 -0.9783541180499796
Ni 1.1282785465698473 2.974846037337521 1.3116635808054506 0.06725620204449707 -1.3516975803424012 -0.3318916229055381
P 1.4115002348488617 5.581110633773248 3.4981412086500336 1.47225172247909 0.7779273706563634 -0.4557542605901699
P 5.805467410732847 6.6930305163715165 10.75544239319781 -0.4706509751963443 -0.3855148075476328 0.7650826534832114
P 1.9071217649757195 9.126679766986664 1.3740667688416095 0.9648887365736931 -1.4849748264727134 1.61694415242488
P 6.197249435305176 1.8896650151265308 9.97842837938635 1.1502236226311933 2.2106239565506507 -0.2616920219620009
P 3.0389855150092173 1.5280287327668869 9.590470884686896 -3.202469424218846 2.164327387476956 0.8488147416955445
P 4.705279214861183 7.626243961400752 4.420582149659431 -2.3423839947054885 -1.3169889732166222 -0.10706279251847367
P 4.596343464592618 8.194761500172044 8.02024843670657 -0.31494033976318014 -0.8713157510115381 -0.3523041251236191
P 4.056535709578673 8.969550247645202 12.599403572442302 -0.6066615610974196 -0.737123449266124 0.7379983956719096
