# total energy = -340857.4846081709 ev
CRYSTAL
PRIMVEC
9.36940988343701 0.00000000000000 0.00000000000000
0.00000000000000 9.36940988343701 0.00000000000000
0.00000000000000 0.00000000000000 13.71307843887372
PRIMCOORD
 96 1
Ni 5.656031755581803 5.199507251646335 1.3911091007709093 0.28346258086987314 0.3213760680861949 1.266590466159412
Ni 4.719465528524044 4.086177734875975 13.373666332829945 2.2516117118169223 -1.8735307348395152 1.19344978030968
Ni 1.3310839753842991 9.026883142546827 13.67294028039085 -0.4506881589211722 0.1664601606401843 -0.595839016560619
Ni 3.016584624147088 2.072354219681034 5.447424651984635 -0.11281357895932184 -0.7469730883666942 0.4977969394835169
Ni 5.207705485426603 1.2245631527010294 9.684491113821684 -0.3810786261531502 -2.1314026117244778 0.8707439376684682
Ni 9.316426020845805 4.071439652891563 13.130423331157903 0.5278834744562523 0.4597358709457372 -1.3299802432699677
Ni 9.230414836728256 6.126469833418637 9.329486978434026 -2.8667409440657208 1.2135676341054777 0.9963245864854712
Ni 1.4856417633149195 6.1581197005154875 13.04161818896804 0.4110777436184017 1.04326907355581 -0.7982478273812703
Ni 4.905720030601687 1.2370619456871745 0.3737495140438656 0.15548103592086127 2.719568685120871 0.09419827785097971
Ni 0.4626427286880551 8.316475734904035 2.1775136670862776 0.16091069157686483 0.06536695544158419 1.12507540550034
Ni 7.271692821946746 6.714765720080599 7.570799057068032 -0.9006294123739909 2.280587530223982 0.49457406167084494
Ni 8.010170982053173 5.322780579471455 2.201730781202686 0.3157006149679724 0.26397130491448084 0.10718954790432507
Ni 9.123013289501735 1.0045975133189267 5.428884463408185 -0.014016111773433924 0.15472384603986258 0.6499000600710807
Ni 4.852023941693444 6.594209521165511 11.955239780162183 -1.8072209558686878 -1.1710287323020026 1.5284269841190774
Ni 0.9567479362722682 2.656996036429504 10.04636583758771 -0.7546827983061261 -0.4195055626707808 -0.09987167408667316
Ni 1.016075040611301 4.9759718670410535 4.333949909358739 -0.6690406375552735 -0.807934201431099 -0.2323752752757546
Ni 7.269547227048826 4.873629801233211 6.194252830313889 -0.5190332231544739 -0.38376131519163587 -1.3496034168175337
Ni 9.03725507945512 1.519381008849483 7.655065657037142 0.17782392239243566 -0.40110083491134796 0.3117961377072436
Ni 2.4373395875785424 1.8860435011431838 13.223535591140669 -0.17988440446589019 -0.7339872176299875 -0.30864396523150717
Ni 5.46082009751109 8.001241934290208 10.49180820333426 -0.7752004586435036 4.301393368134798 -1.31753636107966
Ni 5.547093625109608 8.70522192664927 7.864382024973927 0.24580337575620248 -0.3751874574796958 1.190776861463207
Ni 2.5953172101717885 0.4490589580199045 7.170938871139768 0.2932309731105466 -0.9388182647388864 -1.1097940538612372
Ni 2.2944092375008505 4.073238579618205 6.650569333346588 -0.3521552582505806 1.6098746471726082 -0.8418043718159826
Ni 3.4758824734527938 7.489006918289061 3.727407096654411 1.5197119728435828 -0.6377117455350049 0.20557461014314274
P 6.328642963145051 2.8648282898168107 7.423917626778754 -0.055342481326046626 0.30944229276308644 -0.4881807565499915
P 3.4650233272227027 5.247703496864273 1.1726125848822302 -0.3137311499464274 -0.2541491766177365 0.5869496844907891
P 8.40972010356829 4.250938810334265 10.365977026569698 0.8441615591942494 0.7495148809519414 -0.7014051699289081
P 3.48079204431092 5.008999037412988 11.200266773689856 -1.3464617858647585 -0.20715378170480453 -0.5836185632350271
P 5.0991796089959305 6.089816701363316 7.156169870102242 0.906564032690871 -0.21657327524649153 0.6336661147107215
P 5.379240644339903 8.632655845931358 4.625147425469826 -0.41683881447189497 -1.9136286313016657 -2.0193318244684515
P 7.166980295400153 5.487691565490298 13.554048088697906 0.7008120164295996 -0.22101665572982582 -0.17131260363647915
P 1.5837301169670568 6.625831280032256 3.208037274911922 -0.4682788754197419 1.2107916140222372 -0.5989659922253748
Ni 3.090059537638354 2.1101785279906795 10.57913297873866 1.0892797359579693 0.6920245000449566 0.5474189733860185
Ni 1.1925010315626576 0.28148987037424733 9.042925446408054 -0.06203763395803509 0.2913764364003111 1.9814111381632775
Ni 7.322418807874024 9.31939612382677 9.192041480990584 0.9768340818610274 -1.9205230444286538 -0.2410704890569074
Ni 4.44448271341882 6.06713335966957 9.38214587365144 0.0625719091949503 -0.8695337194104508 -0.6000232298452957
Ni 5.046935778643048 3.519506446573852 5.8280175831177665 -0.8220408160358101 -0.03167059163040352 0.5972029867876812
Ni 9.306513185029209 3.82590489352506 8.296028871385547 0.4447879913866533 0.6110540337381606 -0.3080608390345275
Ni 0.4114370289670061 7.878352752276506 4.7599470015195 0.9112323847008178 -0.13692152775111904 0.10801847156352365
Ni 2.5078912451390165 9.391802924574092 3.206926999822823 -0.6276091098833643 0.12588352476940254 -2.6144787000580525
Ni 4.309900507681949 1.4397597623755252 3.45186961247514 0.26745952057339745 1.1429646270759348 0.9910098591407771
Ni 7.256570594150916 2.156594585302045 9.18067263885461 0.5927284959560953 2.265186108067247 0.0846941950152864
Ni 2.348348931069993 3.2548768295568515 2.395579190113365 0.7141881806261894 2.9311936152231515 -1.752288051276234
Ni 4.1418132916613795 2.0921049360339525 7.648387141564484 1.170729713004345 1.1561780404424153 0.6477490751663489
Ni 5.128908747035688 4.293925663572971 3.7357027722990384 -0.0952773698477714 -1.5699541568285864 -2.5164993578980854
Ni 5.5441047833085735 4.468665160718101 11.442508185429201 2.222969108379565 0.20665910145657312 -1.7159105410884643
Ni 6.757518338068438 6.445357703945957 9.96955916188814 1.9792647812442363 -0.7181705623127052 0.3910686474863265
Ni 6.887659443448914 0.4763080132235067 11.954691669675157 -1.851076005380425 0.17396932453303587 0.5159137036888857
Ni 8.966975134785649 6.992268906485127 0.4623747635610658 -0.8119865171236016 0.1355650137232246 0.3502768102809451
Ni -0.01530774211451546 3.4531710235289443 5.850478869793691 0.8018936516639737 0.0664308779297243 0.43552739202033386
Ni 7.0395375801096405 7.4401548143687 12.295365292414909 -1.8948490367013173 1.6192781998746952 -0.5955582520954067
Ni 7.483778787489758 3.3104842781121517 0.734073600449165 -2.02885081970248 0.16905388950928948 0.316287597819694
Ni 2.7794823338117176 7.355043093614472 1.1613252566135581 -0.7530074674862322 -0.6901668780109275 3.9722721088855457
Ni 3.774635481815776 0.09372314551702142 11.459196978582815 -1.8022337870667413 0.01618458017966245 -0.9871200371680677
Ni 8.620812911647635 1.2227735953844225 10.774941468228576 2.7929122310100287 -0.6694736113276342 -0.11946039485187815
Ni 5.199104367014848 3.4427335007504096 9.426850139749487 -1.06232480463568 0.9545917255230593 -0.40331455473321504
P 6.572744202776262 6.985719688870947 2.6912880771561087 -0.08425787880881619 -0.7181044849614601 1.925479874213297
P 0.2081114618063377 2.773148612628334 1.1573769872249813 1.497874051032885 1.071913990986012 0.04478707440770351
P 7.788621912375224 8.747084450683824 6.883718669588364 -0.12235082902579573 0.7894829367044468 -0.25576794316808205
P 5.818000746849784 2.355628962666871 2.3284258175724384 2.0849168094581128 0.611850818607843 -1.2235661400790863
P 8.475914985462678 8.45526480574644 10.86686100231394 -0.8841458128966709 -1.3768938771023707 -0.12305068330629775
P 2.988420177583106 3.858725936876234 4.361334821007842 0.7400249391836352 1.1079775694777887 0.8395142902302251
P 3.465407473034121 9.110795578816628 9.11667394667233 1.4040244147705754 0.19695035880924147 -0.3296074548570517
P 1.6092898675414222 0.40206106034539046 4.954261070108898 1.0993877709262487 -0.40987806688334566 1.8096581045552707
Ni 8.808997512192404 1.5670244588753803 13.257804208342188 1.0362892998038669 -0.32127013863594994 -0.5140054309225792
Ni 8.675445941559337 6.213961384321652 11.996996429863346 2.536673261742799 -2.06142489698376 -2.306105471989428
Ni 7.508101775939558 7.204982622500456 5.070067915077452 -0.8328409919751076 0.4197444181544642 -0.3455935458726629
Ni 2.4321395650093445 7.5106408860589315 10.036958949912979 -0.4081767679215228 -0.7195533015928447 0.16932565511343742
Ni 1.3316367705763401 7.903434662939107 7.457364546720238 -0.48259194960830437 2.078153265482034 -1.5593486133985983
Ni 2.788233362784026 3.9814652083293818 9.092291930939313 0.35310708064088864 1.3924197406521115 0.16492598338384498
Ni 1.1479869644883136 2.263733789047598 3.829267574786475 -1.598772880832492 -0.8710750957556419 1.4456703724461362
Ni 2.474920291227289 6.400150300529052 5.649884485658107 -1.1385652124566585 -1.003992387443374 -0.5604431535598284
Ni 3.897833854360619 7.7574967322403126 6.593591140103228 0.07138436528025771 0.8997768345657084 -0.5544913068517676
Ni 7.194723118512578 9.185657164993014 2.5873016798871955 0.2829334478392805 -0.5146415218446814 -1.1243130734130187
Ni 7.037766761613103 4.689033684731691 8.576981874564812 0.2707248215882305 -1.263911119555036 0.2608337877267637
Ni 8.391515339871079 2.0331057610461305 2.689519132541578 -1.5708614991342043 -0.4424053500870897 1.5168328515235747
Ni 2.642707686126752 4.16989341353505 13.182656855159747 -3.0214601621198933 0.46480402949726407 -0.9812291256049296
Ni 1.0257255329469304 4.886194180089598 1.29151976763123 0.38841192658976975 0.9639194306818883 1.4978329133823043
Ni 6.40822673197887 7.586645540259537 0.7040568215213445 1.0319991570689453 0.17287454880696035 0.9965107343543482
Ni 7.623336149954997 3.0186177861245946 11.836526544200897 -2.022110672765169 -0.12590177960184767 -0.041974801769889
Ni 4.840002988619062 9.017804184223309 2.074665653136568 -0.42482774621464253 -1.1771628702241983 0.29621756654269626
Ni 1.2537020179086087 5.010535620658661 10.706363008421386 0.9173917194339942 -0.36540595261289976 1.6492858019803789
Ni 4.973348432231368 8.681311192240992 13.057579915902968 0.5927248964116695 -1.3483690301898004 0.9125768145438542
Ni 7.331507135607579 2.6550659379623784 5.271417473661825 -1.7644534829941743 0.04153462890867685 1.180392947125722
Ni 4.937191878907879 0.5899111729519242 6.026020388437783 -0.29590234929512266 2.0359131258659002 0.41726484626572014
Ni 7.170015984251361 0.6122909457605493 4.667123319365799 -2.253413026691719 -2.8318837271772193 0.3460918256653201
Ni 9.358054309629495 6.036148720685176 6.877808445738545 -0.14456336056709296 -0.994102639133488 -2.193221187693171
Ni 5.059725023340266 6.063788480287221 4.947239634228975 0.22367980438428575 1.6982871715797463 1.2116976707762745
P 3.0029333937266887 1.5399093862352728 1.5698596423518476 1.216175761152286 -2.975793513320714 -0.8484419317371582
P 3.0137831705467453 7.736443667892585 12.985394233232462 0.9292203366378061 0.7911922060860697 -3.7546256551795336
P 5.325572663661763 2.2655233463642053 11.81473610728345 -0.08848682928849923 -0.8096064469271992 -0.03295331499756906
P 1.5409962377992854 0.6739716459002716 11.477106605863936 -0.4575028678501605 0.7767480056362815 -0.0557335461168782
P 1.5459526557075842 6.146660912043182 8.25918179254251 3.609584326534758 -3.446588727404406 0.7437864631085965
P 8.42576053354751 -0.021057749052744216 0.8073920447928534 -0.15738956579748378 -1.8781636056258366 0.256067733796688
P 8.111285655146485 4.032369213047317 3.9653694988309574 1.0933539060273427 1.0060544121787252 -0.28676619132180936
P 2.010394311122281 2.3923383111824 7.8394237905237825 -2.2531638867953907 -0.25082911110556805 1.1148969223054412
