# total energy = -381166.0151257152 ev
CRYSTAL
PRIMVEC
9.27899557471517 0.00000000000000 0.00000000000000

0.00000000000000 9.27899557471517 0.00000000000000

0.00000000000000 0.00000000000000 13.58074795884195

PRIMCOORD
 96 1
Ni 5.466497412177753 6.50654288452383 1.9081353866396265 0.04651125618766184 0.5672563198269198 -0.20591810952549056
Ni 1.1766230048431063 6.616675280284903 5.956991601461377 0.6932401176196126 -0.8093974162401867 0.8520417332732745
Ni 2.0697541438767684 1.401462341070805 5.149493526776877 -0.9332086318615929 1.2606321916934482 0.9969285386180573
Ni 4.410844669659787 4.600247522661305 3.0648623696619484 0.46578079158823654 -0.29344360334198494 -0.3918476917441961
Ni 5.662423398907473 8.950082797921477 1.8153519284768753 0.5501314872211751 0.17028441948228093 0.25323077856852516
Ni 0.4688815533238392 6.844344710093115 11.263003221733728 -0.691125385269455 -1.0553373175742535 -0.07682224846637736
Ni 7.3064572363120845 0.36039803503574164 7.1647818237719925 0.3307965900691464 0.5507907180717289 -0.5754810217295573
Ni 4.757786305644833 3.649929935310557 0.743992630536822 -0.23810523578099635 0.20818813650658985 1.7947927574076639
Ni 1.5958387355777517 4.927638315452436 3.028859867719665 0.923389845998958 0.4985608142327349 2.7817135340807315
Ni 5.877705369928843 8.66017914632798 11.334302094072466 0.14926410847687197 -0.20322770717752095 0.6649824083254999
Ni 8.745286091641029 4.46276992761572 9.041179334730334 0.6443030255992774 0.03052619361331517 0.06348182260372938
Ni 0.7254467025388731 0.08739514556535846 11.106117680022555 0.7463061442066568 1.6859430481920965 0.25726226832542143
Ni 7.390274401272046 6.387716070123602 12.803820298608604 -0.5049034686213111 -0.7601219670438264 0.6577324116313059
Ni 8.27966610518129 8.36176665600225 12.280594453242143 -0.47689361367194644 1.6487728668997024 -0.33997002903829837
Ni 7.9008696781736 0.6706978462991683 3.5007227622481576 -2.3236208551653723 -0.20881599989857583 -0.5008138719329697
Ni 2.7669407381900184 2.9670701098114534 3.5629087332576406 0.38429713309044783 -0.5144263205100817 -0.2746586094249979
Ni 0.2688208462679638 0.9344969002859042 7.215980536392337 1.7475765047331773 -2.116738324844084 0.5259191516410298
Ni 4.995300749515098 5.137937465973032 11.461037396206049 0.6302141516063792 0.6792949682934301 -1.0391301116867717
Ni 3.1416729652361823 7.219494491929848 7.763678804084204 0.35801017436946087 0.7087451552337471 0.21821209640149514
Ni 8.88767227522462 1.9255863931867536 5.2740696066934545 0.1273747646029484 -0.15468090861706907 -0.19853672945975484
Ni 5.426310083334445 2.2375183797315326 3.205775976684139 0.7496863735327992 2.723003678944349 -0.10962643948059185
Ni 2.5283220938735846 6.162190088240305 12.040731495649819 1.5822250037761396 -2.115929198679227 0.44678882386676605
Ni 6.514931096316568 1.780101025157614 5.2018883018973145 0.2794776280801961 -1.0774061244488349 0.577997617503824
Ni 7.09519307027551 1.598835851074493 1.029129662221103 -1.1015184441160062 3.0822166153726593 0.21629508188444038
P 8.663770117526862 4.940601071950727 6.696150803322493 0.9974553576558046 1.2811693924148517 0.8822197995185516
Ni 8.790187150120076 8.64497087295597 5.449112286497582 -0.27009001621770906 0.9423684439839899 -0.4851820789329838
P 8.325012555436944 6.313391317402549 1.5058194901285586 -0.9496228115535581 3.144491047931849 0.27264749253224013
Ni 4.057370620951193 1.3312481832880063 1.7787518592343126 -1.4615168525600895 -0.7376309850301619 -0.40940729789451424
P 7.662084011940939 0.5159668873073245 10.547989821561838 0.6804817895126797 -0.06846076387555952 -0.14053572746493861
P 8.238402412877853 4.882022774331749 11.450281184801023 0.11295036164750225 -0.11380448211768142 -0.6225347806842505
P 6.6105511433565765 8.470878362275268 5.360076614555059 -0.42142926205605485 0.8430613841515351 -0.12050991916231503
Ni 6.7172595898349945 3.9636898839384886 10.119273327492477 -0.4283833247763848 0.4010650965774061 -0.4356508049720755
Ni 2.9062648533094477 1.1952366695070809 13.305357420253442 0.11496276409184071 -0.28613447127508146 -1.308730846972888
Ni 2.5404590197860863 2.1872911779239086 7.5708455065032885 0.43511704395579254 1.3926889351530982 -0.2676112156599133
Ni 5.731542635239449 1.5896403666866574 8.457071217200495 -0.0331165800483107 1.6526040677203346 -0.49697727179569895
Ni 3.3454025870518462 4.771361475835957 5.152630755103343 0.06177203900147426 -0.054950388093950524 -0.6494130931323332
Ni 2.015453463112273 2.397330516574818 1.4097633303072912 -1.2706438102931794 1.4531551108589553 -0.20735561330296548
Ni 4.281838797365054 8.22908630155052 5.696213788359281 -0.41134410990591097 -1.2605630290184098 -0.4626157635966936
Ni 6.749995885415503 5.703121072494807 7.947413118828882 -0.04852314441136805 -0.7634744284558271 0.6054202324911508
Ni 4.6661191106221995 5.276333681557866 9.259978044987818 -0.32929172338884577 1.1676816702066406 -2.275956202099558
Ni 0.9474318197981576 6.461929474900506 0.06424219637814567 -0.7080553282555742 0.3214604002698851 0.6369967217458513
Ni 0.5093481799270588 3.120238485987039 7.353295749019368 -0.4327228326920031 1.4003693345164916 0.6511110496600464
Ni 1.336620721593311 8.894742869678234 0.4993287207525028 -0.5317092759602456 0.039837443711912036 0.08254089611770946
Ni 6.748919521955373 3.6971693006167854 12.77216315018683 0.08608104806048401 -0.7027403438005639 -1.9805709016501696
Ni 7.407904492429349 3.1965118277307427 6.904615496463196 -0.5190759034669512 -0.6312284518035065 1.3007601700625857
Ni 3.9199301418869914 0.5092572457726686 7.396224093087867 0.6484898099871154 -0.4320990830650752 -1.6318534654365442
Ni 7.847162853111245 8.967935584967083 0.9712259475637756 2.377025753149074 -3.528552153752091 0.24664515493120745
Ni 7.873051250126444 6.639158286008138 9.900093250526274 -1.077646779704731 -0.4901365947247816 0.05628350508307726
Ni 4.429142848481999 3.175606251216319 12.252441981362534 -1.5930331501352373 -1.1523522389384218 -1.745222916899336
Ni 4.206539750132675 2.2313385688311302 5.438274419933512 0.35853287964215025 0.2754667071485901 0.19485825216690314
Ni 8.381632985037927 7.2639965536090205 7.1919971171216615 0.013743060617705364 -0.43910456784863083 0.8797476838289753
Ni 2.918800776021825 8.29125557036838 11.78051042226848 0.13343305498188635 1.2450425647853074 0.4297352108185889
Ni 4.176048971425885 3.1522881359119483 9.61535985513954 -0.7789056754092327 -1.2404618873931603 0.06070091742448256
Ni 2.752085066641153 4.727443990863579 7.81858540324479 -0.2754613078319514 -0.5587876202342763 -1.2605715136588418
Ni 8.924333585836466 8.586884362090327 9.108675674776304 -0.12820008871772115 0.846332084483007 -0.09854369930386898
Ni 1.659557596618386 8.559910322619652 4.620849676027917 -1.083588856220779 -2.86490800462204 -4.015574885438239
P 2.632710791515515 8.99274761852215 2.8546597206929505 1.6929374772320587 0.6236920342171453 -2.511931536021745
Ni 8.37028477372983 4.228595922069996 4.655589306703616 0.6424759996928678 -0.33448355200243035 0.4226507931679818
P 9.226856671100453 0.9882872363063726 13.154733344601715 0.13085886649680686 -1.2061818831643678 -0.30890107554763574
Ni 0.2016891707390895 4.691923996679285 1.461464964475386 0.7456088610293159 -1.6694735897821635 -0.5558082258909782
P 2.0876254889130665 8.754815619861319 6.454548962002338 0.9842823106089564 0.3050089395820812 5.096710909243152
P 5.673966469117833 6.971893780118536 9.948399700297285 0.5972862905301068 -0.12170291102915169 -0.3729274578009255
P 1.9784302716819349 7.588009792094226 9.988558264255019 0.6837992839216869 -0.0252384628518146 -0.1692140692362376
Ni 5.840886316396116 7.960477944275978 7.48576268657814 0.3843616677797961 -1.885616719469772 -1.016653270740494
Ni 1.0306551290559773 6.479921446876302 8.469579302926835 -1.0660840145677961 -0.7427670207051466 0.43098476695497384
Ni 9.061143093217144 2.9107744450475788 0.1910702884651851 -0.23798696503557726 0.3490845897450568 -0.32102279851183424
Ni 4.887738635464854 0.2283570033633479 3.8583853494559133 -0.501054527188866 -1.14922963414904 1.1158592862187104
Ni 5.989368799921998 1.9300867059295388 10.916381711088118 1.0333538713246269 -0.7666607966036086 -0.09236610973824738
Ni 3.0081853381893553 5.83721183423912 1.4797714943934097 -0.3867224547024888 -0.3031505462171037 -1.3360632162392538
Ni 4.662732277320928 6.038417569320686 13.378177119929383 0.6501350589000223 0.4748686128221176 0.7785326083405302
Ni 4.679350957985524 5.751241942358899 6.612167544345841 0.7784824718288851 0.45175696650531877 1.5821931220969396
Ni 8.137576849448768 1.8881827629472316 8.853167403131174 -0.4599806399666917 0.19424530117325256 1.1645837480076073
Ni 8.943142109402705 6.637460229859829 4.211281316754455 0.38549963803898124 -0.758857755619422 -0.37041240468855563
Ni 0.09765771441797845 2.8419799735527107 3.170683744185293 0.7287861330450223 0.7148947197749107 -0.9636546070562759
Ni 8.778068782198268 2.7565575423979007 11.251405405450825 0.02213591266709091 -0.6132785521933051 0.01973321676286924
Ni 0.723188195071669 0.7300592911253445 2.9223323616504935 1.714184559536293 -0.8625104940150823 -0.8713221787694413
Ni 3.694357765026963 8.155466752475757 0.5535987808323567 -0.23740538150049437 0.10598807139705617 0.6564849123774501
Ni 3.659691438414496 7.058661665598508 3.3482521665225873 -0.9828653756567717 1.2570496165485125 0.5035405268355134
Ni 2.1605212763508446 2.664918184361305 11.489787435385935 -0.04142381436242543 0.6000875074243278 0.5850964333321343
Ni 4.828009742422978 8.857515540350285 9.169394636621593 -1.049009832694329 -0.3818571561903875 2.653108239504792
Ni 3.9386551544951174 0.9325111952818711 11.037304650536994 -0.8165625665300582 0.9205505767779499 -0.45119132380983584
Ni 2.3836161614535047 4.93530276560819 10.082170336702163 -0.4187650849603304 -0.10564405779407612 0.39743881267872844
Ni 7.026806874575864 4.770201601417714 1.0327438309083503 -0.8464511265593745 -1.0404773697432854 1.7605587759254582
Ni 6.940456543886459 5.470960608939154 3.426382235235015 -0.1638039539642598 -0.4446841188189374 -3.169652891909457
Ni 1.120661383911686 2.1928029011594026 9.482892917580768 0.07254521835757828 0.6913907231156996 -0.07783963398729819
Ni 5.258267477619303 1.1622683990429228 13.157109695309813 0.39353330697673516 -0.7325849379658221 0.33470492398461715
Ni 1.3559117529175395 3.9509498233285 5.468192684627457 -0.7587474552938029 -0.1613459793420705 -0.7428071299144626
Ni 0.653322927513878 7.486896579809416 2.417576356520145 0.8883233413131282 0.38916011760970404 -0.7299436436882332
P 7.31437221934218 3.012490792029875 2.623732435618775 0.3646945283681719 1.2062114508507227 0.28437789359529086
Ni 7.132782280421951 6.09471323408456 5.502620541059533 -0.46442684866350337 2.7348289537140515 2.261085198524996
P 4.490078010918849 3.3590334312150456 7.25411535146512 0.4060450662905007 0.3211035311510986 0.6268213238747462
Ni 2.112186989593795 0.17155563335311902 8.868961181109514 0.08986211236947103 -0.8969532490739844 0.1716684443140011
P 2.3475394275484542 4.404627742778001 13.480779610967218 0.1491376102013367 -0.5481735921638559 0.015427390298663753
P 5.1477175270676625 6.145116736803757 4.5090665469947995 -0.2281578947602974 -0.14944459991879422 0.18070098682991462
P 5.919553638939075 8.049129465811179 13.51644250167984 0.08404010637105527 -0.4654668598922435 -0.7571148047863864
Ni 6.049979197521739 4.155199068883537 5.2939517100212194 -2.3698153514435636 -1.5602335871067128 -0.5028599558287211
