# total energy = -340874.97180414456 ev
CRYSTAL
PRIMVEC
9.22345260967853 0.00000000000000 0.00000000000000

0.00000000000000 9.22345260967853 0.00000000000000

0.00000000000000 0.00000000000000 13.49945521514032

PRIMCOORD
 96 1
Ni 3.070358167964478 3.7975720471753527 4.684783310079282 -0.049107813270244466 -0.43160491703747605 -0.31904459173954086
Ni 6.619634877151439 8.045682072609212 8.004919947174372 -0.20575484447474887 -0.5761173697619755 -0.6532826033900685
Ni 9.24973921625775 0.547028202955079 0.24458751013284435 -1.0558173425344655 0.07589665132831444 -0.6653392774442864
Ni 5.733500913485141 1.540630144337036 10.90229503284424 0.048208441384426655 -0.2938824906516164 0.13645795785113918
Ni 6.192736607335142 3.129314475558156 1.3246464047156925 -0.11028515611051327 1.0165195733761072 -0.5533448519521502
Ni 5.234041743819116 7.324426543633868 3.8884101402553113 1.215638143481261 -0.7326574430749705 0.0746622647005811
Ni 1.3267475071671695 5.451097248606665 8.943766863520366 -1.0386364598798048 0.4150030468147369 0.2772443678743032
Ni 0.5954956005056512 4.64368545097792 13.085643009166606 -0.0679462861329862 0.29987573212057383 0.9673222857158501
Ni 3.5005030930174734 8.743676054689804 4.471451313016321 0.8633304188132163 0.22209729038851428 0.48576109136490536
Ni 1.0008091470693319 3.126187725202358 3.4274035435489294 0.8715664335697634 -0.9192454848132814 0.9525872934985207
Ni 4.789462115796142 8.475956125995484 12.108875713063119 0.3694909213155507 -0.2262269962861717 -0.27806814932717916
Ni 1.510783052445118 3.1709860333973663 11.1627127542917 -0.8462734633309297 1.307057315925207 -0.9252137865815743
Ni 1.2855002281372998 8.14609779863743 3.57429071203334 -0.7268853164778836 0.8032391099482747 -0.4107206173892991
Ni 7.315977861256552 -0.17116882921205695 12.422468482154365 -1.2367846956518893 1.5103994371934053 1.0493823855423994
Ni 3.0854477360532226 3.159115450188189 7.259777521233116 0.8921743396281021 -0.09661048683689813 0.8466871538295805
Ni 7.1217596245544135 5.890179699012958 9.397186248301441 1.208499475553951 -2.775225098142911 -1.2908521669202542
Ni 7.346774968743299 2.627835369821571 8.951204655517166 0.211815448846532 0.12691068048233628 -0.6585669917174594
Ni 0.29260572555265735 1.3926398509483384 9.545126735047303 -0.18775660812511535 -0.10409753924256267 -0.4359860768243072
Ni 4.880479143852214 0.4012598392439966 2.558618893803737 -0.593295681313475 0.8026791236797467 0.000405205858218657
Ni 7.702901688471002 3.000038567042357 3.696596457587852 0.1613477791142834 2.091443554833037 -0.9946996492875384
Ni 8.439624947082548 6.722273455202511 3.5518417512930003 -0.7467321760004817 1.0830584376386057 0.07736680811593771
Ni 1.417220351532999 6.823915900396866 0.9721159090697745 -1.0422681430951213 -0.643600343105298 -0.07181913882483115
Ni 2.061377042089139 -0.027154766143076665 9.881411964021641 0.4082392457283421 1.6772676319052855 1.3752486281894638
Ni 4.784223194846016 7.388880028844227 6.443263098453526 0.4820268211334537 -0.06383972016378038 -0.8423962397637106
P 6.844530316459425 8.738012854930336 3.2108451828445 0.7823594382857881 -0.5947830644922788 1.903558391549857
P 7.3774429478967685 1.0259799486061194 7.328098400025145 0.12757788175268997 -0.7790578847163808 -0.0401050955510019
P 6.213249565421553 6.443476160203435 13.235648626899675 0.4060026430883395 -0.32137272565208524 -1.8711594063938612
P 6.005334501939594 3.9567134944878233 10.245290073126961 0.47596184588629636 0.22137969549619937 -1.3512818329612213
P 2.293356092822647 0.923212242221771 3.648659408548957 -1.0578073763813007 1.6293304419043744 -2.9677698716852885
P 6.492388128158577 5.900159474484854 7.218361453024747 -0.1727763326661992 -0.30932376490735114 -1.0059109446223256
P 6.908743991907982 5.078875604481126 3.0411299697270553 0.8614465715269422 0.40159063006357293 0.01976149889764339
P 9.192765950925123 8.262313298587419 1.7155381611427223 -0.19628110065635876 -0.7987659046682695 1.1607263219347301
Ni 1.4412013277131557 5.7420879476481135 3.8898951160880055 1.1518531878148162 -0.8170086529285413 -0.17335148844337886
Ni 1.823716344691409 4.930553266806856 6.502417710273309 -0.7819843143345565 0.911670757789817 -0.6419862045406428
Ni 5.071893451031749 2.4544529120390384 5.924383949807763 -0.49877781533954746 1.5062486482498252 0.13894010084304456
Ni 8.630882455571674 4.935284897876249 5.275424607598928 0.9531079418886811 -0.3908267066788495 -0.8138189423466501
Ni 3.6126049332073293 8.421998929590131 8.138551169902582 -0.17359574324370103 0.005691393957822457 1.0866777795587477
Ni 4.917640433479079 6.283181781343841 8.9081689490714 -0.7300156345767492 0.7762317281214954 -1.0510772567463187
Ni 5.054691712348675 5.76169700740158 11.204803979214065 0.8456839093760466 0.9887236342097617 0.6907852283212168
Ni 2.3043504480560113 7.400842846577175 5.843657527568691 -0.251416865288238 -0.779030116802239 0.8300361755364609
Ni 1.918957713936139 1.1765066913984876 7.83529973561641 1.170057626637985 -1.0673698232587554 0.33253645557838857
Ni 5.5734094505778415 0.31387685142445637 5.535033432272927 2.0088766905733983 -1.2503315810983884 -0.6448594123233797
Ni 7.149992612280359 7.576521944001576 5.597859900483987 0.8588654410633272 -0.4173342660510749 -0.16356844091468606
Ni 5.390868104584965 3.805135278124479 8.013398144599295 -0.007695054651412555 0.1936207802153762 1.2234825792263446
Ni 4.903012038009184 1.4081813682035553 -0.008369360686874688 0.41082037619195694 -0.014719565598361746 0.42699261507644526
Ni -0.33931513308017647 0.99852173087984 3.8431737180723964 0.40425532137992953 -1.0495106835901473 -0.2420043137250864
Ni 2.866584434599785 7.12390868895825 10.122633836382123 0.4175515242682035 -1.493141421443906 1.313035644995829
Ni 2.0754704773211694 1.0683986060878659 1.1848576051806083 -0.13144919178263814 -2.278829666992611 -0.015060750987864384
Ni 8.071636867598043 2.4980982886869234 11.09242082372671 -0.38183427337225206 0.19596202675404314 2.391188417802701
Ni 2.1563693781196904 8.571345070478246 12.614646491190713 -0.14491817280335043 -0.17802061178427406 -0.20875300787112436
Ni 8.739525501120161 2.9627573725345906 1.2897568514092776 -0.32949561186953574 -0.736285526745861 -0.48040625481089516
Ni 5.426295385164957 3.607550481304742 12.210094801793371 -0.4880300899047401 -1.1607224652799881 1.3428941231181584
Ni 9.496558801865822 0.031552508236422326 6.187258798968451 -0.8019363319764512 -0.029370739852633287 -0.01788690758274984
Ni 8.161879125654448 6.057437784417173 1.330953401451074 -0.3220334991645358 -0.4949946941480313 0.1973470800270279
Ni 7.031895528045464 7.447089236795369 10.843626496964724 -0.8232752026635436 0.6655259395337958 0.9462783205613574
Ni 7.251063203427343 1.0421578840753483 1.686648463607535 0.4822615628520791 -0.8838753328441037 0.6612563656241643
P 7.251441364974799 1.9701202042712658 13.220084051013517 -0.1607404845475877 0.588265060868103 -1.1113367157580085
P 4.178362278559111 3.8510127302475947 0.5482650679188326 1.5980064349801124 -0.2655605037784717 -0.36113560737232
P 0.19197140370310517 7.041515588874658 5.522464633718812 -0.14083243276975102 0.20589059872166476 0.1404688787827452
P 1.565570359564399 6.2257104495828575 12.07167107321008 0.12451209834317264 2.083991469430366 -0.18613938423666654
P 3.7209067110178675 0.46391751827655753 6.488229273481796 -0.6473916918269302 1.3122422025602563 -0.14283403658081206
P 9.119070566433026 7.353397407549973 9.71125125815439 -0.6842885648532796 -1.0329067564848793 -0.6675005467616634
P 3.029728860243867 6.254026448380197 7.757934339423511 -0.3857035265196712 0.22392817294966597 0.10679334090717092
P 6.004209240749603 1.9252850022667498 3.8792300381044997 -2.4127332338530123 -0.827935327143374 0.24732341194515473
Ni 8.792809385501993 5.93493188994608 7.44666403564079 -0.9720934818522484 0.7970021278996273 -0.19907100469667005
Ni 4.349568001580676 5.0902665681667 6.256619160843367 -0.8609930289292913 -0.15823005942090812 0.5039328771779257
Ni 2.0126864369910438 1.7641974065027355 5.559034700048313 -0.5938561818026353 0.20221520675260654 -0.2935451619168557
Ni 6.293392143125161 4.609927615278161 5.167347882026387 -0.04975701681846915 1.1328877024559072 -0.8251904174083853
Ni 6.141214402357313 7.97894117120936 1.2824509547814693 -0.13766766188852422 0.5024794325608507 -0.9028027658762259
Ni 2.2401275491550763 3.13495922841287 0.06408270242480489 -0.4667336424198091 -0.7676162185383425 0.544362703058198
Ni 7.509679584625578 4.529065608289148 12.981278723175802 -0.5803074965839232 -0.028789413427866548 -0.0793504142048698
Ni 3.6273993508200104 6.678664972364133 13.586256032724991 0.5271121435078664 -0.13662739354946793 -1.5354029012162784
Ni 3.293980770844439 4.588427747787414 9.623370203906491 1.3931429919713811 -1.0131393440499648 -0.2363005784720898
Ni 3.3748427778334524 7.445041630367679 2.319098748406808 0.02284322314676066 0.14916512100516247 0.7600718305321813
Ni 2.992060280736266 5.04094876830697 1.8207795974545775 -1.1035128488382155 -0.195653751485005 0.9833302311083323
Ni 5.442085935634353 1.0060665149242123 8.522030037654229 -1.202389248891155 0.55181273157834 -0.715589174738774
Ni 5.014219203318472 3.9573222423447043 3.1653117654950464 -0.45080334434279784 -0.17475736765197 1.1946358301979814
Ni 5.276958467729219 5.8306515373719074 1.6456917233275403 0.7228520269487744 -0.8629925758578235 0.3250200925966854
Ni 1.2012993313878189 7.999075967748315 8.06778699857589 -0.6465190594139898 -1.005973679539461 0.008516522111443398
Ni 8.480909119921925 6.859776683238577 12.666970214180102 0.7398771007518612 0.45550434936289297 -0.43027205715866546
Ni 7.422508736210709 0.1745150977344265 9.622897040799552 1.00737904452742 0.893271686457339 0.9122860227763127
Ni 3.0633483441579705 4.75195033497895 11.981616973582167 0.8249248224518244 0.13812300425838792 0.6690843463090155
Ni 8.987239761608802 5.03162385795384 10.903091016784375 -0.34335951433582157 1.1581721880543085 -0.24388301880503807
Ni 7.427378719065755 3.453094547799779 6.739346065552306 0.6308152755254878 -1.0916793465383974 0.1888657820288941
Ni 3.4240037790027738 1.9998381678299062 11.586771123121125 0.536470959014947 -0.71118230392033 -0.017390170451989408
Ni 3.3097436509567038 2.5326954585529875 2.1972929139711277 0.9171762609890786 0.5106131174115787 1.583811631536969
Ni 9.312458692421234 -0.41873828149838 11.25589913834684 0.3029402299785105 0.37437935975610365 0.20570419374247154
Ni 0.6428063771281495 3.1057393312825865 7.440724132310013 -0.8062663268103727 0.3265097897683345 -0.5954147845390069
P 0.8058290532008547 4.4868221964025645 1.8426216550285117 0.5802761291253554 2.222161524876605 -0.5231187060777571
P -0.17482408338905545 2.671056467660115 5.339479639666601 0.61965848757772 -0.205075301909221 0.8770449401858316
P 9.480878932824952 3.49962686504166 9.502846429351212 -1.0382641641420507 0.5225646333465 -0.731198856251573
P 3.4722701052915275 2.3962160337307656 9.43775283654589 0.15899290572886168 -0.6619199673500923 -0.6857528081036319
P 3.759313166715626 5.760913013949536 4.1090987629341535 -0.6826867675837984 0.027485092794146213 -0.26859286284689227
P 1.2820229865911772 1.4991430555453653 12.296815545732244 0.40977342298468145 -2.0190790850276974 0.36897387246981617
P 3.7918811770587544 8.825783227749708 0.6503281025415795 -0.020764486240861014 0.33646638676041407 -0.21795087232030852
P 5.060576274965191 8.388499350556929 9.894762911337326 0.3827554996349408 0.22434803409590398 0.2292580698030116
