# total energy = -340892.23532866535 ev
CRYSTAL
PRIMVEC
9.06700615958483 0.00000000000000 0.00000000000000

0.00000000000000 9.06700615958483 0.00000000000000

0.00000000000000 0.00000000000000 13.27048002158279

PRIMCOORD
 96 1
Ni 6.423801405570279 1.9681749702633387 11.550240298528971 -0.28715108546505386 -0.47178226058731004 -0.4923444010093779
Ni 4.546042618121083 0.33655184502107927 6.064251100089105 0.06644913276216942 -0.4321569328862041 -0.5353227043431168
Ni 2.719566816030571 1.476144828206351 4.743254529903977 0.4255533115267574 0.32732817190457175 0.6862613723089342
Ni 3.3681116138976006 4.263605384400611 5.027361906110848 0.2110387185815075 0.30992823126056945 -0.5382154525098796
Ni 5.213755066456334 4.582238105665613 2.8301552735664255 -0.2328748406199925 0.9309422044249193 -0.7151420598990263
Ni 7.420945379194965 6.627083677801836 2.5532135521206873 -0.09547740167371944 -0.5240849266457684 1.3666089502365948
Ni 5.226503276748821 4.626403491394423 11.672727387904677 0.8290822962636237 0.1537645674503868 -0.3932448292020389
Ni 5.731771247416784 7.835552357889542 12.36008531791897 -0.85881479033105 0.43712404708349234 0.4227667499205558
Ni 2.0178621625839868 6.284903942219912 0.3401224319436835 -0.1872004785113292 1.1063698586710364 -0.4072174893320471
Ni 2.8987943216149237 1.763460111099909 0.12492430056106901 -0.8201356285932973 -0.1237615933303933 1.82234161356021
Ni 0.7207208849163097 8.759570928947435 4.724396971037465 -1.004719495417386 0.5320178083395999 -0.44770002282712573
Ni 8.63712101429591 2.4335662489922125 1.3778602976739855 1.0581069098995906 0.5709180849492232 0.7173148991806292
Ni 6.767286790001505 0.7323656405910193 4.679887945785124 -0.7014380800493726 -1.0298142336024845 0.0018347392158936141
Ni 0.825706839507834 7.517155378777884 2.472011260700019 -0.10600581200886906 -0.7547193079710164 0.1911340092377805
Ni 7.469399458713495 4.272735859339824 3.8704146736369416 1.3606645597277016 -0.8053399583413614 -0.8151528306667252
Ni 7.65391302873634 4.154420499377756 12.821578690812323 0.4761431086591671 -0.9162069550972737 -0.39021966922246987
Ni 7.913474206576339 8.829677018550218 6.770161030871147 0.5536880942241819 0.6294037398899419 0.6494416323774234
Ni 7.148255176814765 0.985130190809931 0.2676670811127471 -1.5065687505934053 -0.6563589283225469 1.1655260573162185
Ni 1.671266795129772 6.546759072552087 9.147129215647311 1.3095764828026348 0.13670144132051296 0.9856899895897606
Ni 0.022619459613562216 5.1741594517000795 1.4228743551548415 -0.7990952629832302 -1.023034748786806 -0.19691436336498344
Ni 6.290770295035872 1.9279809331178215 6.898008534133709 0.16131512610413506 0.2984590542787054 0.3452032524127797
Ni 3.6183972447040187 4.375764247357986 0.40686738246010457 -0.8934930584395258 -0.9830628363795586 0.9043451706626812
Ni 6.096446224631468 5.785747133527152 4.858255899210353 -1.6735181921651823 0.611860845910172 0.3633866081900258
Ni 5.377949476261921 2.837582964798008 9.477896310905512 -1.0211349606609317 0.16516201065405103 -0.669403420211331
P 0.39027929516984444 5.4937532755902625 12.406452172679796 -0.6794821446035717 -0.16851370073510333 0.34390021733064
P 4.123103061006311 6.12790873509728 12.683380293616688 -0.6095093149588601 1.5947768722992213 -0.068629685353256
P 2.421643136236437 8.537946103784368 1.4310881557977748 -0.3527746370021344 -0.13172584248279248 -1.012380097286437
P 6.255563111134216 7.79712638689412 5.967429077608075 0.1576955270736768 -0.4906572431149421 -1.83242702282067
P 4.650240649900077 0.931752727088826 12.524904444430923 1.0375247148728648 0.780581777560075 -0.42008226110985725
P 3.9515099743880135 6.234119642185615 8.35506731492492 -0.381666123225504 -0.3574301334962748 -0.5729628832933938
P 4.586826010649966 1.1466044988461395 3.5739263008764492 0.7005297093024903 -1.6693931142532152 1.8082581388839505
P 0.2822178121777428 5.5942610359688 3.664868370032672 -0.27984632427352446 0.18618335010072454 0.26399007396755825
Ni 1.7603682620887153 1.2221598589935778 2.5994344280865573 -1.1344702164516784 -0.37160025434906974 -0.5089472996733816
Ni 1.7556624860276906 6.248436444498443 5.3157688565145165 0.5944148825195827 0.8199150279420588 -2.7821717046640733
Ni 5.893091416352728 5.583852113197979 9.38642291520367 0.2598909641975201 0.44807051879266696 0.33072639895284334
Ni 8.488685060740922 2.313664162998006 10.090501310794332 0.9350420855259058 -0.002906375013517575 -0.6586250986489044
Ni 2.2213257749335025 5.078021988164344 7.183097867079326 0.5284036086257803 -0.3070786776269163 0.541289720559829
Ni 0.5038852522685292 0.16007345562497863 9.439504794532501 0.5452728735772931 0.5694363581973741 -0.6428094717728865
Ni 1.6328045561107594 1.1504126413232696 11.381015513851214 -0.025476289894233544 0.76382024183102 -0.33995948751533706
Ni 3.986390746077345 6.805803431055904 1.6422088546280909 0.5424505736371497 0.6314320831738802 0.15175525032984186
Ni 5.5846318757052 7.908967904645069 8.01514435711099 1.3961758652604341 -0.2438526797877349 1.3943676084071017
Ni 5.430166363228091 2.947520411310391 4.515001723429525 -0.16456577183094886 -0.11417317831100983 1.7922586781319003
Ni 0.8156061949375416 7.467839933699052 7.116573244806224 0.16517666594207037 0.2829139074552547 -0.3720044317660238
Ni 4.97715154754989 4.555309098148766 7.233367161178621 0.2641631092103128 0.10959944289739834 -0.07575395510286308
Ni 8.386028419964576 7.391940027327492 9.024151601252527 -1.6502242546342483 -1.1601768771891632 0.224550122804381
Ni 4.704651752293547 0.3229132547494153 10.394978622451488 -1.2304708376187197 -0.978608914373263 0.36566537692187345
Ni 8.208015893170547 6.919122870768214 5.08486304411433 0.4517068299936737 0.18540919093886132 -0.07673868761363559
Ni 7.066606788703919 5.865328244293271 7.232729750663996 0.8600841439617768 1.5797078937812408 -0.5616698268780779
Ni 2.193363128744291 5.257022818601248 2.463372217480473 0.6304496646559529 -0.39531379591592564 1.5678589648624548
Ni 2.2791823395681843 5.165518595079354 11.343765533520754 0.3213889236020014 -0.3252103542306206 0.029070177893078968
Ni 1.0421253898843095 3.3351893154822223 3.89208572443358 -0.722971069025142 0.00612462484049913 -0.3603285380899924
Ni 3.8988216031151515 2.6576119647300254 2.3341311154113997 -1.0370099800199752 0.8707809615539907 -0.364070778741244
Ni 0.944827349593639 3.1117329551277746 8.044936725090404 -0.5602685756551771 0.592894074999682 0.5472017151688899
Ni 3.643757660200525 2.743703185730857 6.914410747803061 0.13253111199290724 -1.1587920810264947 -0.20412965016650003
Ni 4.237311067296618 6.77260005545769 6.212044202925928 -0.7137644628252094 0.1264093153658855 -0.6948876805253645
Ni 0.8202938369867706 7.365926787406335 11.445045802801793 -0.07350655382958309 0.6628278238763423 -0.03586997442373177
P 9.195938721797038 5.494777847256729 8.000386898311522 -0.511373649726687 -0.1636545728705891 0.35244707845938655
P 8.343449760267903 1.663677711193206 7.9575371351385025 -0.13326207662166079 -1.3151688892887479 -0.09031282675364447
P 1.9512015352224166 3.067757976522821 10.295675867156787 -1.1889976580755974 0.8044889231949758 0.2425686708689887
P 3.9026841476276686 6.03353933771164 3.8397337390795307 0.10518254477662531 0.7029773995120345 0.27772182173135396
P 6.9956937355762205 3.813745886774888 10.658013370250984 -0.03681485483550433 2.1826534394796537 -1.1903096920188017
P 6.521280785978908 7.716339364343577 10.234538859788234 -0.11834839273462198 0.08650836540588971 -0.20121736161571155
P 2.5575031526109973 8.345725578748285 5.743636331334813 -0.4891526335449576 0.25188043518821784 2.094727367790631
P 6.853015330766418 3.8989032061682325 1.5866716301020993 0.8390311799462196 0.3810421164882599 0.16252431592088784
Ni 5.4353617576076045 2.8728264167232567 0.2277640948565536 -0.24434710292565012 -0.06148587521962314 0.7927371819756863
Ni 1.3345453970984016 0.8167794655007335 6.9587338994344945 0.1481968435546222 0.5698389929524316 -0.03151863943357153
Ni 6.797960470954196 0.8172328157956299 9.463603989508606 0.488201582485598 -1.6055053144603189 -1.6566255301749018
Ni 2.79752493274096 1.6933086864676363 8.832777934567309 -0.02082002206914479 -0.6734073991644015 1.6251932798075495
Ni 6.375474264134319 1.986871136424867 2.525930024673231 1.1174091472043337 -0.27841370559205597 -0.4410318667783308
Ni 3.954873833576145 6.7213080030931085 10.508441320856987 0.10744357289666012 1.2437654978450967 0.262923837486573
Ni 8.194279379235184 7.305141579866622 0.3715876625112648 -0.04796032992936256 0.04122609652932255 -0.38109173877927266
Ni 7.295167873378901 3.8132562684563998 8.304520570445149 1.4338702944874144 -0.7892181130788343 0.5065980827149147
Ni 3.012195364380315 8.469381405184233 12.547158503706799 0.5665559513257856 -0.9800137651405896 -0.19538532831496672
Ni 0.10924472726178128 4.545262855613861 10.102418076645979 0.21867180964673308 1.1989390855590254 0.313394335432299
Ni 8.518016824820721 2.137174893194828 5.7045412153041255 0.48655324824889745 0.550646993405013 0.6315881491357703
Ni 3.7869166163229178 2.865699750087485 11.463916055476563 -0.44997673467644433 -0.8079586269111311 -0.4390282060847407
Ni 1.1690634724553086 3.326448721796619 12.59888758575566 -0.7159031064347671 0.021310588552318138 0.2939393120314809
Ni 3.321742945735594 8.427002219617314 8.145287626266906 -1.935852989917505 -0.5567250812782928 0.2929422382255342
Ni 5.335262012494473 7.862272824270736 3.5177788668535266 0.546860015558755 0.43762335531741403 0.6336643149385087
Ni 2.9551276292587536 8.296872550970246 3.640092776416582 0.47395535697922897 -0.527961121771723 -0.548273865187146
Ni 3.391096473848849 4.330991372234015 9.264387362721681 0.6051492382179513 -0.24304381073319437 0.0028842635263305163
Ni 7.499266176141272 6.171611703525296 11.522173381771934 -0.05647145272416726 -0.19430263677374923 -0.7418154554251547
Ni 0.5274739748125801 9.280987237119609 0.16499321302519465 1.0710051060184973 -0.12819623206297923 0.6355216798622216
Ni 4.6502769179236685 0.414704902358274 1.4545508469598443 -0.7672665485084077 -0.23845362025935066 -0.29450804005075726
Ni 6.137148014107269 5.807027396369591 0.5838662179947463 -0.5316614534414456 0.09205474914541564 -0.11801389221333869
Ni 7.901270016637727 8.832941140673471 11.725345036531534 0.21425465441564395 -0.892967782063675 -1.9793871657547137
Ni 0.031127937948178322 4.559996740197995 5.902496621570649 -0.5130507803187938 0.44771107857071923 0.29120340115755655
Ni 8.14404816656066 9.034963099085216 2.209601229606891 -0.6344482442923848 0.14970505266903247 0.49577245285432037
P 8.619476620818542 1.4396863974907805 3.6907456048653593 0.36142588491922917 0.278773660034636 -0.8668348324220491
P 1.775900043191867 3.2159037858890747 1.7590680534429526 0.32291101667348254 0.3507792038386604 -1.695292093507164
P 4.7924113023795964 0.9840693511198735 8.258180010001425 0.48024350398078586 1.2468955588336461 -0.6337684446165408
P 8.615242329064209 1.7667967692703468 12.091556871245919 0.6803961717774089 -0.1748589262268408 2.3719475672952184
P 6.149179930933821 8.007499057737858 1.4150839836873412 1.9074818949739794 -1.0425820747911143 -0.20093942536397655
P 1.7063561079547553 3.0726541597077026 6.013955511672704 0.2877779204157753 -0.385831053236471 -0.4682014852145872
P 6.845616653953708 3.9868712973899347 6.097307590191771 -0.44501116314105293 -0.4188944114493431 -1.1017989514709026
P 2.3988305493972484 8.487388478897518 10.309702525280882 0.20725662583125595 -0.3852839224837494 -0.8023641635424891
