# total energy = -340874.8777343905 ev
CRYSTAL
PRIMVEC
9.17380648712106 0.00000000000000 0.00000000000000

0.00000000000000 9.17380648712106 0.00000000000000

0.00000000000000 0.00000000000000 13.42679309646981

PRIMCOORD
 96 1
Ni 4.314175184226246 1.4742857568428909 3.5170548759038445 -0.47747134055228735 -0.3006115818453339 -0.0378504951888703
Ni 3.2532978461503466 5.881510860995323 8.267507861267582 0.6261896038280182 1.1397494625727467 1.2638517270720104
Ni 2.9169494024775044 8.765957466834902 4.912017479574524 -0.5053559827776974 0.7453175550411422 -0.35938108657505846
Ni 7.892858775211637 6.854695782175392 4.1185345855526965 1.0364481939792343 -0.06234668055802166 0.627970349877525
Ni 1.3094141053676478 1.5195584922107035 0.35278240074232514 0.5076005558375 -0.08926973020111077 0.014446771552949312
Ni 5.992082751448867 4.969863834211865 1.15383918945912 0.40660145301460293 0.9920226166760077 0.47835554292945365
Ni 7.648257570933625 2.021934486985201 8.904098480759034 0.5333961767443652 -4.422979036859796 -0.4541630048436501
Ni 5.6847143626953605 2.8832540109869322 7.3657777193742175 -0.04795904437778192 -0.8880631456732061 0.3817196021712588
Ni 6.4655887769827345 5.592269914002058 7.045655904742628 0.24715063381271632 0.13783144115989812 0.15198305006993182
Ni 7.800918885879069 5.494541352730871 13.135056230928846 0.5284678862048124 0.46950092075230115 -0.4383478921882645
Ni 8.422792884888851 2.3028089223968147 4.322111444280288 0.9461302250192674 0.7884580949843583 0.8102700486531271
Ni 4.355429792321293 1.5623818212273088 10.547068523083018 -0.593465888342752 -0.7634075797736336 -0.8677745706274991
Ni 1.2018053544326042 3.526952495800163 11.286777315198966 -0.4229300149712974 0.016698543701603497 0.02214259753531025
Ni 1.8304587964893586 1.02778741781821 7.081895192791963 -0.8129044009521805 -0.9031506361339479 -0.0023168210586347196
Ni 3.268764884008529 3.7293174946813332 9.721951591904386 -0.7266186930800583 0.5641002906964414 -1.4354816048385923
Ni 6.144780761620546 3.491101259768266 12.713078559455255 0.7027418864624606 -1.4238311650838575 -0.5029489159981015
Ni 3.894088234284429 2.1753847492947043 5.759771695817716 -0.024328549443035523 -1.0251435675996927 0.07546367755595391
Ni 8.18554907347102 0.28257067224434085 13.165118795022122 -0.08043207730482277 -3.0463821221725533 0.5057223649781807
Ni 7.865530005472889 8.777718286843317 9.812018189937639 1.0082043686421924 -1.4151428932812402 2.0054586660307847
Ni 8.037603095096813 9.205639667586375 4.248344865740758 0.3235213965639719 -0.3035398112357224 0.14885401752264688
Ni 2.630001907123947 5.499366774980815 11.430322618566903 0.6246248304440597 -1.8517776594331399 1.2589851430083285
Ni 1.7125662084018698 0.9742307351277767 2.8965083267031253 0.38406984757099016 0.5597181024683457 -0.8049681768242395
Ni 5.191099353184542 5.522448072282823 12.280682195872805 -0.9164530096698087 -0.35451527384232495 -0.4067300081726673
Ni 2.912729451460444 8.909793579870755 0.49162888039083136 -0.15703475356122631 -0.5774183479615862 -0.42689825559042605
P 6.618910606000414 6.948864906501754 2.266698067639303 -2.72768102981536 -3.472879028559503 -0.2087954310732856
P 7.93093007243077 7.5788944195423325 11.852931447931743 1.5949414229015435 -0.7734662495612163 0.2713853379903649
P 7.92763667587615 3.301955716138366 10.611798902162102 1.65995356610687 -0.9884945489180911 1.322039648266652
P 2.5502264852883854 7.959157875212281 7.385662862471131 -0.5102917295164179 -1.217041194476375 -0.3117277463631534
P 3.4159310888252357 2.0200630304472003 8.103647163275122 1.149869324615568 0.4476277748282936 1.3800625046383392
P 6.03499781853106 1.320450194657917 13.21383079046884 1.690007190959141 0.33724491679765145 1.7445336041417956
P 7.746307215434371 7.893941284385578 6.1709270276938595 0.14054755453948056 -0.4287157684151391 0.41449911059512484
P 7.917380360143381 3.854604170855237 1.1821578129255639 1.343005708995358 -0.004531569321766389 -2.11905566012335
Ni 6.086141790096522 3.986239121167849 5.416556657935593 0.7165440824528756 -1.0336495481881747 -1.199783950057824
Ni 1.0420710346303041 3.541823236232022 6.3426294955328055 0.44484018478082743 -1.4605755716927427 0.8118841872177823
Ni 2.472487648508883 9.419939788800578 9.626849491450992 -0.6304254962862369 0.29844825564542793 -1.7567921097941746
Ni 4.888749036618714 2.8713831052998096 1.4620029472412772 0.7084109118227799 -1.5498854111031695 0.9863006265905657
Ni 0.7818183989822783 7.738674608377427 5.45087495089151 -0.2797357668375892 0.3988462345492163 0.8857308979956036
Ni 1.0038346088931123 7.8494666701883835 2.9154806760474363 1.0138595100454408 0.8032275399840489 0.7268804313818772
Ni 4.583958487508238 6.909417538298796 6.232059439840572 -0.1936953422070535 0.43916293189039207 -0.3165143691185194
Ni 0.24757168284175904 3.875511276002804 2.733964069951857 0.923897638873312 0.08818061090199007 -0.0913942327432813
Ni 4.34895308489076 4.505751786594235 2.9713757620297145 -0.7244129436779911 -0.4909580621848126 0.9380623604094683
Ni 8.585380258530945 2.3812908375075814 12.902396570648461 -0.944565965855941 3.5307005675536614 -0.3442084925996781
Ni 4.4741205015793994 8.230941068324096 8.42269472515867 -1.3256906147556784 0.7663422369219254 0.26425284071064165
Ni 8.96629505446657 6.173302126211941 1.8933929442442252 -1.2835144956082605 -0.6383763757021973 -0.9586679524749618
Ni 4.837577543633576 9.118405941018485 12.224356858362917 -0.1035277827820217 -0.832685697344166 -1.4463126340158252
Ni 5.595829350946883 3.233464076370162 9.645593413011987 0.6730492444940345 1.6539438695776807 1.226206663025727
Ni 7.098480517669668 5.162853202789914 10.926603578512195 -0.20946288945395541 -0.3559358083389354 -0.4118110222400005
Ni 2.097875257679173 5.4851290272015145 2.1147330446116737 -0.45435506624979816 -1.2785723211116369 1.1289084060931849
Ni 6.107645192670414 7.261856838675822 10.850581160939848 -0.6689881870507834 0.9629745502701157 -1.3061360896625185
Ni 0.20615378098996578 1.4302514853605202 10.75472680834863 0.9955892509813433 -0.8706246384817845 -0.33717935366703866
Ni 6.5675556368841 7.531676837184049 8.308244149292054 0.22428272807560728 -1.1107253074262549 -1.2613842393681245
Ni 8.441929445370564 1.0024401902961704 6.440577310780748 1.8686338117585304 -0.0035620063196454784 0.8851770823746626
Ni 4.294405631091974 6.52632855020873 1.4736169863447524 0.11887264066920816 2.0864880105999744 -0.0733602580597059
Ni 6.344916525507921 1.3854741355468843 5.283456650715536 -1.0971889635027168 1.3699475276915245 -1.8979307609504346
Ni 5.829660506324831 5.927306503336988 4.214885241078748 -0.48460692315580417 -0.5439217588660374 -0.16805501593112993
Ni 7.841696456033056 8.41404107343173 2.0574949133491827 2.2050423486978157 2.5725920871265955 -1.3884399300687573
P 2.4489568346854913 2.9299028173385686 1.6214996654537035 0.026040904148451924 0.6578329417649122 0.8029138653983721
P 2.456873829745759 0.7309468894716136 11.65038847720333 0.15702858291363925 1.3460784343834107 1.5947357346486406
P 7.951910568030807 3.190558183094527 6.594179858279128 -0.7287300829961063 -0.08844054943159606 0.19084373169087135
P 4.056959995929848 3.615745769483052 11.610201700191732 0.36800508079864364 1.9032532016046126 0.5542725059727421
P 3.4481861926860726 8.720941598050736 2.5622882061519316 -0.23058475903423514 -0.717834519129525 1.3752416862109282
P 0.6545850410565915 8.053914123158407 0.7668623421494222 -1.0273472601192306 1.623209159497985 -0.04017811488078242
P 0.989569339694136 5.963423779759091 4.099052172563715 0.3879799812586738 -0.4325667667301131 -0.5008904908071761
P 1.1828247486623906 1.1208556853575125 4.979420188504195 -0.7104531390637894 0.7882683475710552 -0.019975671790978502
Ni 8.234289507718069 1.677549788766826 1.893903007888896 0.24421597666442457 0.3506627328654542 -0.018886809602173923
Ni 1.229014864686086 2.872887609575457 8.899654688861938 -0.5783354604592168 -0.0641258839456315 -0.6909091554935908
Ni 1.4471771584615565 8.033447360725663 11.619076440656741 -0.21508229252326186 0.4801404027440182 0.3959396024253826
Ni 8.208703761225498 6.41204126809886 9.277806334262044 0.9804454533613696 -0.24326826803917456 0.7378405299378067
Ni 6.35947535651678 0.4031686158860279 7.229294412295265 -0.6519831678523546 -0.615829857860249 2.1729233566760833
Ni 0.8179237494558547 4.404372050312636 0.08278351300620115 0.28176899521753407 -0.2864273199251519 0.6064275907097427
Ni 9.305450682946415 6.040080107364651 7.245648557247686 -0.34925582521559845 0.1302546572539047 -0.8522980722584547
Ni 3.5092195277219496 4.550547484020989 0.4699878707185579 -0.5924605870066894 -1.0002835711332192 -1.2757163397200804
Ni 8.74946296264213 4.704465610464993 5.150477737742055 -1.5402993100766311 0.7075411076233169 -1.2592581941640573
Ni 5.347953097727371 0.10774635803342597 1.5754196351087142 0.6899071965916376 0.7509567556047906 -0.8059930185443279
Ni 2.397078958595323 5.8531271035023105 6.0241589660818065 -1.6538698218066357 0.9744928353223604 -0.7696975265474035
Ni 6.247022835718676 7.46009362460552 -0.05427499174398962 0.6705521891037936 0.008361998811450114 0.8083442923853241
Ni 3.3909599873721077 6.58507760741146 3.706116937894059 -0.3703442704547815 0.9541898620989502 1.0049930607937465
Ni 5.412564217321191 8.15276188882977 3.7330246299117555 -0.3765966791223966 1.167238412021635 0.5105226145803015
Ni 2.1981449633671546 3.155119768357777 4.055495856403059 0.4993462862485078 -0.05081142622491249 -0.10590348210304988
Ni 3.753554691609755 7.096654930164461 10.536071881160952 0.609395415088815 1.5780585311032758 -0.9852888974965999
Ni 4.022952695016276 2.0308239055407045 12.946919806020418 -2.236770018818399 -0.28031503637982697 0.47578135444437414
Ni 0.44511309423429785 5.908582764150421 11.234654498473677 -1.8379993747021248 -0.3752062265327732 0.36605489905080824
Ni 1.955185870463174 6.596920991678905 13.50560829497562 0.7233145684074898 -0.6341751931366562 -0.43849547350972223
Ni 6.986954551334004 1.4110415344263358 11.290939471234706 -1.1173626102371146 -0.005192085723900735 -0.5373631318119132
Ni 3.2118689357306827 3.936315265874711 7.14200656026868 0.2556514721948759 -0.43805195821440035 0.1284245460237014
Ni 7.567317075665093 4.0997007606874245 8.605607584612505 0.6428040724562477 3.510979692085966 -1.2394969523767299
Ni 6.986321558681445 3.780094513984442 3.024895749493913 -1.148635966429099 0.15535788007943566 1.3386862556843977
Ni 1.487716209645014 7.216804274665422 9.345866805121982 -0.5654814873146842 0.33357106749049004 -0.7113388841028523
P 4.037713349769429 4.720418860070793 5.255099497261545 0.34248353948877147 -0.5345084359719375 -0.988868130207426
P 4.8036528069790325 9.074729447991908 5.81667498314081 0.6541220685722283 0.5066932135318822 0.1275370012124255
P 5.340063624086779 5.532933733179563 9.221669059786612 0.4245318122407785 0.3276711570662873 -0.2938896897404681
P 0.2613434012478705 0.1952057602426614 8.750173932650439 2.690575897432947 1.7581200845769787 -1.504430878314796
P 5.963020132270502 0.20173384098992286 9.683161985631697 -2.9078467129670953 0.7379186914739098 -0.7184837226777496
P 6.397775998899884 1.6494412454705794 3.070573049730969 0.4868602379663551 -0.40247534666137136 0.027205613880514436
P 4.078013881982357 7.231968576907163 12.75464782911527 -1.5675103232737841 -0.607193779451806 0.30849766946163
P 1.071445563231669 5.088811410053618 8.902635258612902 0.3285219351023568 -0.6610887296980485 0.8334387734601065
