# total energy = -381170.02696289675 ev
CRYSTAL
PRIMVEC
9.22608087006707 0.00000000000000 0.00000000000000

0.00000000000000 9.22608087006707 0.00000000000000

0.00000000000000 0.00000000000000 13.50330193988657

PRIMCOORD
 96 1
Ni 6.761683905480296 8.893904987047657 11.044634509308253 1.0269759928227409 0.019654283895817762 -1.3131451739904998
Ni 0.10529172452394271 6.44801561043587 4.684767642661517 2.050046737053805 1.722287905369718 -0.1644986660384393
Ni 6.281798538739876 8.880647108937803 13.275555280667831 -2.2725967987090216 -1.6697741517417177 0.6334812523934251
Ni 2.409197253269482 2.4098523050062943 9.14970269027297 -0.6477686155503748 -0.04466751811070372 -0.21661544133833663
Ni 2.6371275794378604 1.8067064987755077 0.884257107347547 -0.5664911595261212 2.414690100469067 -0.17874514865512445
Ni 0.998981576881591 4.846690896353108 8.663880340537638 0.47383554357191304 0.5707476208096299 -1.9581251710521441
Ni 1.8182944562605305 4.085400839126483 1.6246768471960908 0.5251316227427278 -0.20504264889907267 -1.7272964143279026
Ni 4.563035042151658 5.642163582944389 6.2958332528531065 -0.31787988200747835 -0.17796147641156446 0.35753734849810037
Ni 6.001122708636885 5.096357868886704 8.136212178725021 -1.0897062819724266 0.9836739876009962 0.06704125782021357
Ni 8.872740357692049 7.4899261412806855 10.521962270248933 -1.3463360589201718 0.5169249185622194 0.8722315779575882
Ni 2.053863977331456 7.024544173558145 0.8737476787080651 1.145964333134207 0.3121082696310238 0.1030798966113257
Ni 4.838368971471347 7.68169945679317 11.436742943315785 -1.1319088834824056 -0.08855727751511845 0.49029960266520717
Ni 0.27924301975472443 7.882219096904222 6.712558715651672 0.2643016916707061 -0.02814895163039023 -0.4954513220694758
Ni 7.7662841655691945 2.406106516201423 4.525280074301173 0.2869716224643961 -1.646718812584151 -1.068266366931096
Ni 7.0963046300219235 1.9241729595233643 7.8192898449823725 -1.2083390387166868 -1.0458964838763278 -0.46436334241541966
Ni 4.496201312835174 6.016926985047588 3.1528590379112083 -1.7615306529204242 2.5219662945499275 1.1907704337053042
Ni 7.153460200579022 6.721043019555514 4.104882631344137 -1.7785241021546272 1.9741567705937098 -0.9275262367648349
Ni 6.462915730928157 6.431307178106749 10.501369657902938 1.2857238445547534 0.08500195606369232 -0.5840183697766071
Ni 1.0818963650327837 0.6335355937784906 4.483028314668681 1.0080722139397027 -0.3467328016834287 -0.39333636047458065
Ni 7.959589010494508 3.084989219720864 2.321892695873565 -1.7412065966510917 1.055875963686543 -0.862439788678147
Ni 4.801289352735435 3.081898482652805 8.698016839498294 0.009191950911913202 0.09598185211396373 0.27226876903658265
Ni 7.9946757957775825 8.673466238489022 8.55107397320195 -0.6228294291065338 1.3503492938446229 0.08079768817435763
Ni 1.4680355247626018 8.476729291506043 11.252976943329775 2.6212319596214857 0.7327687718418542 -1.4324263629520364
Ni 8.067331182078977 3.1807928427499044 12.307287326770028 -0.3044234993922563 -0.17626789075922544 -1.2905631749249258
P 3.3951792823036233 4.628411050701714 8.011954399900155 0.2853888513583085 -0.17152266276475622 0.4324790921123132
Ni 7.151587306176586 3.6461471322300443 6.370344926611497 0.04030872692137574 0.6191450382764111 -0.3338726578913089
P 6.281641695366274 3.509075249781811 0.982954951923603 -0.5861796390939841 -0.02163454755064016 -1.0638466405968452
Ni 7.130634876679383 1.5145718763186957 0.17378338056021847 2.0960861958113712 1.9181540299758448 1.8356884671807612
P 2.9740732763411337 1.6780672541786366 3.1460529581049173 -0.3934551454406321 0.232309969255458 1.0033079597818397
P 3.0556226045339 6.941103498801342 10.368942184529514 -1.617814213734659 -0.7997904892780419 2.0552313665785378
P 6.448873635950286 7.262327954021113 7.788555924620822 -1.7061231226843974 0.09039510205480561 -0.027297402263372343
Ni 7.516386541015594 5.909341656836721 6.3708578967039875 0.11913103653691741 0.5374217529639906 -0.673846029363717
Ni 6.679525655954718 8.997375483221644 6.56356304637729 -0.6548928852999818 0.17944320316341356 -0.7180957432107117
Ni 9.570398135639852 7.557765513404388 12.935704290920581 -2.310351905970608 0.19744503905747288 0.6819329201369094
Ni 3.2867820589823404 8.325873644342344 6.852682585628603 0.732712464682622 0.8850400425761662 2.171916512678124
Ni 6.291688897357667 5.344290338229866 2.1459716323919453 1.841798436733241 -1.0371894430206332 0.10508561418744483
Ni 3.7627555674634845 2.754658622751318 10.897771909914871 0.9466616720427052 0.47766417328938376 1.659123871116723
Ni 9.096454364934747 5.447834643050255 1.9540894491260192 -0.2033205240016434 0.23676749080617934 0.6423009075675841
Ni 4.504126516242526 0.9626769489328936 1.8096994393870853 2.182430267725254 -0.07068528233070408 -0.6224604758028893
Ni 7.70200606063436 0.5653336366793403 2.5391604404611785 1.2034691122188952 1.0504342238456812 -1.3474156651375955
Ni 3.914460014060799 0.5319675154654994 11.868457096982318 -0.4137174952340939 -0.194096177189898 -0.41912452518227816
Ni 2.3209036600117856 6.138213043246719 6.81342837964809 -1.4750979336786338 -1.343699649738589 0.9263414724281143
Ni 0.1642906660249161 2.454866353230359 0.5029911634963827 1.2917973044423432 -0.6286516922152657 -0.1267283892682011
Ni 5.556167283805936 2.339687960520947 3.3564214394701586 0.6059311106892984 0.22929149414410835 0.41488863272405974
Ni 0.6770144221574058 2.875391116102438 5.192802704531357 0.8084085699643561 1.3057573661668607 0.44067345499764754
Ni 8.168716583992126 6.4352374885276244 8.61302710577514 1.4989611134494765 -1.2888747314789093 0.3554120746249814
Ni 0.3263716856981898 3.189465358702071 10.17464369070202 -2.0982158405598637 -1.3597255928532002 -0.12012708190159954
Ni 1.9377537504612252 4.518436167563602 10.679275251364674 2.2328565426966063 1.3855417825853558 1.7983393371083418
Ni 3.449244115792662 6.039650822058425 12.578298837234836 -0.09430240752901177 -0.00715435165659413 -0.9616843707037823
Ni 7.924409964403432 4.126217020586467 8.545645347259127 0.23666336112814723 -0.7309934251089862 1.7576176910192634
Ni 8.097832605204363 4.722295648924318 4.1952188788909925 0.1395484238510048 -2.2610592303830677 -0.3862712260976831
Ni 4.026169400389345 3.0740101835686535 5.320868086902457 0.005246850221236125 0.09285616200078846 -0.013367165335525365
Ni 3.0909861722409797 8.629310215779373 2.6435544673232645 -1.0377617705843352 -1.1284301809051858 0.9117787441225911
Ni 8.876596859466524 0.8268865691078049 12.01476520891961 -0.9401287560201937 -1.035269600290101 0.5612237404795948
Ni 1.361280543823751 7.485008640214191 8.838950759369482 0.0912592498273138 -0.2488606745252875 0.31814984783941336
Ni 3.3574999683156994 8.82170167870547 9.32974227622379 -1.3072630041781097 2.5990497670974917 0.4439346422474226
P 8.439049977518119 8.803775403710725 4.428205097337869 -0.17243463305606432 -1.22444520024993 0.30573913287988636
Ni 8.786236624109588 0.9447045435341482 6.3609730737346775 0.14940629048169107 -0.5209378963763545 -0.31827300368083894
P 4.098575682509136 8.112889569070253 0.6050150102009026 -0.5062214161017863 0.1143097038888741 -0.7451167518842459
Ni 4.636105602089062 5.118020706605519 10.225375141197954 -1.5510125827290775 -1.2902757255914938 0.21756726372864468
P 9.260217299137894 0.215349642389257 0.8879733726938585 -0.5047443173356274 0.5161155352870466 -0.8900354389082284
P 1.5760544787710768 0.2995588496767147 7.6590189823620936 0.16639408328893926 -0.07272802379234572 -0.382679909201999
P 0.37987188304225755 4.875254842510456 6.224738919423101 0.24016237542034125 -0.21668691800622036 0.2693798775245619
Ni 0.4824003963665472 0.720806014675447 9.460831967881187 1.7452753674038266 -0.07283215347037779 0.4281269857912046
Ni 6.265634445177966 -0.06358522626674151 4.094822512839624 -0.25882627037843164 1.45497185235272 1.6996164319141311
Ni 7.9019352315742 5.174023017062596 -0.08605811387981321 -0.6002474300409598 0.8780975498200619 0.5984954803468596
Ni 2.359846947069334 2.2645046280803025 6.8951373190386995 0.2822909291592752 -0.5280683367735486 -1.1711110076031637
Ni 2.3922489428395566 7.522097485030904 5.085329934506253 -0.2893835743399984 0.23322682464277253 -3.2939500460283466
Ni 0.19527738100039135 2.714183806280941 7.651713771584513 0.594743212393279 0.0392921127314033 0.23957205013451
Ni 4.535891912437537 1.3281035572663136 7.161408469188374 0.710808208410363 -0.3089761517599453 -0.025534653935994734
Ni 0.4845020975728276 8.119836807912787 2.5245094241504975 1.125809455452887 -0.32536102087587193 1.133037340659894
Ni 5.0228813613940915 7.616572552424718 5.097536962012967 -1.2409758509151014 -0.5189422061025644 0.1894226829736286
Ni 2.243081668462291 4.971639708629908 4.407153948776104 -0.3477697275883752 0.05904358432671766 1.641002221815348
Ni 1.5810181102415721 1.8257029991430727 11.533966460179974 1.6821565845664705 0.4280174567965338 0.8500583842946587
Ni 3.786660342816744 3.9521024237255222 3.0025403486500806 -0.10325524584692539 -2.4701655078285523 0.8974019065756286
Ni 5.709283320765679 4.621030186061573 4.649578447881561 0.8131579117238834 0.009213033957835745 -0.9707534228845863
Ni 7.646225176116488 7.496144519740005 1.764854228441664 0.1762735471861803 -0.820472957328058 -1.4815421466420806
Ni 3.5289205495829923 0.6848206091224358 5.157180806561873 -0.06486456188386894 -0.2789302402171583 -1.8731795221476835
Ni 4.159071094315898 4.567851056329351 0.8711855960698559 0.39766301287439254 -0.32188411807086503 -0.8694095351277609
Ni 4.946461734126224 2.065784073725285 -0.23515342482683743 -2.1376097689764544 1.5906008865446606 2.1556470860941395
Ni 7.698859967081499 1.5493818791777645 9.89454449064904 -0.16963367327215945 0.931795296453834 0.6555989102280708
Ni 2.0906391354009624 -0.046268795212888854 13.389266726530014 -0.2999834613430318 -0.6253575948450263 -0.04299295862175821
Ni 5.824461713475091 6.526760210065382 0.2066522160189299 -1.3284807759063058 0.29551616960029753 -0.37326735763884744
Ni 5.549090879832201 8.102999210452463 2.2232372912691893 -0.4086495937928833 -0.8625256635237338 0.11895363041878869
Ni 1.0962060163538587 5.355684548018085 12.955729499297366 -0.3831907874001465 -1.3423012267291656 -0.1905367419734138
Ni 5.33511038783369 0.7617679682120739 9.321761716331636 0.7156441963464255 0.1832839170657424 0.7534090738000251
Ni 4.311771957639631 6.930631897093141 8.725644338454424 1.8192735161578475 -1.2780637569063344 -2.4931671109300484
Ni 0.8225429302670815 2.497776855031984 2.7658812274366538 0.9983123063394614 -1.548722758253636 1.768046856772387
P 1.9324672061627237 5.911352942451161 2.583344141413227 0.07861405025947751 1.4020968587305596 1.7502085430393857
Ni 5.544929917391322 4.54280224695687 12.3484319567065 0.8402732798834367 -0.9348415394793255 -0.28268045128820996
P 6.058490479052386 1.91821291132645 5.647675243614414 -1.5721416513982087 -0.6771385840720595 0.22576548326872087
Ni 8.457031608997664 5.218529630842651 11.01376588816702 0.9048460215584998 -0.26931431439394904 -0.0706315462746332
P 7.409760725207945 7.2092779894200945 12.38486390457024 0.752125321991595 -0.599863821449296 -0.48845175082319103
P 2.4875728096669874 3.643683768656397 12.925549143783826 0.6105287573623098 -0.268206426041751 -0.40881542994678627
P 6.9125026483207925 3.730990171268474 10.486988043151621 -0.792244301499668 0.21866435344756538 -0.22770692326580785
Ni 6.096003723585907 1.8678569623190824 11.530645071091909 0.49997080720638415 0.387296582038404 -1.9891928389912257
