# total energy = -340865.43332265475 ev
CRYSTAL
PRIMVEC
9.35975231437397 0.00000000000000 0.00000000000000

0.00000000000000 9.35975231437397 0.00000000000000

0.00000000000000 0.00000000000000 13.69894361034881

PRIMCOORD
 96 1
Ni 0.6278839887498194 4.744233665579763 12.045028373257566 0.16866770981446436 0.7300757983907233 0.7670253790318791
Ni 9.130775047911165 2.805800942699679 6.305747302609205 1.4003891320108335 1.3775597928211438 1.8422972307465306
Ni 2.4983986070620943 3.3425172028606256 11.218037187682922 1.0349199302601662 1.3310737334444627 -0.2054681664722655
Ni 6.299983567314451 3.3304244032490264 1.0612376994132624 -1.9956000280691502 0.7286719760646613 -0.5411817342270551
Ni 1.9520418023191444 8.497110476312951 9.483079857896032 -1.1675790831905053 -2.8593793614943275 -0.025760396793555632
Ni 6.319966637880058 6.257761725946088 1.0494490917423573 -0.17033069933918407 1.2123101075492928 0.2948042311349375
Ni 2.0455831640206337 3.4293195431067347 2.196584043381263 1.2678495353774941 2.047329595232958 -0.4226610775806269
Ni 8.157033246368794 2.2410428654827315 8.730760773947813 -0.5657640515521094 -0.4077630774228719 0.007186233335794076
Ni 7.210088414863582 0.10846548629955075 10.144067417595002 -1.2894133775911987 0.05180850003085917 -2.4908191795231622
Ni 7.600361994898304 6.905821596153154 8.209352388217802 -1.0488856484116387 0.1416436158171367 1.573270365686013
Ni 3.994854479741455 0.8143704959490374 0.5173340856751114 -0.17784886209310016 -0.08162275517881427 -2.638202011816921
Ni 5.144943369118302 0.5058009992343895 6.668960903574967 -2.1234841282083496 0.9559297276081923 0.05769066984324903
Ni 5.957023533747713 1.5285972611207168 4.76968470327625 -0.9695935982485302 0.003988809444418937 -1.0937195168968776
Ni 7.1887762595109415 4.730268915563892 2.5875932999248636 1.6068317465812263 0.17856954230920857 -1.1618429520376765
Ni 1.051371584807545 5.104556039146127 6.414406535775598 0.3343405986666629 -0.4787391515211174 -0.7408546341737821
Ni 3.2687155581721887 2.4892728488412668 8.707897707685232 1.911053671485638 2.0076376759599746 0.8129727922962708
Ni 5.95604075978547 4.283144201751418 4.20867146284305 -2.7274177488516447 -1.2588835844334576 1.7756452379449352
Ni 2.2221642456556445 1.270614416155923 2.326614398338031 -0.9217631090288125 -1.238546929758635 0.25883064125380584
Ni 2.0338553947378673 1.1163469833398383 10.135793396808118 -0.1115128578700273 2.2375655181365013 -0.6805355255687506
Ni 7.1429228343582905 6.6388908282559385 3.747551111833035 -0.5749002095254229 1.5937080647150748 0.46132044182403775
Ni 5.796906255918278 5.6233483741861665 11.010662521897633 0.19829633131417462 -1.451336826703294 -1.0941838581278058
Ni 0.28094138069799246 7.4113324430748815 13.262974528814082 -0.47144878850729127 -0.07974353587823041 -1.2628803642976767
Ni 3.6985621697532274 8.871753270471999 2.2170369734983426 1.21575975666079 -2.392455971661215 0.5332275123769848
Ni 5.8934988967787305 5.965915298168007 6.103153598156425 0.6974269020074506 -1.347288395531112 -1.395417646938171
P 8.465867624065647 6.222503540081618 1.2687864565861509 0.47913510140795545 0.06651546722373061 0.038704358548733345
P 4.965844514189546 4.884873299452744 0.05798459974753824 -1.098169068027799 -0.6252148986195749 -0.876597825346084
P 0.4309819495012299 6.987316957003151 8.701473173897769 -0.4540295645895794 0.8792185507983826 -1.4679556662068978
P 5.780133580295997 8.70061956451342 0.5718059704890326 -0.3752455644111408 -0.1089623235340317 -0.19829478865227784
P 1.4288878228371502 -0.06382134110805943 0.5251232713072886 0.055881384548652144 1.3649534169110429 -0.2731334310297231
P 3.7764165870669144 5.066798799491953 9.836622027098118 1.3073378232801034 -1.0173125015910478 -0.2507722897257036
P 1.8722311968329928 7.117492388116251 11.708075428538136 -0.5486700721843003 -0.6687945829827385 0.4384952163994061
P 5.010518610587504 6.986034670976225 2.8697364727823986 -0.29917484939880734 -0.5749194927991323 0.22395311265033044
Ni 1.387592596918902 1.2018576778069994 12.198936391596028 -2.28975659831776 1.6816739885030976 2.6169505586373125
Ni 0.36543841402123994 3.170597277732253 10.338647302367091 1.1367847235174682 -0.6297451823897606 -1.218247298969334
Ni 2.032367194166471 8.500919895385646 3.9059658507697845 -0.29530173959664624 0.10601686775246259 0.5728083599934005
Ni 7.620691376288701 6.581225396052329 12.48046369277056 -1.3502870731481196 -1.0390275246706364 0.6580980225008408
Ni 2.606719017205314 6.2451822192293776 2.5970316738632047 -0.17773701910558423 0.47854734722528547 0.6256442728475096
Ni 1.0609840501334835 2.7645525155415376 4.24149424123156 0.40999145253275837 -0.41282172289270197 0.16080501923693596
Ni 4.614498142811668 1.9516580524862686 2.469426430655171 0.3267537874583405 0.293375726218527 0.8381827159029953
Ni 3.5041881995256077 3.059908850327629 0.1837384840057463 0.02927355215313668 0.7793767015083802 -0.3246691370151699
Ni 2.1385161418407344 0.9762689345881382 7.745218197056909 0.1412533223572535 -1.881222704167134 -0.21431096157487606
Ni 6.952330203947301 8.623167616536652 5.18063865540217 0.9660873848674846 -0.17373998213104916 0.982007912752483
Ni 3.2118925036505015 4.752582564382817 7.573241177441205 0.9664270275950904 -1.891330224914781 -0.21663523883267854
Ni 2.9413582312250606 5.268913284641239 12.714989127219416 0.7136906721644805 0.7248088935648291 -0.16737701602749883
Ni 0.9145919126681727 0.6321698192004009 5.806242608559585 -0.4821895719635631 -0.9392342692303824 -1.4535664873647611
Ni 8.124891857927437 3.7850462784306096 13.461361960708462 0.7825489285887749 0.1527088724923628 0.47991337433487674
Ni 5.742881767250977 3.0318483137675862 11.967396718041986 -0.42090501412146863 0.5696165925289803 0.08234292117429044
Ni 4.402574637543995 4.752863356943458 2.367149612392145 0.6997663487739045 -0.14184184787087184 -0.893527511221887
Ni 5.344268648165223 6.079093419610313 8.343902567425685 -0.8953475951497611 -0.35954332318453563 1.6286249311969179
Ni 2.373502076089043 7.358300088121846 0.3078141647265242 2.9138561523859687 0.42638969138512367 -0.2917448754833234
Ni 4.146070633398575 8.614837437237641 8.54989386186222 0.5778873171782047 0.9709426560772567 -0.2573576562527052
Ni 9.130166664029776 6.930952530330511 10.831028289153252 0.7961251246113128 0.29017264590019703 -0.8166456131621677
Ni 1.0634831039231871 5.431772969812934 0.8060786916333131 -0.32012779750139064 -1.0682308857074698 0.2507473500250391
Ni 4.930801602621567 0.14689756407446425 10.525774952579773 -0.17549553136957516 0.8726085016810328 0.0413857620356384
Ni 6.50549564244749 3.076073142068521 6.805196774121899 -0.7641688834196904 -1.2923482918498064 -0.8662982431922885
Ni 5.058992766306138 7.027563890695007 12.818539807732549 -0.38506897825946584 0.9606695562860228 0.7624205332700159
P 0.9576523878176497 3.1479747570966214 0.26026475250760217 0.46931940086911433 0.5171015533493998 -0.45117872540434556
P 1.6941525548745637 4.810201197826321 4.100531695913842 3.340824599092698 -1.4539310697930317 1.5360716451485288
P 5.935234031041983 1.6071349403319635 8.641252529392329 -0.5776705731817083 -1.4937505157828146 0.2893622341837597
P 2.285632724112499 8.01404431473845 6.067480775277409 -0.24394703927375408 0.13726708401599585 0.26521957549928515
P 9.173371279360383 8.257650580598433 4.21245280265968 -0.8768119982394189 -0.4940698683409168 -0.3652123485448549
P 4.476329483472325 3.7817797249751544 5.720624276944179 -0.1272274403918067 0.5123560682446144 0.6533767057657716
P 6.252230112501462 7.711378013623675 10.859727160801151 -0.21386101852165101 -0.7185233176664335 0.7444163833831114
P 7.9240970978131635 4.195050215726362 11.437467214071727 -1.5140210931063927 0.6353270473529122 -1.3941493217487086
Ni 0.11192204272103963 0.10445108865758869 7.9878267133514145 -1.259499620750902 -1.1300983126362278 1.0542384280831198
Ni 8.44266479880469 4.8021424513359285 9.368666249186905 -0.665764280796847 0.8336840567016932 -0.5599960387200807
Ni 8.020811415449895 8.641334895210115 0.6453062311623822 -0.7405867252243761 -1.2249321671886775 2.950150358831313
Ni 8.892400883431124 1.3668420266875432 0.23433917538363222 0.3650495977147455 0.7626192795443834 0.2925912826440187
Ni 3.4271948793978857 6.1591473786490205 5.433411862391874 -0.39679860799156824 -0.32254463447299936 -0.429729297281318
Ni 2.9488085938340647 2.1431960178514156 6.032508061849591 0.6853699708429164 1.3216418986076013 -0.7617322489537397
Ni 5.677737893182299 3.5856648408715617 9.148168275092463 -0.41694422970150774 1.6226221766462638 0.5709615365926489
Ni 9.186811883263058 0.7634871400601064 2.717720060327452 -0.6899529622279085 -0.21308325981536208 0.46790426568914256
Ni 8.937365132141746 6.9399378922710175 6.521176035008878 1.2405421058117925 0.996388349843871 -1.9556869939242965
Ni 7.30843132935203 9.077415101637381 12.367132071395103 -0.3910953869592039 -0.5914843391363491 -1.4539192427184897
Ni 6.373055151345221 1.4033356998188327 13.56647478383396 0.28533074442686346 -0.44843175878682767 0.4511758971908681
Ni 7.097687152839049 0.03857621795604249 7.625736282628216 1.1409727934568865 -0.663205004710103 0.2979178370632547
Ni 9.034678473907844 3.5746858517505045 2.1544324001530604 0.6402334835155941 -0.9641716559020105 -0.19978679981677205
Ni 4.566014627341014 8.476434784097764 4.434703858307723 0.2232342322064349 -0.4641103458643491 1.2551796532193094
Ni 3.795098652101552 7.162821667155706 10.760040185922437 0.4278976433892179 -0.643292324946576 -1.0189790906601934
Ni 6.564171927869408 9.028716311870237 2.8013793958447875 -0.28087656531025174 0.11913952117734965 -0.9083180392675001
Ni 8.177465585031428 1.9537733564430964 11.560113660658843 -1.0711783983715681 0.10471023312589708 1.2389346521153568
Ni 7.934842093133687 4.752863356943458 5.127692410167731 1.786765259117497 0.6071274449902447 0.9607461751602291
Ni 7.978973323914409 2.5552403810878244 4.2420970092617365 -0.0985059040873981 0.37453593993862594 -1.6645596974203138
Ni 9.549474194834762 5.813136065923318 3.454749989348775 -3.200038703290166 2.302581775106886 -1.1686671740483616
Ni 1.6443493143688979 5.589812382693627 9.768757273116831 0.4305679911325294 -0.4892001989534413 0.5468849552594194
Ni 0.6330692913696538 7.8340282041116005 1.9329348045427364 -0.5584580048089994 -0.1723346171430903 1.4694749310649016
Ni 3.079002744451207 9.152639428633066 11.994260142318495 0.4152696702125622 -3.396156024675151 1.2102707085217608
Ni 2.8544154946986313 6.930503262233485 7.91339983722795 -1.3270304166130245 -0.01496099218520649 -0.6271918198402876
P 1.3759116263962425 3.4869568960542803 8.026977620081569 -0.4319057361073465 -0.6533558798301651 0.2723677565082922
P 5.340009960995502 7.737444923003167 6.912267657370267 0.111660182081169 1.616860591572138 0.08948673130792331
P 7.051974123966718 1.8100637239071078 2.279681793777317 0.7328189083534992 -0.5738555703109924 0.9994363926415755
P 7.49703033258247 4.817305249610534 7.298797336596443 0.5273949648556079 1.3510231799831958 0.6843610699624278
P 7.943303308960998 1.1857963433383425 5.937299728313096 -0.7214980840240413 -1.4342708723599429 0.10015809497884041
P 3.6923566541630644 1.6747497889342808 11.553414886137155 1.4561152219285438 1.5848038202469095 0.7813181415054672
P -0.23256550237558415 0.5541955970608404 10.277316591271916 3.8924686663036576 0.9525600398050111 -0.696420058009491
P 3.488856925714617 1.008372884021409 4.282591040406956 0.14071853289970604 0.411994084785084 -0.771172311320717
