# total energy = -340857.9362627203 ev
CRYSTAL
PRIMVEC
9.44525077847075 0.00000000000000 0.00000000000000

0.00000000000000 9.44525077847075 0.00000000000000

0.00000000000000 0.00000000000000 13.82407925486496

PRIMCOORD
 96 1
Ni 6.294928976943651 2.863488304941859 0.545769251374564 -0.2027692794838637 0.6778592642881681 -1.3693476893239964
Ni 2.6822150543953147 0.04077231349699183 1.0456421407724834 0.07803606626882045 -1.411417879021169 -0.9437974631210326
Ni 2.8243188504808066 6.2752828555838756 4.4274102395862664 0.41812693715569926 -1.3394581008534157 0.231148344847189
Ni 6.305743788942182 2.69213256758174 2.9549107750695223 -0.8041721632855053 -0.7821858888224013 -0.4384137124291933
Ni 5.398980835682004 6.604600964877113 11.684830093172216 -0.5715860575505253 -0.9306213307503907 1.7465814878097599
Ni 1.202455970226107 6.528207777589678 6.600541396146137 -0.7740730299072798 -1.4733552399559142 -1.0295344975785365
Ni 1.589654575525452 3.5240607999123497 12.027819258261676 -0.39842894450613964 0.20122661758709215 0.5108627715285395
Ni 3.1535708430194673 3.326891192515564 1.6598431776584464 1.4511655912327523 0.2403400386487861 -1.4200483010026574
Ni 1.9195205093566061 2.6817900181158967 9.428173640556274 -1.571586293115371 0.4565628725343943 2.336308220825054
Ni 5.602507096768756 1.6869595477602635 9.20275895560455 -0.3477668993748978 -0.31918137442772126 -0.2089658952128788
Ni 8.980799343341962 3.7263875141660767 0.27768659111964256 -0.643912217918762 -0.7376962910504585 0.9398261371781105
Ni 4.011407397893281 3.5922744001336473 8.499582713035307 -0.05177070481438826 -0.8034828505279646 0.07109665883650981
Ni 0.17386534045881727 0.885595202020085 8.384884311721637 -0.14503927176224699 0.5023979285906379 0.8847906455695214
Ni 4.7831788288102315 0.11565426067982855 11.283475890718115 -0.061954844436241684 1.7817436375331894 -2.409177398180954
Ni 7.232483447335016 0.570750050303571 3.4017325251205897 0.6117011804038562 0.13487852917916127 -0.3467999074759382
Ni -0.014387005795774076 2.5454383796785316 4.0107112829201 -0.9851217757911163 -0.30786646363553427 1.7232510406139354
Ni 8.34131809308127 1.7643917126196094 12.621661057363504 -0.844506601238494 1.048622110337607 -1.5415938605183386
Ni 3.7271903604716443 2.6722597602062743 10.851418011963904 0.44451648289282153 -0.8576259122292713 0.6667567266171034
Ni 2.9399948352371386 5.776044687029888 11.695295430896557 1.1462458689303678 0.10520362782254784 -2.2239438135880083
Ni 4.562981700319633 6.421684240716818 8.054641512389399 -0.40033053240422667 0.30835163080206895 -1.1899361107294668
Ni 6.853020502321082 8.27880942425483 10.999501596238277 -0.12458306079042415 2.1065071340343784 0.09547097391581622
Ni 4.18347152905243 1.9669262223877184 5.9289954089661325 -0.8311641184933168 1.1481389721880226 1.1034799387177512
Ni 3.952960186847949 6.333059453832793 1.3645364714442552 -0.4481941888547249 1.2714789045999653 -1.1761945927736583
Ni 3.433839765667842 4.884951404604262 6.648483599414381 -0.24676599677978792 0.20823133103969949 -1.7121554449214063
P 2.1548017031412257 1.6841637535667568 13.4722285473342 1.2177860430621994 0.6054554566044605 -0.7843268464248041
P 5.829948732510772 4.4425169734818555 12.533380077603274 0.2524314225956814 0.5545861805584191 0.06374124691270312
P 0.701921913282426 1.716022584021816 11.120020161004783 -1.0436804500616155 -0.9096367580789237 -0.5323278833808509
P 3.0938768588878416 4.197252149756235 4.058335181241314 0.11940897278865241 0.6961524061704011 0.25959862976808196
P 5.393682050065257 8.782392408109537 9.01299536924536 -1.0642433618146316 0.9934719475280244 -0.5074354910145453
P 2.8850990384376116 5.73602516001 9.086844006006679 -0.18934580698910616 -0.6899447346977925 1.088587594986951
P 2.047144736189917 6.702982695686451 2.170076562498451 -1.3360387907592215 -0.057331486731617386 0.7258008251644532
P 4.845498592623597 6.753080305153879 5.840949615947181 -0.7125884402392372 0.4554637259329446 0.4535783359847737
Ni 5.3792308165650375 8.428903902393383 13.099006079427193 0.8455478980188147 -1.6989615719389513 2.6222010084029743
Ni 2.617552868419823 2.2478752030831624 3.601849995246407 -0.6621107432046597 1.0335904128154652 1.7117430399743359
Ni 0.2956136768604377 1.4696715564710152 0.5804493781998947 0.7131849361726555 -0.039247889757029183 0.5369764378964558
Ni 3.8129060101543186 0.4417326489988336 3.2895229473541794 0.0571957324847015 -1.2008586711792415 1.2814434720118446
Ni 1.6814435213784804 0.14311349338037632 6.501478662764665 0.40391516443169145 0.7031573767333245 2.691120457082507
Ni 9.170979465254982 8.86340432296665 10.440608169080344 0.3699591192012209 0.3817635680353167 -0.287557319764537
Ni 4.43600919578143 1.171418876577923 13.651264218000875 -1.3149883978468258 1.2454691107997646 0.4819522591417765
Ni 9.24368900478746 5.940628179671276 1.5306850421189682 -0.0755480097396441 0.22157484222614096 -0.10530621483868317
Ni 4.889664584680476 8.581898072482636 1.8007379816602593 1.2862313803187913 -0.5116677839283381 -0.5952039540797813
Ni 0.8700520975442935 5.053889157797024 9.385361152918076 -0.2627544017882443 0.5617227916032003 -0.2605535374821835
Ni 1.4182043856587958 6.684073303877667 12.800655168927301 -3.0495474072744124 2.0888236007116863 0.9146334399625667
Ni 7.515113682646825 0.7956896391474124 0.7983588669821587 -0.8914261486081679 -1.5331760687682885 0.6195654136432813
Ni 7.36592594857103 0.7746031170629417 6.001475428907724 -0.22210500369799813 0.7505042414484042 0.8620009013685154
Ni 6.941465829442687 6.707658094760051 6.869544023814732 -2.188082580915025 -0.8961994016270953 0.5971502791728748
Ni 2.949950129426179 7.731334360612201 6.5993390157379155 1.660414822014005 -0.7122377417680379 0.5546879962436061
Ni 6.6578249523109285 2.9533882006641394 5.079948604350687 0.4601719300418914 0.3486541870758576 2.231633983143415
Ni 6.742671638933459 5.702050593408503 0.40494906485291543 0.43788766472239427 0.4934368627426083 -0.3389361884571453
Ni 9.225535233030975 9.08577385910761 12.809059552958999 0.006719063891388427 -1.4588902135705197 0.5958205046178577
Ni 1.3510675440120243 7.338185247401 10.419430028064532 1.0757583044327665 -0.5386635957908916 -1.0200005899461724
Ni 3.3758364814032356 0.8101484288481549 8.591582287977914 -0.2558805574865464 -0.5364236507167793 -0.25249390040250064
Ni 9.17878124229497 2.552352303157068 6.6494923521841995 -0.17458253263700255 0.048813164847961096 0.15519230103584883
Ni 5.1953506768380615 4.6151100386776145 1.9237312020980426 0.8084499647252528 -0.5604192423004284 0.8777648490709916
Ni 1.7278480378402963 5.005359459938117 0.4690388686387908 0.8042804067285956 -0.3766655846871191 0.2677508265615712
Ni 8.262431359621248 6.768277713455743 11.812025505625847 0.7332737365027308 0.11534251602876264 0.4610980414005865
P 1.559571452193296 8.650310022967663 8.461097094721586 0.14754069802786204 -1.2425871612662793 1.430631990055775
P 5.413252609419803 0.7961515119043802 4.759118941819965 0.996442085899942 0.016663062477977754 -0.35704061136733994
P 6.166284663039737 0.8945729127664633 12.520441028732721 4.095081879825631 1.8206637116371547 0.4762953179663152
P 8.254563465826683 5.912339653963331 9.778172126155873 -0.33721766310414175 -0.8563745563206735 -0.7402439971729767
P 5.703958534040558 3.614857994446735 7.052685544940585 -1.0599156809735553 -0.11574695055603292 -0.632923323007426
P 7.5038549438675695 1.813724256784084 8.196421336377467 1.1101272688309398 -0.11730221085829476 -0.44331809170934616
P 6.082628077999577 6.899538361790744 2.7814459132384233 -2.0975072445286136 -1.0433564910632935 -1.015334809039387
P 1.9546285060365511 2.4533566310552373 7.445206548983313 -0.12565572502931263 -0.28451339073189064 -2.539524358038349
Ni 4.9325743584004105 8.906729687715348 6.675633972418551 1.042738140753004 0.6663265810582202 0.6616374031126669
Ni 6.307821744086005 8.228069537742948 4.716057099564507 -1.4685393066245096 -0.6804820466229958 0.5322448367487413
Ni 1.1984984102021907 0.803675598575148 2.549436554280259 -0.7516033880498539 0.09659865976235621 1.3264696590135476
Ni 2.573849693644976 0.2598841826874767 11.12235597149145 -2.2835890360544675 0.07457433297246512 0.5102493063142567
Ni 4.666709442998986 4.748344744399246 10.487333824064388 0.4963450375283387 -0.036340229191930966 -0.3439997190229817
Ni 1.155040811944341 4.211911178770837 5.575624024358086 1.1474823124406304 -0.11310102829275359 -0.3016351380138418
Ni 8.563659293470268 3.389173175326314 9.373970180629666 2.3187324167248193 -1.3093741369838419 -0.7425651891069858
Ni 3.867225646663967 7.91810474703922 10.101655904120296 -1.6815564890886265 -2.288292612177724 -0.387478616142223
Ni 0.11469745678860487 6.0928950654601906 4.290302981096602 0.7256051642138794 -0.047825089903078925 -0.0680792121664247
Ni 0.3834186159877191 8.179313153868351 2.0103942104212873 0.45314150555767113 0.07734983883507324 -0.7473332999195903
Ni 2.137072967664159 8.383141662976023 4.514502062289191 -0.4066888705220867 0.26976631432970316 -1.4129718537718505
Ni 1.0251308344528254 3.545680978658756 2.217894088458066 -1.20341100528745 0.6602214966017469 0.16316914859373835
Ni 7.663177431894826 4.014155965833519 11.358360671476147 -0.4870145041560322 0.5419322392398344 0.8385858648786848
Ni 9.29091525805615 9.064182016113165 4.631163186688708 -1.9710040838973408 -1.4699652404377588 -0.6025819917114074
Ni 7.970771464684464 7.573475886436274 3.317323153603327 0.8289509128920821 -0.38925421998540705 -1.3236774409803913
Ni 9.078217658584618 7.3661809703386805 7.999123273571791 0.8033622657897003 -0.6536399867294872 1.0010785562306888
Ni 8.637360584321387 5.159572067361701 6.800077983356749 0.6577162136813899 -1.1740826886369777 0.38902307781120743
Ni 6.121004131405716 6.706978036712982 9.522371125326005 2.358353373550551 -0.895795224210141 -0.19698429737097042
Ni 5.588820928571488 5.148473897843558 4.606238114738558 -0.5014093394251236 0.28326177771297667 -0.8566944015539375
Ni 7.674946214209383 4.441733017677595 2.610455707078604 0.6780166158016387 1.9580012438797698 0.4207864862657334
Ni 7.582562217565171 1.067643907645301 10.455013120852362 -0.28264265607173905 1.3140784844380464 -0.40362951487047266
Ni 6.530408520991999 4.145605519181594 8.974841279229585 -0.9694866403570208 1.0270878358102569 -0.5168385294960003
Ni 7.392882693936799 8.79273495757538 8.376451591937979 -0.3971410789326515 1.847555393821676 -0.05519721399743398
Ni 3.798171419134487 4.224256121375273 13.0415534532757 0.24151066191811954 -1.2662829622213223 1.2074190980055786
P 3.265723749281955 7.836885036667726 12.862752969350305 0.313482267160415 0.20519023022053048 -0.6087215289502419
P 8.369002122747377 2.499345556488289 2.128479678619388 -0.030494826154747485 -1.54244052478935 -0.7918696917690684
P 9.182389328044698 5.071306200002517 12.637129544359132 1.425447103420726 0.6612787342216676 -0.1677894209745691
P 4.722436421856042 1.7743092258060345 1.9242563580343905 -0.36180537974583493 0.07260486795092011 -1.2179775902477152
P 7.774574718105014 4.9843437772335495 4.823248415658586 0.39277585998542036 -0.5934772011966617 0.20390622130178432
P 7.803061594076689 7.945278733170025 0.5950101766076976 1.0232414654809732 -0.16927191905736652 -0.10085640659744567
P 1.314892234008207 0.9303061850396858 4.765768398280196 1.4708831242663378 3.815764431472383 -2.721679817926603
P 8.041998099864305 8.224782590515447 6.112220048297739 1.1839469830255673 0.07427762766765272 0.46588594970753316
