# total energy = -381163.9362547648 ev
CRYSTAL
PRIMVEC
9.33491738113403 0.00000000000000 0.00000000000000

0.00000000000000 9.33491738113403 0.00000000000000

0.00000000000000 0.00000000000000 13.66259517520193

PRIMCOORD
 96 1
Ni 8.927998829878643 7.791808717092325 0.6395790518799866 0.3593378920419489 1.2864234417249394 0.4053182154268052
Ni -0.16601496806304702 5.997170884277945 4.457284808993192 -0.342654517848997 -0.9515969045607933 0.5393570223134905
Ni 0.2319344194034997 1.77558526679735 8.577472688800983 -0.8563730136587767 0.9311512351119319 2.2045132156672227
Ni 5.3346438054309475 5.199735581972776 8.28670495370795 -3.634907892901211 0.0025829302358278093 -2.0746719918016523
Ni 9.46383241240857 9.059378454633022 10.968044168099649 -1.7226126356989881 0.11898216966387898 0.33405469199512794
Ni 5.238606177217713 5.216137031503361 1.523502362096859 1.9659775772170272 -0.597758345070519 -0.4965334993900609
Ni 3.6403750024132915 8.581197320766096 7.288297285387469 -0.2895195856972304 -0.10776136124739505 0.8041443953713634
Ni 6.448934202452467 0.8913427024120394 11.134905813153262 1.136496502853088 0.784668803145255 0.9132057063771047
Ni 4.1595457577308705 0.7709157360152202 11.722820765757767 -0.31413121359832347 1.2483718862688564 0.9244370563165498
Ni 6.901024242729192 2.054503257989344 1.54944783097865 2.9862440192300763 1.0226575679530452 -2.208652948867209
Ni 4.898544478327752 1.2596723975845938 1.8908210857360257 -1.1506874496414892 -1.4942580515468524 1.0944090867647345
Ni 7.244997271928382 5.023903081484393 6.349485595492234 -0.5615145322471362 -0.003940215594670633 -0.26256208327178004
Ni 9.184027604082024 5.477850770285072 0.18153893537628663 0.3032086531485488 -0.4823574649999951 0.272259255954886
Ni 6.285274434000442 5.87477144987554 3.981921886630695 -0.893931431528525 -0.1280874743992568 1.0577482410085912
Ni 7.720639308315333 3.5979384687957405 13.479666186264481 0.6462740332827192 -0.48315476409030983 -0.021703710225678748
Ni 2.146582881307321 3.5185169932088236 5.044312010971426 -0.46221235751068784 -0.3792721690720307 0.3945566060349269
Ni 2.0285521881572297 1.101893626972221 7.305922542563734 1.3430812994283 1.1212339202670625 -0.6387180753123323
Ni 2.530649379905407 1.950773657998533 2.831422279259612 -2.143454657793005 -0.2694662665907811 -1.611999663935411
Ni 5.0181154328168 5.163189381112083 12.43043362772532 1.3957326070754283 0.35570929415042607 -0.29666699537528907
Ni 9.34947967663756 8.370060163405391 4.541241187358684 -0.16009770875726623 -0.1152036764580532 -0.44913521261175554
Ni 3.3302037084162905 5.973945610269922 6.516661827255682 -0.6844279186446212 -0.7715412646243616 2.984024128760622
Ni 3.0536194465257456 8.479614751732617 2.8453723795319545 0.004528741108288974 2.261987141513975 0.914901863132605
Ni 4.427336527613555 8.245616382134918 5.129579945204334 1.0204091382385008 -0.2344884649640155 -0.7914665427933788
Ni 8.264379565718567 7.276157225561332 6.444003499184365 -0.14182307881779446 0.15777394572009604 -1.3286363276475635
P 5.396627655677436 2.9019177070143463 11.841357411420413 0.6957461718709179 -0.5440271740956502 -0.24462298229485613
Ni 5.030530872700509 8.037671766458594 11.590539388001309 -0.3159235296120559 -0.9919413698161109 3.249361203674378
P 1.2226687857808165 7.101799641991463 5.890477448074292 -0.220771115377923 -0.28121080872121895 0.25677324450414485
Ni 2.7678402911874906 1.3758267723763198 10.096288922460532 -1.24911082131741 -1.0886791262594928 -2.1463332648923807
P 3.0584549336383478 8.30612531546289 9.406177163270407 0.5345565156010536 0.5494277762859312 0.6267297926022045
P 1.2700434906002338 3.837323085621186 10.441487626288843 -0.7552448414571832 -0.4382100810588194 -0.7060773785935969
P 5.373953141784557 6.116928537111108 6.129681900997667 0.6756242043100623 0.6086428531935065 -0.4003922388800975
Ni 8.206680442469539 8.101783977828005 8.454099622534015 -0.4782035907326216 1.5637300302957458 1.5033073062333144
Ni 8.527381523074679 3.8871902133345513 9.092948683888508 1.558041978772033 1.3402106627487242 0.2254649213091665
Ni 7.072133275111443 5.943700478523142 -0.12241250328649207 -1.197632708042776 0.09784590190589601 -0.13502791027283198
Ni 6.834307589459364 7.0678298782795705 10.532221154545745 0.8846767456994763 -0.0859514644611552 -1.1262691686981248
Ni 7.721460781029442 3.876016317439213 4.398454293778821 0.6735747779802013 -0.8248206927737923 -0.1526628497457758
Ni 1.7416248380026622 6.960721038260261 13.410902385651422 -0.6747518290074379 -0.699351372723673 1.6876101514818742
Ni 7.740065271020595 6.747791576796042 2.5093134931398384 0.7066237380153702 -0.6449193190270377 -0.8278743919984517
Ni 4.075578177464731 1.4588795307562916 4.1280301437523805 2.418787924687525 -0.23089431985485395 1.6415300692943602
Ni 1.0142947639130264 8.98598733556105 8.888761372387519 0.9841846086888274 -1.0997081303801448 -0.4790276292958137
Ni 8.965030446434037 3.292864039593104 6.786852604351977 0.23779901739448725 -0.09372416642803859 -0.7947292727050507
Ni 5.407521504056601 8.899527332400963 9.69180789342509 -1.1290657576066556 0.7630275707263956 -3.0200211156805215
Ni 6.464887575957173 3.2334566264954154 8.291924105917712 1.8158889159563305 -0.2121311803147379 -1.2090818304199822
Ni 8.94632327235362 1.3932363929651304 12.430392554089615 -0.8289398571484885 0.029064007245491883 1.485427854849732
Ni 3.385223710427255 4.372587238201559 0.025755036570792596 -2.13292264791343 0.0979016948444959 1.4511663625637008
Ni 1.3802515231318673 2.8462069211301526 0.8826817662285014 0.28889557895998635 0.6792152640954303 -0.07282264038868104
Ni 6.325535931909043 0.5405701195201471 7.3909309660983205 0.2510725945749418 2.041065873711433 -0.052316035794897
Ni 3.3535036617619585 3.511207753036685 11.179459505993089 1.3674859535249093 0.4313377794190184 -0.006311286930008486
Ni 0.6250707235587378 4.047218698993522 3.047468669578846 0.09224603922061533 -0.14747153535282345 -0.2675068288715651
Ni 6.895927377934828 8.83053295933292 5.039749103441233 0.24953893153923476 -0.40469369446892883 0.7062506709466676
Ni 3.0300861202499325 4.3315882818337 8.781086836385537 0.22280485797850014 0.025486574306878687 0.8671389939260292
Ni 3.796454818094209 6.494609952340429 2.4703196769877853 0.029103088013543426 -0.13711487470884773 -1.0215815612800472
Ni 5.736045245280199 3.293489479045893 3.003776589597116 -0.9104368853827159 1.1995129557846245 0.9126655176029186
Ni 0.32206864597578855 1.2414039646128499 3.882827073032562 0.27320105104286496 1.6196949756971395 -0.39016876137987644
Ni 1.9657188604450133 6.562932211369654 8.639268907211635 0.6455566955007205 0.21312645434847163 -0.33694075529367135
Ni 7.270640289492706 5.802360497110177 8.533287725190787 2.972978926690054 1.5104565156835856 1.0455293303448963
P 7.852644372522501 4.31599897010002 2.2466774645381946 -0.7064527596551445 0.37419732565228453 -0.7302082102035296
Ni 3.319533898050065 4.206098989836178 2.816270775142884 -1.3493087683952505 -0.761156836066244 -2.075654924540212
P 9.05383351381278 7.12261650736039 12.100673009971956 1.2789065645226039 -0.625387162531381 0.08207758332804574
Ni 1.4807512417694726 0.28836492740426023 -0.15970923149053148 -0.09873421804812028 -1.0433413215546419 1.1853101819216811
P 3.648524385133952 6.731408797099869 12.609249567752675 0.41397074889548063 0.6489238122007405 0.378522949610832
P 8.220664148443822 1.8603929896120113 5.324053341860973 -0.9333341016958636 0.06658771522256274 0.057848535577351985
P 1.5743337867575828 5.148944297456039 1.3276520651523658 1.7449830329743885 -0.6707213676918062 0.6399547759329107
Ni 7.280544636648055 8.07754119784455 12.501478882103475 -0.7719752668379866 1.920647228711344 1.1386816834298648
Ni 2.8775255683556 6.481447719080256 4.481986866903171 -2.1585997409645596 1.0771595556556675 -1.1462646379834451
Ni 8.371553750158318 4.979114148730982 11.394768437853063 0.48892920468024176 0.7423929251951795 0.541677700026867
Ni 5.981012142594711 0.6175738515507626 13.489270882577525 -0.46131170007328937 0.14127440540317607 -0.24690175102670384
Ni 7.074663037674213 1.3194065327844857 3.544746243573671 0.12848188162419807 -0.6885439976955239 0.9288115312351617
Ni 2.233425616072846 0.06283052723705462 4.845986093983956 -0.2023681873907031 -0.039169728220926084 1.3752414291006123
Ni 1.1400734383439288 6.96316678656818 2.632960072480937 -0.2719165279034865 -0.017714643670943685 -0.655586826043213
Ni 9.303439864978571 6.741247799834778 9.971398932147622 0.3475311292150079 -0.45082237050619134 -0.07985537886574635
Ni 5.441556612188935 7.45779604455172 0.6648673425904895 1.1992129080457026 -0.7189483210189941 -0.19763298669856288
Ni 6.024662215449015 2.1765666353723394 5.467839071581856 0.05233917572334857 0.2569977018101251 0.4400489340397712
Ni 1.2316676459672042 4.086584044850365 12.576472806459682 -0.584810269550283 0.9688106973359185 -0.06768326227958667
Ni 9.100050688898678 0.5717188712524489 6.734757231901589 -0.4836730984876251 -1.4307397192782327 -0.8151273767454285
Ni 6.132788561443756 4.860065949605459 10.455137142227159 0.7212021500501773 -2.5147823752069782 0.16992215104685574
Ni 2.1046784379705006 8.229691013381828 11.574704567945115 1.8564015313583964 0.7809252769424229 -1.3712834728941286
Ni 5.991793971967406 7.785059571952535 7.716209890101181 -0.7878065774432883 -3.2847886912440525 -1.038276762547541
Ni 3.4585681549131984 1.8152026554187504 0.18208689501626688 -0.41172206207062 -0.09588697840731228 -0.22597142863193986
Ni 5.422420031917053 3.190973418291836 0.37761607080888077 -0.675433685565811 -0.007227885207006906 -1.183618138931239
Ni 8.041816469697968 2.7441856109880027 10.906289023324701 -1.0020527472185 -0.5817961653143077 0.49386803674275587
Ni 7.10937959476257 8.999382941751369 1.755984741140339 0.4064962948953063 -0.2974488678466361 -0.7703791259954603
Ni 1.8111793061030521 1.983539217390879 12.06692635078128 -0.2849551062549996 -0.6041223396153338 -0.24237069592556965
Ni 4.1748923616172 4.610776985624662 4.726820274901639 2.241669770112862 -0.17843533072418946 1.1388112670291934
Ni 2.2859345253554513 5.805758406973087 11.066004789257278 -0.5334172597902878 -0.2979993410334674 -0.358476315372602
Ni 4.722497274743636 2.1472923350149618 8.942919761540388 -1.2119223851925711 -0.976045267411145 0.6738447438121362
Ni 3.7096494229975074 8.706518584253914 0.7109454274100216 -1.5313930087259369 1.1300995981878086 -1.5751709251428354
Ni 9.097306223240174 1.2988137054284987 1.3016160475736789 -0.5914678840761168 -0.6335187904995799 -0.12835924000340476
P 1.0503182094101953 9.258902974989716 2.307529922819341 0.4331401227350798 -1.0066478227883502 -0.4893030430798928
Ni 4.540214346466047 3.399132737063892 6.780321896274802 -1.2019485618093106 -0.2400929556349865 0.449412120422226
P 1.7250553599623732 3.8365482874931054 7.251818295930657 -0.49849267999896085 -0.3072288300515354 -1.2269772226431643
Ni 0.02708339528917744 5.5443433855419615 7.529442467597928 1.6041035490167859 0.04733400919927332 -0.3717529778768501
P 7.341996396613814 1.3494556312699446 9.18547171577376 0.331365575198739 0.29231308928196753 -0.16836791918585842
P 5.651778947663473 8.67554532896508 3.2159695260937964 -1.0642541604479092 -0.15624053979470512 0.39971012521140836
P 4.047144019655875 1.166677952380449 6.27391850721959 0.210195910965238 0.07639493112097166 0.26184808792389097
Ni 4.408209282258878 6.370306194828043 10.026117416332838 -1.1299062512300797 0.9871943420494288 -0.12173864936309357
