# total energy = -340872.57694344805 ev
CRYSTAL
PRIMVEC
9.23646227914491 0.00000000000000 0.00000000000000
0.00000000000000 9.23646227914491 0.00000000000000
0.00000000000000 0.00000000000000 13.51849618144585
PRIMCOORD
 96 1
Ni 7.132349927487091 5.968527981070505 7.1037399858267705 -1.5947385628621178 0.4169722547259657 3.1392287710916453
Ni 2.721385039899454 4.572833887618991 11.924381688712021 -0.108563031213084 2.834605239873441 -0.6706727738420578
Ni 8.188317704810034 9.23501207408553 6.242774245734182 -0.40366988119010483 0.008144997704637585 0.3281496393646026
Ni 4.759271877098755 2.1910550898395265 0.9767401755215758 1.1341503712184144 -0.49860606564837356 -1.179983113281813
Ni 4.546713172521207 4.64964430726297 5.976662533328856 0.78458678495441 0.4269525058671292 -0.7865657630576518
Ni 3.067558406642685 5.767662637636448 9.743672360181204 0.3185396270786643 -0.2822243375873978 0.04676682384189365
Ni 7.353027482337255 0.8089376721738087 3.78040731527149 0.5334499128004362 0.6581371032688924 0.9316528573386987
Ni 0.16488470493921328 5.007483325763097 11.770771009532481 1.1154111429376983 1.393147877067388 -1.0616879423826295
Ni 3.9421590122329215 8.024832323893916 9.56379502980114 0.05203989931537489 0.2009293980616475 -0.4292960663986413
Ni 2.0632132165480015 0.17468828591686117 10.554389898620693 -0.008446588105456421 -0.2868366395484286 -0.8659634855606894
Ni 1.6182097042792085 8.863900259405943 1.5360661513617282 -1.1144896595646936 -1.2109844467593336 0.3205047212248351
Ni 0.915936544867858 1.1125872906006709 12.407396937513141 0.709628586279965 -0.23187622415214906 0.8726141581079874
Ni 3.0621181304076797 2.6180105549721557 12.659612392540597 0.1312645865756578 -2.5710188291022043 1.0560191741326264
Ni 4.232645748380486 9.043521739783102 11.716669355850104 -0.2784707840822365 0.7476143214951189 -0.0408201193401555
Ni 4.643492823438669 3.933800013943143 9.925495813146524 0.008338344662366286 -0.23244546639205776 -0.15512031014733282
Ni 5.9599934899989515 6.3975801231222285 10.161502200661568 -2.7764366019525086 0.9289015198458066 -0.8710265019058934
Ni 2.0825451319297774 7.10662638026385 8.052251685576831 -0.0390843675959714 0.8136916727401663 0.30127878311568757
Ni 1.5461375897431369 6.259476540328002 0.04010656615898115 0.5748621571986358 -1.1877000223100964 1.7813983383786287
Ni 0.304767230352899 7.947911066703552 12.572822899137195 0.4747315730236211 -0.22171985244443754 -1.2979581818374162
Ni 3.8635844283089993 2.3269973404792674 5.880369643969263 0.977203292274988 -0.8771824942049603 0.2121422360583314
Ni 0.6841290530683211 1.5052200622031142 2.9926303779947903 0.7968206080164406 0.8827036811335056 1.2845622201464846
Ni 0.9409922958741379 0.11960294901032816 8.187558467617304 -1.3180873484871236 -0.254106239194943 0.35396917153086777
Ni 1.7229788949985039 2.657487194409189 10.439726609594203 0.612114613792191 -0.017570661893911675 0.5339016556258741
Ni 8.842499376491668 3.0792240583995802 9.567675267570795 -1.210969534360998 1.8135854646341345 -2.1274914495955297
P 5.9835926509165045 7.686482240632943 1.687148810837498 -0.05823214416901584 -0.8311139819816719 1.136363062599017
P 5.926742226083809 8.17533123895873 8.72352635420329 -0.16140331494256718 0.5091750994134715 0.3202203572151969
P 6.737167892317821 4.718733044508878 9.006251691165328 -0.7277898305700241 -1.4018250931264116 -1.1810460073286884
P 7.816300716834979 6.01066472162075 12.818981082254776 -0.6172953866621821 -0.4780773495674025 0.3912319125370682
P 4.578560494182154 6.1425798747418785 11.992108971429847 -0.681940119225761 0.1145616719986801 -1.5075619677446102
P 1.4597766681857527 4.451309754471343 9.195389498545758 -0.9420923075044677 0.0267124762941798 0.13864236709696767
P 0.5141393554719135 7.823024861315596 10.086339565873827 1.3614302342491327 -0.8930197183475329 0.28660112649885483
P 4.4081754760036445 6.819991248853121 5.31248516225584 -0.1331656602531126 -0.7604688088602839 0.19379252990655013
Ni 7.5252043741823025 0.8950131870492546 8.750846885740678 -0.10434307959446545 0.7403517263954347 -1.1533230874921234
Ni 3.6130361547084 8.889614570166987 5.093498803634252 0.2462630890014404 0.5639118288347191 -0.3497584758836299
Ni 5.506861890995346 8.332997648689698 6.596444848844057 0.4921448834040621 0.7866860906856 0.6919666502238278
Ni 7.142546981754402 2.9772627521886754 13.335009294246314 -3.217691640485239 -0.55463991661449 0.5149634239604745
Ni 0.11877536199732905 6.806672270362667 6.747405587018805 0.23163068380024623 0.6730656995542666 -0.06833246582781136
Ni 0.8198791852943303 5.405981250861683 4.908417650451468 -1.0402385142596022 -0.9769945186982917 -0.4920389539538172
Ni 6.436068461104005 0.07914539728779828 10.755518481227412 0.4271669358707805 -0.3059777312532537 -0.06496663467937198
Ni 2.9213267371136467 2.7897440966316687 3.552025627301433 0.4810030078546297 -0.3892267091815813 -0.15051829259894722
Ni 8.671532461194644 5.616046110645596 9.270782121242245 1.2814082478985351 0.16369005409421486 -0.3668951355639165
Ni 8.193370049632696 7.430595291881524 0.843799775096396 -1.3427650537394618 0.35409798379924823 0.9793478494218165
Ni 3.2384976125531137 0.25389279656273084 7.431469061205515 0.7585870184565388 -0.40677963046368004 0.5059424514087867
Ni 2.048832044904702 7.257153004715261 4.111840211991893 1.137004552837758 0.014837322123148639 0.4996854147554814
Ni 2.7433862928566404 4.762763259809845 7.435794496453144 -1.308796667213817 0.3114156144393734 -0.36625441665612407
Ni 7.89192886931753 0.21785027377115598 12.873015309763103 0.8658470145874829 1.0678665603895157 -0.19984233564505582
Ni 6.108192525976303 7.977864913613777 4.318456176790831 -0.09438751104365035 -0.24910338666371293 -1.104575742885091
Ni 5.074955682124241 0.9831659822731771 3.334161498836979 -1.5240471098838269 0.8307347442653823 -0.047652825991272775
Ni 8.676658697714895 2.788377100226268 11.915067640230902 0.4855389480517702 -0.42791152734628884 -1.3281886985871836
Ni 7.148837012511683 4.7014608601974 11.094656434713931 0.7014169970034501 -0.11756883425612011 1.7977353849757556
Ni 6.338531420286254 2.570738341439461 7.118623621013677 -0.3838114517032809 0.10873632356615466 -0.451663378350248
Ni 7.778745261535264 7.222128340057977 11.103430150156429 1.7617797928167531 0.633196888383787 -0.27301181785019435
Ni 4.434859615295546 6.539895532679038 0.5672527076990346 -1.6878050411014998 -0.18411669737968292 0.5850231568920377
Ni 4.575900393068943 6.273700692113924 7.750559273489863 0.4219141721122734 0.908959529506241 0.03134457574955247
Ni 0.18509223693742133 8.826898991838148 4.185353214630955 0.18019216551429612 -1.5392778107906522 1.0386637135733143
Ni 5.9648703420398395 4.985445126957116 1.2651782643534801 0.37652571667514506 0.12530014146210677 -0.7593472936613309
P 3.715727141432999 1.8359315912258034 10.780744183138145 0.778000389986144 -0.41287545894877287 -0.9418436818287715
P 2.74249959248557 0.6171748622365218 3.3431919879285994 -0.07793347925268514 -0.7355589329924815 -0.17314708574205664
P 8.726932761462152 3.9248960643836432 3.1396434522258345 -0.3724114373964554 -0.06864022687621726 0.4753116138968072
P 4.757387638810231 3.555982527707335 2.7467825400070844 0.13623581453800407 0.9263985509182948 0.29952117699463254
P 8.593512065002642 9.195396887715518 2.1724898008202382 0.7644187946469673 -0.0017696903059130813 -0.6862572585438762
P 2.556153967627792 6.0914375835479495 2.1056141199171274 0.8653356221687032 -0.13819319537469105 -0.15760142469797372
P 4.06196516341162 3.1903571715737464 7.885541855707164 1.5346374838051635 -1.0171798326679256 0.3999294403110661
P 7.678289498662739 6.821589156813489 5.362841430516665 0.5979653188750024 0.6441837264125938 -2.70628559485872
Ni 5.0599279581270356 1.2044716165528482 8.957355707578111 -1.0295699788021624 0.14138136329468556 0.1653386454412314
Ni 2.5370252544143863 1.6807497898262724 1.4939017014248879 0.3613330680951067 1.2898656346372688 -1.7270806987726708
Ni 6.527546382719442 2.6240142554012786 10.548793526174531 0.11271819103203813 -1.5204017998217558 -0.13157723272007016
Ni 1.4672674390288585 3.9854964928689904 1.9944920904976007 -1.433683118177273 0.4962193105837518 -0.3212817086001757
Ni 8.148647099666828 7.906984302701331 8.762554101577468 -0.9716229699737332 -0.528085048944097 -1.306091352467512
Ni 4.926488788743129 5.831957651001256 3.2967150337912092 -0.44255267429823136 0.010971925630471427 0.3265254734976183
Ni 1.5694781297191274 1.5796290016754446 5.576447549907542 0.5863228495400676 -0.7104829638604603 -1.1312774205459937
Ni 8.347609731887964 4.664727450033367 0.9768584022377185 1.2330617382743474 0.41668994759885664 0.41115976180924674
Ni 3.577743632647356 4.179646928284629 0.9395948191434821 -0.3060972875502535 1.2664282295499352 0.24575066814139612
Ni 6.614747822336904 0.5976480575023543 1.5247644162154592 0.01485737672780667 -0.44021605574525474 -0.8590950405756302
Ni 3.7971003734031115 8.027852647032875 2.5495748356036927 0.12368780266966442 -0.69531036988508 1.418967409233653
Ni 7.489099043447776 6.165966597028864 3.0485017378344286 -0.03952402623655128 -0.30367299437947703 0.6534242711742553
Ni 6.727127857907888 3.0808866215953374 2.1931323701880028 2.25590211166216 -1.3415553497020767 0.8446307855211841
Ni 9.007591901830352 2.0894540056543685 1.028277787297607 -0.035618006313925754 0.23994023210720616 -1.032586654141299
Ni 0.5616997466252057 6.749239948411456 2.307066902347019 -0.3821052676454516 -0.4092676869928565 1.0410867211925101
Ni 5.212440421951156 4.155844565198706 12.436800291276326 -0.5024470366610185 -0.6899221089899731 0.16433257277422023
Ni 6.184651960056733 7.716362195845578 12.804233223062191 -0.6674190427914506 -0.3530895971393919 0.18104242932973338
Ni 4.35056766127066 8.897271597329668 0.5320931906936507 -0.22286167935836457 2.060166084875994 -0.20249340011465772
Ni 2.319968392746094 7.107965667282653 11.526289244303955 0.9287595949513037 -0.2851577091841089 -1.2352482044027049
Ni 2.0051989974782765 2.22258837178572 7.773000182047704 0.07148129586943819 1.3340112188062314 1.239751234479381
Ni 8.769023319701404 2.266092108741365 4.933155667158115 -1.2952613517315437 1.1489401279330795 0.4711173733098016
Ni 6.090190661151132 3.436739800722754 4.540714090323183 -0.12694898991943943 -0.9927373833548452 0.12462831220606277
Ni 7.830571050931894 4.272427191070075 5.961981176664102 -0.7297325561186917 -0.24736352115447074 -1.6639454608750828
Ni 0.38078885612511354 4.096177019395422 7.193394629804194 0.9049298395215576 -0.20108572113385367 0.5331771187550236
P 5.796969932192766 1.1072209060632547 5.4351786315178385 0.4248025494036619 -0.3764231296590098 -0.09735276431956137
P 8.843681643653097 1.91043289532012 7.280439973210498 0.0821266913984263 0.8371869276486292 -0.688870270686691
P 5.985569253827015 0.9744929442686441 12.852453097616467 -1.828060518321858 0.6423898677369646 -0.09246278321711174
P 0.996946783873564 3.681690778230971 13.165162761813987 1.2384841948414993 -1.0267826458650122 1.6031118745274777
P 2.304746703042718 8.607182029056645 13.059083840754923 1.3080502759660955 0.8110282669753903 -0.24203568118365412
P 2.233727545197292 3.76993593807688 5.224615002775197 -0.6875014153636224 1.4182140760073962 1.8796157646913307
P 8.863059741345866 1.186894628988816 10.361332136683156 0.9345803153981388 -1.0571553446195987 2.071427516722426
P 1.6327571322420835 8.665981347413256 6.164650401165555 -0.6605739948451592 -1.8014002354218523 -0.07546522021785068
