# total energy = -381173.4042246201 ev
CRYSTAL
PRIMVEC
9.19265897248386 0.00000000000000 0.00000000000000
0.00000000000000 9.19265897248386 0.00000000000000
0.00000000000000 0.00000000000000 13.45438561443399
PRIMCOORD
 96 1
Ni 8.446307039726879 1.6753161442028548 8.26061624666653 0.23235239245761918 -0.8166111603798064 -0.10281944386108743
Ni 1.5676057583946033 5.474963862736077 12.21838505457507 0.8240966701235742 3.737330615544512 -1.9474437800788977
Ni 2.770446806635461 3.8072960108428973 12.908864059339889 1.977352394712872 -1.2935716227339464 1.1366901069211328
Ni 6.596072979576306 8.005886745788725 1.6807756643984273 0.10915515627112815 -1.290271868936752 0.41074709975186036
Ni 6.2396368185001645 5.6590376670737434 0.4976133413346389 -0.4708242675494149 -0.6431023204229569 0.3274811525426683
Ni 3.2200505669406407 3.623213013846205 7.752955329016417 -0.20886973595464675 1.2151532334250428 -0.41270653747107633
Ni 2.742151802153273 6.516538093682904 3.1186996626466117 0.7640413567028906 0.13438744847535564 0.04064168478076226
Ni 1.2520309666892624 5.141058908932789 7.053273553300615 -0.8722722013875365 -0.9426510082214153 1.3113153198706127
Ni 9.184780917266718 3.472545332409212 5.233311838588733 -0.7247351029041003 -0.14997116184622558 -0.38094364323718266
Ni 4.712635035023633 5.035692651176181 11.722308725829585 -0.11336019549141121 -0.24692514806547153 -0.01086728173180709
Ni 1.9572182258957669 6.8502591943056705 5.6391364795482435 -1.841384232013958 1.4417615243100332 -1.0351001645917723
Ni 8.80216406328438 5.673617224289062 5.266598456922068 0.33565031861702194 1.329407401485633 0.10986555207459145
Ni 0.2895586473957108 8.879134197309513 1.2005916045771832 -0.28860915806781906 -2.3631528518217237 1.2623293768902133
Ni 6.415556734281722 4.79457839758186 5.111281128549698 -0.6521531177713156 0.5780644661860173 -0.2970115231989014
Ni 2.3630925072140165 2.0890869196244837 4.736657291590512 -0.5720331723902728 -0.18215571699857014 -0.323121847132708
Ni 4.954953526950365 3.0835947363579237 0.8493391839258317 -1.2975066961222943 -0.3781061737883875 -2.0495595130047413
Ni 4.949860793849932 7.811140264321813 3.437608631780701 0.09748543324268372 0.5901111129379063 1.5318900029670133
Ni 8.506951011321744 6.398127452768327 1.276187436077922 -0.24826032193712724 0.21633519109375648 0.2185193432292688
Ni 5.0795875980255785 7.483899988312412 8.292543270729912 1.5459413388537568 -2.235775516115614 0.7743419672979502
Ni 2.659004201262632 8.747899797053595 1.887112250365386 -0.15376148212659324 -0.34521585081826994 0.48468508469190724
Ni 7.728001856090198 4.634083763646018 3.25049849216673 -0.18172428588810638 0.7237020336538956 -0.6961007269968592
Ni 7.46732562408844 3.408592003564968 9.483175548518272 0.002495255618027961 0.9463405412578605 0.11439069363845461
Ni 5.189632919226447 5.53829209076655 2.860173593591047 0.6659136618905176 1.9094127934481053 -0.11776526653764234
Ni 7.228435993978426 3.2793432176586763 0.9175367634424041 1.1381170691756464 0.6686004646940614 -0.38994019030883814
P 5.560961187924794 7.133218431786579 5.756593841721818 -0.20047379858146763 0.7329158389426796 -0.8017663820574902
Ni 7.4740178798594075 0.23762839729164015 3.327525620677825 1.105714998695857 0.5945861179901243 -0.6544668535061567
P 3.2004518178970973 6.258665622684092 7.312122284687994 -0.13736992814244728 -1.1703615310316489 0.3320877980767442
Ni 5.749989835477502 7.931058501316662 13.017992872435862 0.5555382600590433 1.2303420253503392 -0.2935410481517977
P 3.201058533392817 1.4223341678059027 6.646708903289508 2.031248116290063 0.41064322718414437 0.4599289607931498
P 8.999695920436187 8.07223935863877 5.317819033749328 0.19547711669782464 -0.5012938968931818 -0.7179602460741119
P 4.299277929258176 2.5882574973981356 11.686627419819965 0.5526154299852934 0.6034170860181931 -0.15604642150602802
Ni 7.458371974197066 7.022924908792007 3.8391283505183105 -0.9195568454061132 0.139684692318553 -0.12784039138545727
Ni 7.474845219171751 0.7709405106880496 0.8463791477194431 -0.7445205130611435 0.6597054761972768 -0.04835396582335544
Ni 5.256095843984804 7.628849835835201 10.731836486408582 -1.5241401838182653 0.026097468418000216 -1.2849923657053677
Ni 1.3418984013279471 2.355922233173696 7.000612486803973 -0.7268580627843739 1.0329129271324664 1.0472604541033899
Ni 5.129862250239056 5.1273618469839715 7.080707205632062 -0.4956336132836109 0.5097338001304189 0.7979935452786192
Ni 2.8451095832450557 4.042094907686319 10.383637867085685 0.7147049723616078 0.4649217860220509 0.296606831561315
Ni 8.632063100666313 2.602230339117735 2.7659791743487996 0.5250223508583732 -0.3465422829391773 0.39191351198512503
Ni 5.398287893799776 0.9754882052085388 4.33984697207195 -3.3935597247028846 -1.1951055707455482 -0.5019361584628711
Ni 6.799911000819984 6.359196541792997 11.760936279057056 1.374019383768053 -0.7626161942205899 -0.13677600331219025
Ni 3.8867665481231173 5.8145498798174655 5.166228409346119 1.747343819897081 0.037410579437974274 -1.1275956008190322
Ni 9.02697973242551 7.756931154045184 9.8597905154225 -0.36290298368538787 0.06980545082891204 -0.3484865511497418
Ni 2.8851528059625386 1.908487940398665 9.248060424204354 0.133050474831487 1.8494549248372343 -0.4234236667782643
Ni 0.8921457199465458 0.7416471834356322 3.0983838861990365 0.792516324214132 0.5857800896627202 1.3706075298730265
Ni 9.219501590408116 1.2856025574524046 5.42686695144587 -2.1105152267525074 -1.7349865838833087 -1.0240099682158816
Ni 0.7461690524105471 3.5137927934591073 9.360835045870056 -0.28413209613307194 -1.2469521231031944 -0.4176949918246032
Ni 5.396495325289696 1.545855927138964 9.944688398591701 0.7549496788142676 -0.03259618876846644 1.1185540594420542
Ni 3.4116071957255127 4.058108519709701 3.275793012742815 -0.5909354086114146 0.3376411237948056 -1.0875005325703593
Ni 1.8692169010393707 7.713477454829037 8.321214254966266 0.1412216977883697 0.8895885811787969 -0.09891085283530061
Ni 6.316928695591209 1.5862392782404104 12.406989001280774 -1.0312746201980947 -0.37853271980284486 0.15151099552951972
Ni 6.985161465512984 2.337371447259123 4.520969932862253 2.622190209769697 1.6480017930616329 2.0236975576363148
Ni 4.3353591159354306 3.3437194088181186 5.508238530612678 0.383647672431907 -0.6522968424380314 0.04610039390248835
Ni 5.458536581056522 0.5579723404996966 7.65818269152143 0.8172778474295279 1.8880798362982838 -0.9115031218637011
Ni 2.8535760222080495 8.846831193491967 4.466344395131744 0.6233498203863781 0.02928126546262054 -1.348222477309607
Ni 1.9511326856205204 6.611424720149813 0.6320670107814812 0.31892606388380557 1.6487954926075217 1.9696038611157047
Ni 0.5827382831817833 7.438791610471575 3.213350957042454 0.0077647315470834016 0.7607701421507866 0.4230719398658005
P 6.018663680831925 1.6517737444371356 2.244259003984242 0.3003115341064118 -2.272493183251622 -0.5977961402869899
Ni 0.34821240831143585 2.1402808377405673 0.6670230159939468 0.9127261956375249 1.2180117859197603 0.08591289791373591
P 6.877782015429672 2.2649884500879893 6.765779577122156 -0.7481087446330341 -2.399371982054758 -0.6965632684555746
Ni 3.648970844437203 1.6955767646962736 2.712740808865322 0.49018236036105256 -0.5157635512642667 0.8169230351932706
P 8.32205906033076 4.987743741696293 12.943092005957492 -0.7020461459470166 0.2320628862416584 1.0073384210974718
P 3.639162277256405 6.294186057160757 10.060705271095893 -0.4449237456335692 -0.3922991774593179 0.8996169119490764
P 1.6837182345526664 2.869948147933448 2.605522230314964 -0.7262026885885622 -0.34405731173379456 -0.6991459415810862
Ni 8.766579280194533 8.426625556752102 7.488778532457538 -0.75204330380075 0.10373681346903425 0.4153899978405104
Ni 1.352947977477262 5.748142111013266 9.368517351018129 0.9344723290653648 0.5305687345978991 0.6799863379334999
Ni 7.111008967579638 8.86796511659286 11.161879187572227 1.3993614620772674 0.4547199057883846 0.7033445530434661
Ni 3.6474264777208263 7.10050175831286 12.524311231366665 -0.9201435711475185 -0.06054022347690218 -1.507975401132945
Ni 5.629464882986934 3.4381647876517776 3.071838244729506 0.11815376022531265 -0.030401752220308935 1.5559935808834362
Ni 8.805933053485061 5.416011340402005 10.863649104917238 -1.3088105511708878 0.07175974634180544 -1.260562000577145
Ni 1.8707612677557475 8.862091007475213 12.96239934770991 1.507957917631448 -0.3767823127706414 0.4418955003302067
Ni 7.209848437427749 6.471595183704535 6.97192771357908 0.15480740689260436 0.9446099317199989 -0.013485436080944517
Ni 9.138753273523276 7.490886409172212 12.309726991721533 -0.42061576501582404 0.013948234649975978 0.26808738396538345
Ni 6.81132828333034 3.691698323590293 11.771511514000627 0.27521345348720344 1.3799971986180426 0.20098133434550547
Ni 2.7407820959583913 1.5809443066414046 0.617188692147816 -1.7915035451334307 1.3601598521771414 -0.41053112708631234
Ni 6.94081607837131 8.96002959673877 5.567532100596616 0.2243467485443233 -0.5203547701793748 1.2912969677671566
Ni 1.9924444952835982 4.468284965452144 4.975740886805976 0.584743935088722 -0.12411666267696687 1.3180917193624977
Ni 0.9050338279010708 4.672637775601281 0.932416001341972 -0.6381981982531202 -2.323625226040747 -0.5895899503271136
Ni 5.4833567604268625 3.1345404526803042 8.23132567721182 0.16349105070953132 -0.2739122181772766 -0.18837238733224332
Ni 3.7405389209957076 8.376001583495633 6.790818541777316 -0.08168163344120771 0.37033167204929124 -1.9154276321836172
Ni 4.073680884099834 0.364667267968069 11.852250638226442 0.8416585902667374 -0.48978538203294997 -0.145211278563737
Ni 0.8423546015978375 5.060678298408989 3.161538372973917 -0.4385636077434963 -0.6096517540739952 -0.07262389411431362
Ni 4.316265963138321 7.207099832378959 1.2582948445496145 0.039880638245021645 -0.749579929861922 0.1676240990412984
Ni 7.639926989961594 4.127687755877889 7.0636198910344365 0.8457165623861952 0.278093860358792 -0.15863680794102358
Ni 4.661459502225601 0.5919474889940824 0.69968821057712 2.043056935999533 -1.0059232859175 1.0389038546085785
Ni 0.6191743064974433 3.614204208000674 11.975223595815647 -1.3395740576059896 -2.3067420771321627 0.022357798869909882
Ni 1.6039811101606911 -0.021978728465387835 6.4049870149335675 -0.9070142328544122 -0.11993862003987732 0.1516691183739388
Ni 2.1716829609735613 8.418912915829244 10.78566777839924 -0.5007053713795634 -0.7170817001239006 -1.4063538342347006
Ni 2.1920263153982145 1.7246991084908065 11.69744442169592 -0.9315299586075892 0.4090995368461083 -0.5020528865463935
P 3.8595011214518467 4.8929674271376955 1.0771893498114604 -0.17274187988383796 1.8575474720373815 0.36960430696496344
Ni 8.432784638299557 1.9065299040261159 11.100178060189364 0.4196109779003935 -1.0458437762615214 -0.2581518700192264
P 9.147164556532113 0.5623912516935198 12.80605887638794 -1.3747405782047937 -0.05870342737847955 -2.6941157922654053
Ni 3.7796444924925328 9.197439208745593 9.17765384872382 0.011838644506140902 -2.0733345039371516 0.5667559831517336
P 8.46479347702827 5.489240062203536 8.442209871598967 1.035667864169784 0.19689405165000928 2.3790903489875865
P 6.795140010785463 8.758002529323226 9.066843698291983 0.7009439140217734 -0.4509527254364685 -0.28766556320762715
P 1.074603454827432 1.1623473852310988 9.837147157709527 -1.8373481142713712 -0.8544212892490447 -0.03404500539985104
Ni 6.221940949875014 5.505446720066465 9.432694980742607 0.09054139782468278 -0.037247314387232625 0.1800147593961674
