# total energy = -340853.92732028576 ev
CRYSTAL
PRIMVEC
9.46485547248616 0.00000000000000 0.00000000000000
0.00000000000000 9.46485547248616 0.00000000000000
0.00000000000000 0.00000000000000 13.85277270623147
PRIMCOORD
 96 1
Ni 4.4026154468573795 6.898753422567264 5.366162356677015 -0.15761299466219952 -0.9520265358990443 0.5136932989987991
Ni 9.170896125388328 0.2482016411138343 9.131318831651127 -0.23861457131724714 -0.6581949530900214 -1.1787243011740474
Ni 1.7259164206573374 2.534480105789857 0.6962025982326487 0.2447160562292947 0.1998598191465526 -0.6694697546728922
Ni 5.209655290236536 0.788200994771115 0.32627723504858824 -2.249287177448804 -0.27968897276005383 0.7075452213883751
Ni 7.214586189449165 9.049480957611019 3.084292621744574 0.7849014879813514 0.8433742874062635 -1.0580624298149004
Ni 5.475958467706318 5.211018229444512 10.1699712637148 0.9544683125713175 -1.412595187158722 -0.7014722757214177
Ni 1.0300791658512714 4.56773931784607 7.02084816697744 -0.15238259950119562 0.5242350790703875 0.06234822321991843
Ni 8.618943605579975 3.1462505130594356 5.639519691033641 -0.008532977171675627 -1.0577281864039332 0.5039423902596225
Ni 3.2520581339342827 5.908322536870276 2.833612134946231 -0.25445539500424563 1.0426638358716431 -0.9110575496858504
Ni 7.408672518607374 6.42503739923905 0.23849637817036276 -0.18849657161493344 -1.4353479074742053 -1.5084690529399116
Ni 8.914114592663164 5.621736173826221 2.2141165125269926 1.7494624089019803 -0.6443025113786451 -0.060622241667747205
Ni 4.445690004742827 8.931283840741434 6.613494032279864 -0.4339873012267236 0.36890008180908723 2.9698923173449305
Ni 2.235797657275003 4.387424353601799 11.834423858520168 -0.9325666274022198 1.84644339170442 0.07107429023900663
Ni 6.91540210358693 0.28129550875753256 13.04131883149634 1.8613604180255685 1.936325815788865 -1.4438682862403909
Ni 2.300603523643201 2.167963037111301 11.710857329062488 0.06898655447204248 -2.542682958271989 1.2514978334923479
Ni 2.025431776465955 7.402056584535318 7.088892906935706 0.21965628504718945 -0.5483743953207524 0.7945842624867541
Ni 0.8923986437065389 2.119114917303171 7.746332189013694 0.3546386867940666 1.6734724265289114 -1.0841123328244169
Ni 8.420522372551948 8.416698570885124 0.8559485382631966 -0.15244147776358907 0.3936081260787286 1.0021854161416224
Ni 9.319096834544636 5.742432012577098 12.515772312356985 -0.2911049279064793 1.0512544057541315 -0.3865584183207988
Ni 2.2791845553956134 6.651408350886221 12.601507813937685 0.29650398743486356 -0.5490768207044157 0.3517109716243104
Ni 5.554043526496683 7.325713059177368 10.615227412706437 0.8989458540239808 3.1872880884927173 -0.39334330245311616
Ni 8.035425792309091 3.5527660615498804 0.6005413025727435 1.730038238739098 -0.3639581644227796 -0.3593785154718972
Ni 3.6013302356896824 6.804767406350498 8.75698852466573 1.1521750899306094 -1.2410972069843142 -0.011286885767728948
Ni 1.3969369693318219 2.576381021579547 5.025329120184342 -1.8669510247394685 1.2781316340297924 -1.1580276920566444
P 9.017432956512332 0.7601585205669825 4.786964303506972 0.08908101122907239 0.22646842287301644 -0.7001707833011748
P 7.757282080470007 5.042780420959818 6.2202964821195925 0.19699638155582846 0.594533410375318 -0.3690366073869515
P 5.581624115747001 7.8328778822346905 8.337845912304712 0.03348501913132298 1.6773470789929694 -0.3919669909308798
P 3.3771645953998637 5.460956671562958 6.740164087892375 0.3756070615156176 0.6224442778529732 1.5491300209943837
P 6.134769207362335 2.4438351836037575 11.445493065269313 0.8584121555759926 1.0696781596769578 -0.01743130810256998
P 6.298700506544046 4.449305579586212 1.0333852399161774 -1.1370071239409192 2.876113643529872 -0.05883352519844061
P 8.33483703470599 2.165748260898338 8.347943966756038 -0.6640174733090692 -0.2023977550770579 0.38669134435423724
P 3.538691821256393 4.324549317778236 0.8454747290441157 -0.33735136046852865 1.5001229949680617 2.5474780656677867
Ni 2.058227501157908 7.729285037572806 4.775965194801482 1.6187130713998443 0.8445284556153649 -1.276275297547344
Ni 0.600595252249726 5.1427482259227055 9.493956256014753 0.6815218007414199 0.6354954546099766 0.48146580642366116
Ni 9.069309830115966 1.544531927729028 13.658321410947654 0.0994790666339448 -1.1863368234139826 0.6196214636921974
Ni 0.2786775296955429 6.7576229605523395 5.633631604358067 -0.9456499429487392 -0.750473902431101 0.7381616607226513
Ni 2.113634765904429 0.18919773123515132 8.093496467424535 -0.47879623001129806 -0.6326297030264073 1.5459927609169826
Ni 2.4167562317008198 5.2750669073638345 4.9114034926519805 -1.3568703827925923 -0.12969184277189924 -0.9848188998387167
Ni 0.625643992624114 8.360420539422396 12.948505510889772 0.8395410297031025 -0.13228865696479797 0.5467533147775616
Ni 1.624207082262033 0.654606450793631 6.019652900994115 -0.18957309250856383 -1.9344579093421914 -1.6031980064833806
Ni 6.753505748361575 0.8556087499467634 5.1746760233551345 0.2701481231491541 0.9855202967811156 -0.018923319267064184
Ni 8.002525954205417 2.1473296518794225 3.1424049422247053 -0.23030862255471302 -0.24104194981181712 0.07868809803052255
Ni 3.5571956139758067 1.6906409037953143 4.895847055969816 -0.028748532887602103 -1.627277416030088 -2.5275551014916147
Ni -0.043886642496868335 8.077657978045165 3.4997647630996642 0.8260813046537707 0.45581519573509244 -0.6367362689956131
Ni 4.03160257176362 3.543746054152642 10.845820636441655 1.40724446436977 -1.0114033351954645 -0.5573298047418273
Ni 7.945443410015758 4.1458244492766045 9.563345005469774 -1.1066079428237716 -0.18025207221795408 -0.20894069840189822
Ni 4.987108140256191 4.9556753547722145 4.253078300088806 -1.751769202658286 1.001754242141475 -4.879225663705352
Ni 9.483501376506895 7.657730729153999 10.536848943392133 -3.371670123718645 -2.013508275808139 0.41710106699434624
Ni 3.92636284222543 2.889667742302102 13.38531143679195 1.2935420550475916 -1.7444832105198342 -1.161147982853181
Ni 4.749398291587098 8.979138150710414 4.488104862192193 -1.6041989369440695 1.7588795884508224 -3.402798469692333
Ni 1.0208414667749808 1.6330472574026633 2.833528844216855 -1.41624666786838 0.035564270257854885 0.1362054755207009
Ni 4.843119291846757 1.906430146869439 6.689504394720308 1.4446025933032542 -0.04465491970521342 1.292301240661955
Ni 5.584946280066446 7.918118371866937 13.0764353387841 -0.5552654660136308 -0.9822349411616245 -0.4563525562958012
Ni 5.596313571655201 2.6308985898986386 1.8910696326984229 0.3089373281022099 -0.042722992789823194 0.9256223348739028
Ni 6.701411183078887 0.5686163445969981 7.660944047633919 -0.10016195163358234 0.057447186373875254 -0.047096696377486626
Ni 6.477387515623234 4.805212545124889 12.301788963733431 -0.30705450925720024 -0.5086235977853757 0.8109470201154936
P 2.1797467823469376 3.6850468835685644 9.324343204009788 -0.09013876306962541 0.47611199831091544 0.1274416132851418
P 7.458949831612758 6.521304445658057 9.761633730519247 0.4994457879408496 -0.8436419392453535 0.34874340435555423
P 0.6976071828053142 3.6198056338422626 3.2248703361918194 -0.7966501438768473 2.2550932426076193 -0.3933954958472903
P 0.9395004976544481 7.215173010497044 1.4061670965236237 -0.9989980195525764 0.5153866275408221 -0.008670531190804423
P 1.5971375952147064 7.224221412461115 9.421492374971734 1.7504800515332175 -0.27264749253224013 -1.2516896377881799
P 4.374126231468409 6.0388239660341005 11.896594709086276 -0.7389777288660434 -0.1286438611233591 0.7375281409037105
P 2.6470550984265357 0.5435429955980215 13.40611802888151 0.4299668672134208 0.5498399241226853 -0.27321262100709076
P 0.5810853453788679 3.9065718291429263 13.083112794417627 -0.8375062586612608 -2.511408059418107 0.34057552383278117
Ni 1.1483141421433 9.523727012853445 1.1385691268062625 0.470958479134434 -0.8689176830930069 -0.47190335954620666
Ni 5.999279799291537 5.793059525240087 7.783761907012771 0.8689297672778648 -0.0215692415303435 -0.22334787496616373
Ni 3.9055212301701108 9.078604318325922 9.324827804617067 2.1534333662722718 -0.7285051114694938 -0.14362876456796553
Ni 7.1097534487022465 4.358490289999114 4.131395276897706 0.09373265106847084 -2.4425194639765095 -0.39631035550124005
Ni 4.2789192488778305 4.182690061881267 8.39581909940736 -1.1957174932979342 -0.7273072345066507 -0.41615464392067686
Ni 8.52805259714799 6.264901507157331 7.839755046321609 0.39419819425424363 0.19067969530918127 0.15700981386056184
Ni 8.419159433343973 2.7760989398262734 11.798974188314904 -0.9828193529101846 0.6260705617516508 -0.4599590427001369
Ni 7.9046877417549934 6.328770352820045 4.3473738170840495 0.6741846436500583 1.7195697351076062 1.1399608072526044
Ni 1.4961097264233907 5.089839683057477 0.8008857942609147 0.11837770331066064 0.9195036235706746 0.5790265729889705
Ni 3.5294541221801023 8.019865569684685 0.449684754932003 -2.015735108256129 2.4330367212970545 -1.7496099902234383
Ni 0.7321094209639223 2.097421468242866 10.12623889836439 -0.7262127158908913 1.0737929531762798 -0.4447375977646921
Ni 7.701411037798549 8.575944766539413 6.059923022162038 0.8478482640172172 -2.297428770151037 0.11858004912945383
Ni 2.9417433778735673 3.5739010841291394 3.018214678782265 -0.02748560701477847 -0.5416985259624735 -0.16744797847475035
Ni 6.910224827567739 0.564536045343116 9.934848160084181 -0.4328634720349255 0.48283389041578134 1.9451485562868178
Ni 5.2246192269574525 4.222186904345776 6.083417633245107 1.5768477986246263 -1.3354680058574162 3.224904870404227
Ni 3.0273056725965852 3.351562160972235 6.198243368546071 0.14924971029916875 0.8619939593899798 2.4306543371078075
Ni 3.565108233266564 1.3709086164017001 1.9747408492703722 -0.11317841849790831 0.894595290364769 -0.9016624816241955
Ni 2.375792336616614 9.435448304570084 3.096856271082554 1.0744285298777494 -2.872909534770278 2.175860070706904
Ni 4.55631523712365 1.0652127098791302 11.433205789715174 -0.20380389139596514 -0.5875860325232074 0.22036925195381404
Ni 1.3466975157488816 9.293749951218501 10.932456245790956 1.7522762242016918 2.0429070406852303 -0.15325420347287155
Ni 7.950743729157892 7.897740537736554 12.359803796200769 -0.8433267219977798 -1.2322924642084907 -1.1508823392611147
Ni 6.838414968047436 6.366601380697024 2.3445545271582238 -1.9313777277549704 0.44333300410768167 1.7496878946492254
Ni 3.462897257523879 8.264778173473712 11.420945962242307 0.20895843901371108 -0.24895349134941 1.1411028912768477
Ni 4.870841853931239 6.374267913741898 1.0080535003590219 0.7132445857659975 -2.1331476194400425 -0.20181180066660084
P 4.014357604840463 7.962063696468593 2.4333916619226312 0.19402495763233035 0.19794846105645264 2.0146503598323817
P 0.19216401698362406 8.672580942327247 6.881295496392861 0.7886750960911707 -0.25108313609790306 1.0274711872916047
P 6.29376931677074 3.3145356458221857 7.959969123921889 -0.7205370056623527 -0.13041406564990443 0.2580125162278847
P 6.351135806628728 7.748943542676757 4.422137658040531 0.04089416711120054 -1.8556798227010234 0.6537564577026934
P 5.556570642944807 2.2228497347992193 4.237923173284547 -0.474195498014493 1.8077349193906287 -1.0761262292951466
P 8.659226031060191 0.46638076022972463 11.56717608846041 0.646861530355073 -0.07065340065150413 -0.6341746789160239
P 3.298076261914738 1.5677681482539183 9.520165387687044 -0.7290856665633121 0.6641380580473337 0.6987129678087257
P 7.248423048258323 0.9919168680279076 1.3095347066780345 0.2600783976179779 0.31018816979017544 -0.653559768310855
