# total energy = -340865.9505182712 ev
CRYSTAL
PRIMVEC
9.31887769613350 0.00000000000000 0.00000000000000
0.00000000000000 9.31887769613350 0.00000000000000
0.00000000000000 0.00000000000000 13.63911947488423
PRIMCOORD
 96 1
Ni 2.463342850566712 2.4687571185944313 2.5031875765669165 1.4145592528636284 1.2700020629441224 1.0041199141601738
Ni 0.7151940541648162 2.464815233266161 3.9803592473398517 -0.4630999023219637 0.18522407151124876 0.47949685562274835
Ni 2.6202261590807434 0.7068927977808365 6.86114589039485 0.8529981836492728 0.1572864645607162 -1.6384506590380878
Ni 6.795549377358847 3.538853180368994 2.136732024205421 -2.762974305800016 0.20788937431924842 0.492390423755965
Ni 3.4954738040023283 9.429306547069965 12.700502917986034 -0.3445810454477485 0.18630393483898883 -0.15584458990786706
Ni 6.005597421348989 3.090028066738979 8.94128902888887 -0.5215464764946308 -2.0097238690650423 -1.398526624880798
Ni 7.938919775625588 8.761907153594592 12.660103718754076 0.7801040665927081 0.2855806556541404 0.4509221293088493
Ni 5.618090523936517 0.3283637072838624 0.3181912202286847 -1.8111524297126098 3.0726456838547724 -0.22654067087184854
Ni 1.3336246083423262 8.02123342362704 12.589752714241751 -0.42778991416676004 0.23763472390248105 -1.0543561846079066
Ni 2.678115028251469 9.345623024025356 10.337429329251771 1.4183125492584734 -0.23087169414703465 3.195950392153405
Ni 0.7876501931822382 4.063683061699659 12.786538525798624 0.09116206212781719 0.9975723428496432 0.7247497581921196
Ni 3.233706525347196 8.261930719475506 5.044782908170399 0.04511463295045134 -0.5729448855712649 0.818209872325494
Ni 7.351122236698885 2.8135276422115165 13.525478944487078 -0.7788586242213811 0.4440683396118094 -0.16794985781183333
Ni 3.6269258948784158 2.517243240019944 13.630008797270083 1.4713824325002596 -0.9675266884171724 0.9591533767518126
Ni 5.949870531838214 7.924596660378421 5.170003465431795 -0.4259747153348922 0.32981751398532877 -0.5043311410576088
Ni 6.066030344171294 6.1439548007079345 3.5517635537349186 -1.1938439304243051 -0.7047288349855024 0.6623295440836852
Ni 1.83498955526026 4.048250999988983 10.180893614881342 -1.544285805528205 0.508460332734634 -1.6640632173998697
Ni 4.505696075625263 5.055575100602244 5.289168615869762 -0.6542591083707249 0.18299749617357516 -0.361693536758319
Ni 5.298630072545396 6.065918517637158 9.086804238320259 0.8344574445326081 3.043321738079675 -0.8840992759294515
Ni 7.812499878785591 1.4021183605002197 7.988732905256174 -0.20587028700669058 0.6374821460227021 0.06090763411864994
Ni 8.844873123045167 2.9896451145968257 1.8179583741114482 1.725498184776899 -0.768866803115992 -0.125260546473423
Ni 5.784646827653255 7.99356567530639 12.355542289260919 -0.6804095415138476 -1.2265077392059136 -0.7127730454462177
Ni 0.4870837666210669 6.804122744975889 4.227772658450928 -0.5704480872913401 0.4943879138019679 -0.22504531727324464
Ni 2.0006792033374494 2.9438428299905612 7.1892076660365465 -1.2884792958127034 0.3380622704926242 -0.6844783122665824
P 2.761108954335578 7.910963142091753 0.47559172646309217 0.9282026940065692 0.8865685634055505 1.4066340844792806
P 2.146128248736143 4.298323086949128 1.0126339972091205 0.6922929232149948 -1.3867869678463665 0.7820262233160854
P 5.497709259939827 2.3224227798004997 12.400183441687744 0.2857097250328369 0.5299609258105712 0.605632348501957
P 2.255746208822306 7.213137612453725 7.462398957041389 1.0080961251991025 0.31450376644639383 1.7299996721916788
P 2.14008029701499 1.9153276011586542 11.026055262681599 -0.3028129603720269 0.9988293551851959 0.880770982887167
P 4.623067342078143 1.129336168232757 7.648286340958988 -0.018630470616993723 1.1467433773920765 0.3828007510505794
P 0.4351533879441858 3.859180287399664 8.413563772211884 -0.7217330828529828 1.0103612670841955 0.5222100782205588
P 4.10969968049635 4.439858203653085 9.604313209216198 -1.4034788266797507 -1.4053238503082894 -0.17806046388327398
Ni 2.352960742497291 7.719301781461633 2.6510353011228136 0.9282872833005754 -0.29983767979378684 -0.15647656706491114
Ni 1.3599877137647318 -0.03291614032273611 4.04599024022388 -0.10596698835113365 1.0174600829125058 0.03683130989573657
Ni 8.77142172787394 8.358138814343274 8.80429686513416 -1.4517803419986157 0.3271253118651463 -0.43675483666953163
Ni 7.800935151380429 6.830224921818645 10.48821063655315 -0.7316241167144496 0.05202010182103299 0.5423474724003821
Ni 5.292600758579932 4.296962530783814 -0.07955619204723133 0.09792123522852168 0.4170483593795399 -0.7684556837205023
Ni 7.676174014796771 6.31980202563575 5.799176821988572 -0.15669742482646562 0.07045079772239479 0.4148084143054275
Ni 8.870173876393286 6.48640492374171 12.659571610829149 -0.17625015014741258 -1.218545289825727 0.08391797897089419
Ni 6.0482965196329985 2.0882114229318836 6.218811482658127 0.2674955160176555 -0.43976405580950073 1.8267981066696668
Ni 1.5488906865528478 9.135165486782654 8.630085103268074 -1.8491101399033059 -0.6621025156745436 -1.5116891025391064
Ni 4.897825136448663 7.517753091438379 1.8088612855595387 -0.6472055439580531 0.32661751899079233 -0.1352485109240703
Ni 8.162917642376511 5.04859526109663 3.5465803938777456 0.8336701727446223 -0.7270804632078253 -0.07333891790346725
Ni 6.587337689676696 5.7111488380928055 1.398677830799989 1.0187348358598713 1.0606553873530573 -1.6709568591959092
Ni 0.4040451099233043 5.956207368772549 7.124789991047887 -1.2062276488006387 -1.5711034399416814 -0.6027033477806201
Ni 6.8573335374686195 9.314730943970469 10.136621490017165 0.7728661540833722 -2.3000798346206386 -1.1216751215695393
Ni 2.651891705996733 3.6174579149882904 4.8192325163705645 -0.5266161777080544 1.9172664851645689 1.518837026437797
Ni 7.8123600956179216 2.478970608712125 4.1954752916170746 -2.324178270330739 1.6912330929464423 0.9999444426262455
Ni 6.29126762167555 9.065264584070224 7.282225909018105 -0.9405843555003737 -0.38479438444184055 0.9831988477367907
Ni 3.086850329393967 6.725266400654788 9.725074683428948 -0.9860725697401599 0.09849047746843038 -0.37528875894425046
Ni 4.373610301055742 0.32066724607199787 3.5029624542382582 -0.2874051104573889 -0.027028979093334096 1.484711802619314
Ni 3.286954593351305 2.43199414549744 9.08297138386277 1.1467518620325088 -0.9088826535217186 0.3480430358544199
Ni 8.437563610212894 0.4564992095350525 3.541561246270638 0.2715331764221388 -1.4137272438806363 -1.550460309770033
Ni 3.1771502557082503 4.991265524596581 7.53909145792697 0.7648983053865472 -0.6941279195412046 1.7704850339002347
Ni 5.7377635532170155 4.753745966093128 7.221505032870401 0.8403139033133851 -0.8259681761146743 -0.6401398953605234
Ni 0.10246478945263933 1.8940060086501835 9.672072633799935 1.0116023385801483 0.4603781325154265 0.6048553611266164
P 1.63407454893044 6.026182822507736 11.405004634569364 -0.2926164794549993 -0.005431455428216453 0.11975607171542603
P 0.42266143219348434 1.035038443323135 7.056594442981021 -0.3029787965259298 -0.12425241692388278 0.40549587865525
P 6.166394658557758 3.836181296879163 5.155383077981384 2.0812077360376415 1.4370260665075767 -0.8785122687599773
P 2.6490308104984375 1.6483603886662292 4.776842804830996 0.6495002535295007 -3.3486728914925226 -0.10629660377641047
P 8.963288103816643 9.391285525463953 10.89319695313876 -0.008691357126410837 -0.15668251242813017 -0.5485417741365521
P 0.5530903102822333 4.555710493017292 4.936175114442592 -0.2736476516619803 0.4263539530511819 0.41296313356657266
P 6.559586071455443 5.856625840125034 12.264391549399424 0.22289844613357093 0.15910217761321632 0.4102542192758419
P 4.869682125357937 8.097750729609144 10.408503478684837 -0.8256861260978813 -0.6629532937106131 -0.19679917794335783
Ni 3.266248046780579 0.48499820175944286 1.547017592106081 -0.3099595987191372 -0.496075585917036 -1.424998188808765
Ni 6.011841069504879 4.564554108091828 10.587025221554056 2.6121500519248753 -1.6174594014984016 2.419132966731769
Ni 2.2549075098162907 5.94467059800092 5.74596975704698 0.24754478392734142 0.48655273402826527 -2.420063448965839
Ni 4.969710960141994 0.9216472695976888 10.904980674173272 -1.544723921506888 0.5081273748752475 -0.4701598944925387
Ni 2.126586561895993 5.236659534878731 3.2892647431689848 0.24069125134061775 -0.1480780585885708 -0.39900564294521607
Ni 1.4896971744838767 2.1234554189402037 0.5379704309793515 -1.2234432413479768 -0.3032567327776648 -1.2377953963045907
Ni 3.061857099014719 3.9013668474022194 12.005562512928694 0.9675554847725789 -0.16138865965454788 -0.13725191450734425
Ni 3.8456772334028217 8.59030933696392 8.469225429577747 1.7263541050192914 -0.10932716307261815 -1.0879389056593585
Ni 7.540957097271461 5.084808420400789 8.832830337206577 1.6731955187184409 0.11400631371584236 -0.3654676590887706
Ni 4.633895878133582 2.9767477876598836 3.7152008290370655 0.6394202435856795 -0.40902394641316653 2.149598051686582
Ni 9.197546055074483 7.935937734715312 1.9948437220311537 -1.5029704917191857 1.6672763250205287 0.11109299672378932
Ni 8.268519166111647 3.9929993732482822 6.811839707719011 -0.2653028792417108 -0.7845839567409326 -1.1094729230763927
Ni 4.641518720210473 6.871954856806815 6.8642276432980625 -0.39156049952108046 0.7021093950847843 0.06427680770119898
Ni 2.8580625594309144 5.920199224780972 -0.2168158075960804 0.27442052527226285 -0.3138676755242917 -0.7024096999340226
Ni 4.366136561024364 4.8573439310916715 2.2248401504506523 -0.39416348436156634 0.19152713091114112 -0.3204077906356546
Ni 7.139425288702848 2.0300429874258197 10.959619118751798 -0.06505019553211377 1.1679860888209368 0.42625110892473045
Ni 1.0127756441523585 6.119287731053247 1.5080907755735704 -0.42873659435074557 -0.9363258373343359 -1.4049561825562256
Ni 4.364282104333286 5.7764648529056855 11.45634233261533 -0.43299974050247364 1.6101189019729303 1.4285157150437204
Ni 0.6436437100738904 8.153039631861223 6.338603793575037 1.5378084253339772 0.17997670706938038 -0.0395844471608415
Ni 6.320827102198657 1.1096919737363162 2.4735908205324315 1.6948966578409586 -0.3836728692428876 0.14433581793731917
Ni 8.13676887114453 -0.054083039458986265 5.846858724256095 -0.7733994008790229 1.0898708325747488 -0.4475961502594098
Ni -0.2553689371270219 1.8167991057075787 12.518747524504734 1.392376546119002 -1.0428749234411845 -0.927008673698468
Ni 0.7390308118035476 6.378799841269983 9.28176168604402 0.14451270983481562 -0.479918002320567 1.8403714744787272
Ni 8.542410304842617 3.8994098830548505 11.094755893927642 -0.2892164526345148 0.6992822100486344 -0.8864996578408281
P 6.248987872894547 0.6929200723406261 4.695594304567184 0.4563669544735044 -0.33303267848851675 -0.9058261260835819
P 8.598752240291137 5.013276714065553 0.6242772181372191 -0.6023161396445303 -1.0789976373056707 0.6809461307436079
P 6.866829473992278 8.221151310027487 0.8901410754928424 1.339860478498157 -1.993859648339276 1.0306498421299024
P 7.692444775513463 7.453965372592014 3.7806687415588134 1.4149958261804148 0.24026933331185069 0.23279050843630233
P 7.095645200588865 7.1221014947897165 7.879483040844873 -0.14291528344070872 -0.9247430175927428 -0.0981750031105406
P 4.820142970735983 2.3642179469335813 1.8002273452365065 -0.5814462381740567 0.09331458969444574 -2.175847472301414
P 3.902093719874099 6.5473410659676246 3.9047160520995723 -0.19224241181061086 0.7999925779865191 -0.7912605974301599
P 0.1181959871421277 0.7708985783687649 1.3803336197628717 -0.46370539711644654 0.08346057971850142 0.4570218144486839
