# total energy = -340898.01593913214 ev
CRYSTAL
PRIMVEC
9.02324238833203 0.00000000000000 0.00000000000000

0.00000000000000 9.02324238833203 0.00000000000000

0.00000000000000 0.00000000000000 13.20642731864779

PRIMCOORD
 96 1
Ni 6.307318633060003 1.8920476087424176 11.30661631562645 0.7420915919046768 0.488025719029366 0.7590876122420411
Ni 4.321763163185238 0.44342378798710164 6.087661331364034 1.1681179864131108 -0.41026630346069987 -0.020746488518732013
Ni 2.6435573764032103 1.5750340330246906 4.8490697196220784 -0.23924449159176217 0.33853098259892667 -0.45689223084935504
Ni 3.363621144252536 4.1373190650084215 4.842096557884832 0.2819733979188563 1.182432346153254 -0.01014171641969221
Ni 5.061055460617988 4.728260233918838 2.6182273302996952 0.1284235175824369 -0.4520436445078021 -0.21328740540636817
Ni 7.266841208081988 6.1531655596657115 2.6147145820280726 0.06639822491957596 -0.15425333416134723 -0.17920306212814946
Ni 5.07758604071974 4.442755820709474 11.590845744682769 -0.3899376192056768 0.15105668160092048 -0.23738789799899762
Ni 5.640338600330007 7.834024179717343 12.345275433588608 -0.8505399519167675 0.3779218256917233 0.7345014382622447
Ni 1.9148764120488773 6.456671341490249 0.3332274400107619 0.2882312059031101 0.6329631751064261 0.13592368261422397
Ni 2.8053802058490795 1.5712442712109698 0.4084487980676674 -0.8500879519810134 0.3932558849456324 -0.3101380332785304
Ni 0.6937285325409329 -0.01779563868814225 4.699625876443455 -0.6674326696382054 -0.042432972353230146 -0.16958045143672085
Ni 8.591317845765266 2.287346835640716 1.209943719402952 0.272459287780834 0.36306290630201987 0.3539393467341969
Ni 6.679789056651842 0.7904721284028059 4.729895245444187 0.21377051569037378 -1.1633737868599061 -0.11272359034867684
Ni 0.814099488662871 7.209615804694807 2.47913675546646 -0.40688761679645413 1.284693089297394 -0.1558690153878993
Ni 7.612620880614338 3.902019972588441 3.821636417546703 0.08184541271258162 -0.6590812123497165 -0.874896526384261
Ni 7.730283961687949 3.959236352733208 12.517395587276901 -0.22145425748787667 -0.7312677618162955 -0.11752769660553952
Ni 8.144802694927257 8.912879135659457 6.909470278345102 -0.5635115080725069 -0.47137756894972366 -0.2754096286584095
Ni 6.820939637728107 0.6484905067002468 0.3869509230172166 -0.1447047712409637 0.03217658473254458 0.15870699905732666
Ni 1.8423475895281962 6.419351210867514 9.186840114849078 0.17312831668897927 -0.17971728276040663 -0.8897348769486741
Ni -0.05291500048619441 4.843198295783536 1.3038404822833276 0.7552654102824734 0.20518457379357566 0.25321149529481557
Ni 6.354970376246333 1.934709498874015 6.813988131772653 -0.09370591159559347 0.16385640446875005 1.0295537808522461
Ni 3.4988254085782247 4.348508053699208 0.3997161040597655 0.15947061669622858 -0.06595213852109287 -0.0813461044786599
Ni 5.888107813765611 5.615118637783938 4.667996704810991 0.44001525258835833 -1.3418026898261926 1.5472703420778255
Ni 5.2932415344052695 2.8962442569542373 9.203044053575457 0.4057468183237915 -0.5800668413280268 -0.0719194118481213
P 0.23579627307697093 5.734703669491649 12.384314491891137 -1.1134067109131598 -0.7563889823639554 0.10099216084436156
P 3.9823899927665583 6.240483476502317 12.553277413058904 -0.03119545176619789 -0.3084950983584687 0.18812581853907603
P 2.2915155736358086 8.463232919703923 1.3421432440049053 0.8620147853255864 -0.02564521137193003 0.4499250555029025
P 6.429357986704219 7.858134283446536 5.85909718708158 -0.5373659600253906 0.15304234457238158 -0.653603734174913
P 4.79044842063351 1.0675578564402626 12.719030766900147 -0.16337766506011864 -0.9103091015556001 -0.7985812994612892
P 4.046464037145677 6.105946932115236 8.106554072660163 -0.7253531961040733 0.7971803053487045 0.8924689880503857
P 4.503879264819338 1.0354712064174283 3.789492018772422 1.0741799042020532 0.05512496599860183 0.2754517947502546
P 0.16674410585825775 5.475393729009025 3.5569928384733873 0.2809596119423613 -0.1981675190457942 0.3968675135562907
Ni 1.4580116021624467 1.1311356224866322 2.5899259304693745 0.5199773322352981 0.3034878749518644 -0.43489952862834774
Ni 1.6874636334984012 6.449958049134516 4.851975203679264 1.1877982384508576 -0.153349077179523 -0.6558470216831349
Ni 6.07246167951829 5.56928958956516 9.17447827274242 -0.40285638414987396 0.28094675642655487 0.6391777885575701
Ni 8.681360781810785 2.3559325012266448 10.122290483760006 -0.0782137294972653 0.35896868162798823 0.4490832763278975
Ni 2.2407598350591935 5.240672124103517 6.991284919633641 0.4611268377559929 -0.3879594124333835 0.19683543049793195
Ni 0.5410363220934062 9.062042355999017 9.108037431878206 -0.14652022718314767 0.2390773698862786 -0.10182699804083108
Ni 1.4820134269826772 1.0887895458395116 11.266297761549668 -0.7503047238430884 0.37797684729937486 0.7379513444840582
Ni 4.1075604115283015 6.83590017364989 1.6783519633091273 0.11162881462260128 0.5976272188092934 -0.6735866050547431
Ni 5.7440517486321605 7.944179923102821 8.002474580716015 -0.30770782657048296 -0.10957064654199193 -0.09000635125681918
Ni 5.339115698836115 2.8609904488442224 4.633197668118623 -0.30519123079621635 0.6068111993014065 0.3480625762384457
Ni 0.9485412890046089 7.319573036747186 6.940770101629468 -1.3121892378351334 0.05703015344111469 1.1792722032577174
Ni 5.141795433735063 4.706369847823395 7.042367299585629 -0.2772852484145676 -1.6035785297512513 -0.7706133534934535
Ni 8.12903006718825 7.157091510605123 9.13368419379044 0.22822525766312307 0.016770534590119505 -0.15954517868790588
Ni 4.616904399292348 0.2982677896034308 10.358025398788564 -0.0659174286284155 -0.47290120468310165 -0.0818559542355429
Ni 8.254588485373779 7.067084667529259 4.883749649514588 -0.4254977756984737 0.21646528891371752 -0.36095537304071384
Ni 7.141003069381638 6.134379168960553 7.018991687788904 0.9503650890362214 -0.4605953907325551 -0.5483432849725007
Ni 2.2477438246873356 5.308202070327052 2.4802069120167154 0.15818326534337274 -1.379133822176483 0.5115587691542997
Ni 2.2196003315992536 5.3493390324907475 11.344123227367145 0.43316274844289915 -0.9248718298611232 0.15720856013492926
Ni 1.1321462256369579 3.404767129658645 3.942752693492006 -0.2662865833112188 -0.375917650777501 -1.0055736158875648
Ni 3.6847944347229418 2.852517624217833 2.6513615787667506 -0.5818833257114753 -0.7861952670921104 -0.12624399343261483
Ni 1.0833395074216847 3.289702742400157 8.182926796449046 -0.13360403334211185 0.47060932332513145 0.3396170165742538
Ni 3.58938266944132 2.7239544663085686 7.349680889708713 0.2744032988810822 0.3425388182067391 -0.8331199566681071
Ni 4.171499107271216 6.913996336739774 5.955187500192707 -0.03897226749813933 0.028839035718879365 0.07463012591106502
Ni 0.843094775834799 7.394429855810581 11.113512611705282 -1.3293199839781495 0.016884691570480597 1.1181527102385778
P 0.08014263446929411 5.429826354820241 7.989782487937017 0.5980645634570281 0.755032468336061 -0.3768026244856155
P 8.535364719558405 1.7246664619697583 7.903940773559281 -0.3692901181586543 -0.3843660386551703 0.672674634763435
P 1.8657177873794732 3.2909930660653046 10.357193455838027 -0.7003859846357744 0.22597219996288825 0.2783059763695981
P 3.806779648912677 6.123136208913182 3.8467679523171188 0.17919483459803331 -0.5163595329770526 0.20510538381620805
P 6.833716548985793 3.894846494869612 10.459688466414343 0.5991205155253682 0.26743792330684263 -0.5820242221647137
P 6.3124438347509395 7.706426508746336 10.213771724646255 -0.13154715081308313 0.07814122438811705 -0.23921235280224612
P 2.4065799608942964 8.413920899913487 5.887689135317619 0.33389965447450237 0.1904182141176785 -0.43483422260805116
P 6.985379207473926 3.948471624533759 1.6398687367392772 -0.2167877052501428 -0.30452557218775944 0.04095690202833591
Ni 5.4730747557087245 2.872486059679175 0.5027867975020692 -0.5755206167182412 0.40133686218155395 -0.45306617223504553
Ni 1.6621083223161277 1.0514874617016046 7.117221411676299 -0.6024475230160722 0.33341037354290964 -0.4013684867504378
Ni 6.898810219757651 0.7224395875768318 9.278650704083423 0.08669836992950876 0.007941366334263743 -0.9007435693543518
Ni 2.7470900598570913 1.5482350030562377 9.306516281305168 0.2594657037346435 -0.345109921368025 -0.8485149510669387
Ni 6.3411557921110795 1.8892052873821272 2.5633407513461246 0.6349434387612485 0.240565781506347 0.008476412902127337
Ni 4.173529336814281 6.7904591248548964 10.40370646583176 -0.09275948852192412 0.25398668289794324 -0.38851245672337603
Ni 8.054994363184493 7.385244195033516 0.42088914238332586 -0.021028538535525075 -1.1387791282396773 -0.23532947280807215
Ni 7.513978794548639 3.778347412067359 8.144443569879197 0.36779759277352786 -0.07550481520653449 -0.1278792150431927
Ni 3.0709161835971024 8.472905835571325 12.26985375955012 0.4018153444798693 -0.4590825536324545 0.5784218495254362
Ni -0.11283564638232373 4.901317000169665 10.106073010170006 0.265737138565652 -0.3480893157113231 0.7178260344890928
Ni 8.55541436420147 2.18335396682374 5.650264166984989 0.691459628680422 0.46313846886938304 0.05024886885322314
Ni 3.606211016542722 2.420836683907817 11.408451727182326 0.6443763020393741 0.8632990513546487 0.264797400360202
Ni 1.135683336663097 3.4523918031177336 12.64098062234657 -0.06400941297242524 -0.3647114976490364 -1.0275161815969271
Ni 3.2808599648348094 8.195224573534569 8.10908960377839 -0.38592515561217405 0.4123342417333221 -0.1207999395989081
Ni 5.579296365401865 7.633906709468068 3.724383910812702 -0.16718726861419594 1.867256214684713 -0.5593069830728562
Ni 3.120228203387538 8.242921432932967 3.675018653892026 -0.49426167263674875 0.6055649855991313 -0.07957384306958555
Ni 3.5625024302911443 4.400499976486489 9.394907061664753 -0.6747595423169217 0.3186861799588576 -0.11571995397283942
Ni 7.124418349825403 6.113066270379582 11.50715607362068 0.7479475364648215 -0.2861074746918879 -0.34920388893174054
Ni 0.6130219454207875 9.112572513515293 0.13141720948469232 0.32552942813293617 -0.4886661808268422 0.5227847197771062
Ni 4.373457318972869 0.4365128866225097 1.7108401476193675 0.6228266008930564 -1.0912499723104627 -0.12811755630624386
Ni 5.977988331447684 5.473679312950438 0.4808711463278678 -0.22984608109599772 1.2358529278662393 -0.5100952972348958
Ni 7.9298239444227505 8.72331885903412 11.37338830948724 -0.3237880199617972 0.001543690338036051 -0.05502520719594395
Ni 0.00744868661244368 4.741109331115834 5.734019707716698 -0.31637835776128737 -0.05219853638042622 1.044737173460904
Ni 7.945677781343482 8.685574636017945 2.6268373082107717 -0.3502593267794484 0.3564749686718571 0.04982643660382386
P 8.55100199866121 1.6090336104392122 3.423198004612706 -0.8862682585563123 0.14704576066931452 1.0604224454066447
P 1.8648515561077654 3.2723600704811786 1.4529053492805788 -0.47700957042452047 -0.012348494263023892 1.1078112191032534
P 4.786965449061852 0.9993331205508784 8.187390594471063 0.11522244551113059 0.33634631624278205 0.2913512395893305
P 8.487442279099668 1.5673552537306994 12.283549236885515 -0.3952070951347323 1.257754098814705 -0.17191064223179425
P 6.161494012413483 7.811556306107428 1.4893285696073992 0.30231108103494386 -0.2820317619606175 0.1920254107037983
P 1.8168118134976503 3.2615412028272477 6.093207918475686 -0.1909416907213163 -0.7140040896398414 -0.5487736876417
P 6.823655633694606 3.9308672785847856 5.8777843221201875 0.6299503564220312 0.153455006629768 0.49586964055381694
P 2.363385699460295 8.413740435065215 10.139168458694684 1.5602410433058804 0.6623128319131368 -0.48347949441958027
