# total energy = -340897.25758806843 ev
CRYSTAL
PRIMVEC
9.00941994634815 0.00000000000000 0.00000000000000

0.00000000000000 9.00941994634815 0.00000000000000

0.00000000000000 0.00000000000000 13.18619677761135

PRIMCOORD
 96 1
Ni 6.327630838209136 2.074833336678666 11.478478293567692 0.14582397244707146 0.008748692726907512 -0.39427995533477256
Ni 4.557351927630296 0.38662843837305444 6.01382824270949 -0.2626397305872509 -0.587501186118885 0.0902223239223672
Ni 2.6754012589308975 1.3629990801957859 4.760849493989365 -0.8220354167191714 0.9760776633109769 0.5759034539789565
Ni 3.5076824483959275 4.296231914269414 4.853587956451162 0.091085700363927 -0.34638570275665503 -0.30166136326608695
Ni 5.18269575426587 4.536170781737482 2.598920294454462 0.1861694661436536 -0.5556151360435656 -0.31385841955291105
Ni 7.507324263647287 6.173092260795506 2.563067308456821 -0.7955276002366299 -0.974192273362806 -0.7719071326042125
Ni 4.974082639358123 4.514079684447315 11.508174242090575 0.35429775851488016 -0.1295530032011898 -0.589334896893514
Ni 5.536495668860007 7.879007876496309 12.266868292711145 0.3322047832705827 0.2058638592487874 0.6512496321204397
Ni 1.8923565485404021 6.583507369260525 0.32515446441710405 0.5460606595859111 -0.6983383580781264 0.6678391610480047
Ni 2.7255206611434564 1.5255470317900668 0.3998830967471541 -0.001415392290287885 -0.568660399263298 0.5342978626230283
Ni 0.3891609862720209 8.977643552211939 4.780497236636346 0.10410191011793685 -0.3794359483434046 0.3356235791441446
Ni 8.555327000223139 2.3396562215673864 1.3845766405587336 0.6163661899796933 0.28141161187811536 0.0003679248623800115
Ni 6.749163570677443 0.8099639557384922 4.803164035850182 -0.020162848101120116 -0.008470242254540251 -0.36983493491853076
Ni 0.7105990650316235 7.4015356566403 2.4462637848319897 0.5667115030670434 -0.5818678990925077 0.2336726539309395
Ni 7.57530934527518 3.8699782458386065 3.821992274228948 1.0046094522020825 -0.9745195747952377 -0.5433514881848642
Ni 7.604743119682591 4.006741238034659 12.551901108040854 0.8300703712085058 -0.5655434509008712 0.08675673397126994
Ni 7.777480725043257 8.990725229726342 7.008489808560971 0.41760860275838396 -0.51009966811027 -0.3385875468684749
Ni 6.9270275358905185 0.7115153230228185 0.39032500330704917 -0.9702057779112322 -0.16028771328088523 -0.13955639427080482
Ni 1.7872526574363736 6.344000953941693 9.245672889598852 1.0138597671557572 0.8705760446320361 -0.5925968554742375
Ni 0.3075942043321683 4.855158298318077 1.4139554575055127 -0.5118678157542862 -0.5552371838788567 -0.6333228724386899
Ni 6.097809549149247 2.1038166400972895 6.904912113166957 0.839766258340031 -0.9214414640233357 0.6937399400741665
Ni 3.427372480514794 4.233364183074153 0.36855283947694506 -0.3016762756644224 0.08267433637178019 -0.27330466650026475
Ni 6.034491346965198 5.363388677288533 4.746595690962135 -0.4300936225992722 0.6643969681356752 0.45019065045946344
Ni 5.363956270734406 2.9830639348533614 9.19118752256296 -0.4311588306389929 -0.3358994585133505 0.3149156571728319
P 0.2668220751369616 5.628103449139944 12.473153373548834 -0.40074165179971627 -0.4297478092240792 -0.513712839382825
P 3.9999030884248565 6.201571036706687 12.667544218398566 -0.41612559045495434 -0.40726016964452444 -0.4219005452655186
P 2.4819509975057565 8.38948160099093 1.4320211460398689 -0.186264339850305 0.5306857197917377 0.4356387207872175
P 6.328315554112093 7.875701419438605 5.7437492623235915 0.4306613221772841 -0.4262570224620014 0.5509928067802059
P 4.666410954015883 1.059660925765687 12.511880364454944 0.48168409308205423 0.07793245081142063 0.5661219491121605
P 4.09613270104976 6.038275303271018 8.024367657042394 -0.6420695082830684 1.769587718896946 1.7842676895066238
P 4.574893267933702 1.0083432707229523 3.773427897869686 1.525910645455127 0.4181037972272476 -0.46456723089610963
P 0.34591757323232303 5.360911086850199 3.5206091638901893 0.1246437388250305 0.9430726691398662 0.8396443880501863
Ni 1.3206007507310542 0.8608933047888917 2.7160265345837593 0.7956327583559265 0.7582874849382489 -1.140535705919468
Ni 1.8972126257995372 6.431941900372897 4.602207125867878 0.5628335081688758 0.20881831389142103 0.45658009892557494
Ni 6.037842851121781 5.723774477738751 9.009007144335317 -0.19747434963351151 0.23773268293292607 1.327637968290036
Ni 8.610194366657524 2.4288945244462994 10.221451612542316 -0.11392815217973928 0.2544584803280392 0.5598713402167584
Ni 2.5125289682246894 5.295836047809877 6.842581343390332 -1.321769425324401 -0.39547654674603505 0.6057758160583567
Ni 0.4763027971691145 0.08103702805703789 9.255206657605562 0.8257347199476296 0.2790821924139903 0.5382830725230214
Ni 1.5254389187527575 1.07455349665502 11.544106510982244 -0.5717611496758088 -0.37542399897053413 -1.4219439753634737
Ni 4.224922356744265 6.761227183757187 1.7673850849468653 -0.11218314446417454 0.7399457492062675 -0.9756331195743908
Ni 5.605120419291978 7.950488612997197 7.855188772493151 -0.6196515455991846 0.036908185880259015 0.6102055696949362
Ni 5.35204581779085 2.864824309716274 4.626337054853297 -0.11608067974636783 0.030578901228121527 0.31161101827963106
Ni 0.7533523656355201 7.317865175182808 6.8710240816224095 -0.39984922189243394 -0.12298717705821399 -0.1531207632188008
Ni 5.028778826816769 4.463987310494083 7.112806276376598 0.8393014028884707 -0.9660025384631621 -1.0612241153723336
Ni 8.037555645710153 7.3389742457174165 8.99467405841406 -0.35644103011012807 -0.23916504450407844 0.04972539224958533
Ni 4.500988997513135 0.3159297195087024 10.35606946188976 -0.38046001873254476 -0.3027995906355882 0.0824413944253677
Ni 8.27180055987994 6.887917644643939 4.766915536324385 -0.40860099994313503 0.15730317673126457 0.1234206650512068
Ni 7.080097577880698 6.106296422578014 6.816445917562827 0.8424959985663684 -0.5570091881776149 0.5773795243038509
Ni 2.6336155700109183 4.8793666092555465 2.488630581327506 -0.8252186995431594 1.220854397574878 0.8058881175353476
Ni 2.3997850891508157 5.125008439441672 11.453411384925591 -0.7318771132655202 0.9304241271379202 0.12891845494098442
Ni 1.1751346590316165 3.312006860286173 3.7383001701639933 -0.3405261586520845 -0.6404846802944518 -0.08143609308930493
Ni 3.631570979732418 2.6020195348573236 2.567444985525863 -0.014023053751969397 -0.07482887218543242 0.05476038357033149
Ni 0.9754588885414245 3.6253544800871422 8.105317293727607 0.37453079773230336 -0.692609426014149 0.018893751580709394
Ni 3.596416223767398 2.579811315110073 7.065005898814321 -0.10716769352745414 -0.29930263322592326 0.08149394291043384
Ni 4.188677460986378 6.809842012867194 5.978265360028629 0.3808701096867699 0.9054039509444988 -0.960573654138107
Ni 0.642906789546443 7.427077361704583 11.315167244118403 0.6640041035726306 0.16387260241866616 -0.2100087346550964
P 0.05539531843324438 5.677853465141697 8.067894866805027 -0.2685941483984729 -0.8222516464950356 -1.0795349978663795
P 8.460223565070207 1.6911581861081062 8.153038388395858 0.16280250928293896 0.5847740169957091 -0.878251816009739
P 1.660661300167155 3.3149889782319506 10.334602717390053 0.7175740663792868 0.056309987445638504 -0.7642884397166901
P 4.14163928033713 6.054366126990527 3.8033734073203602 -0.6734228257833692 0.48346818156567056 0.28624168627690705
P 6.8626101844938265 4.071852314754084 10.46231034176949 -0.2264987618903196 0.37832574599836133 -0.24768439482899923
P 6.186507286841614 7.744091815354287 10.107944635613435 0.04629116975705576 -0.13892647399628977 0.13007442292229854
P 2.3829464835899183 8.384517410694485 5.776806625364814 0.20422555231441603 -0.30257513332960795 -0.5216914867129273
P 7.06402477300074 4.0381120376938595 1.5668633299397294 -0.5332115715373849 -0.028339727484957646 0.02924038492235609
Ni 5.341387674196126 2.9655676416488337 0.5255699082708862 0.28505666482987035 -0.6475480148991364 -0.6673845900090893
Ni 1.2154788407874746 0.7830843518375091 6.982157076440377 0.4610018821423545 1.3986317830000945 0.5044594391053571
Ni 6.74681211211597 0.782965427496469 9.23960774820581 -0.03122013435654623 0.0427931839061263 -0.16697823792718341
Ni 2.636516603178713 1.7016001036282133 9.242996190983474 0.18226550310355707 -0.6224707602155345 -0.39987056204867266
Ni 6.297827677590917 1.9039606812115821 2.454623625441918 0.6555477452751612 0.3714164204730378 1.1188381663413764
Ni 4.083222202511094 6.700251430714836 10.409988136421758 0.17642627071396066 0.7063691988024029 -0.3675607941723734
Ni 7.963173876041469 7.267538556315407 0.1449219227449819 0.2991722782956461 0.08747998529053967 0.9611508667978157
Ni 7.4724217714359895 3.8980515978598778 8.31303937701953 0.9261015885031664 -0.4490434242288976 -0.6686873679809129
Ni 3.129629175765442 8.28629671629914 12.379795063006467 0.06230785690028624 0.5524272252338873 -0.11279455279592833
Ni 0.06570479748264774 5.070951920787105 10.201540794837884 -0.42218208106167937 -1.496890604073693 0.5509776372715544
Ni 8.676179357095197 2.263697803437945 5.78495564555199 -0.026629943882702525 0.4399268066396101 0.1367322945584484
Ni 3.468131095580336 2.6064701882265497 11.481590147158238 0.6255964503287096 0.5043090295704218 -0.37568008084539817
Ni 1.1276099697144768 3.366243567336255 12.463447525624408 -1.1545862704752632 -0.20108983489891175 0.814892635026803
Ni 2.947719981073051 8.271232966434066 7.9601512157067 0.8902606675451571 -0.1482096990704286 0.4926909857155192
Ni 5.8817005969880665 7.644006171065358 3.673094494536923 -1.2403559579429153 0.050555344350048416 -0.2444144658284758
Ni 3.2819063888153557 8.283494786748877 3.6265473272654534 -0.04922531268471522 -0.7172195112533455 -0.14016600283034572
Ni 3.48640219888558 4.448410023701793 9.448200141448073 -0.29143711443491743 -0.5741425054237919 -0.8720559716116725
Ni 7.296314643079187 6.2538256714061005 11.343663137927157 -0.654043392815493 -0.8539890868076324 -0.5759173379360275
Ni 0.5867510760841244 8.975238037131811 0.363443597522111 -0.004793050513269164 0.13570385329393406 0.1891977114470161
Ni 4.626490214989486 0.35422065449766443 1.5527933190759233 -0.4736463103792423 -0.5525215847199064 -0.18575294743152523
Ni 5.928378400846285 5.559154359596045 0.2974018477398498 0.3011214316022169 0.9097527148314977 0.9204042810080729
Ni 7.757948302969408 8.858899399567408 11.339891794809024 0.05679001240585058 -0.1716674158727366 -0.3347465758558299
Ni 0.27985960649446545 4.7146383780755325 5.781118533669493 -0.690857733430365 0.3363476017943627 0.3478923692091686
Ni 7.756164437853807 8.741650810605654 2.612475867449072 0.730445265915 0.13396887288069834 -0.0032154216135041394
P 8.474107080944654 1.5376647013884652 3.5712042634669086 -0.7581643290968233 1.2492817996776355 0.440156663262229
P 1.7118528233330295 3.1030964345258263 1.4626522723354787 0.7739555304928091 -0.2833396821387636 0.6580851669850344
P 4.697718687736653 1.0477594822419067 8.280351400189113 -0.60347904960438 -0.036984804754465334 -0.4156933880135421
P 8.507117595003042 1.5800360025938696 12.366700772304375 0.20734944265537839 0.7263412710489555 0.25213780261466257
P 6.2501408187178145 7.790598440236765 1.3804368121717714 -0.008519864545553068 -0.7391469074540561 -0.1678128180133368
P 1.9511159843179156 3.229678782375269 5.932087578967965 -1.5100065726303609 -0.3637463055222897 0.09391802760639954
P 6.966155445976648 3.8047680655016483 6.0757643998999376 0.3313311224163778 1.5904923859912543 -1.0784137397777427
P 2.405767343881921 8.332974520157357 10.215478367230986 -0.5627910849667146 0.4410295527854856 -0.13657288616244867
