# total energy = -340855.6875032092 ev
CRYSTAL
PRIMVEC
9.32960192296709 0.00000000000000 0.00000000000000
0.00000000000000 9.32960192296709 0.00000000000000
0.00000000000000 0.00000000000000 13.65481546487385
PRIMCOORD
 96 1
Ni 4.63949893077386 9.225063434578232 0.5535728451266874 -0.5409174248220748 0.7512331491946288 -0.6304560924138561
Ni 2.102267122005893 3.477851573772455 9.037466604068905 1.0647825221475533 0.21813959129234692 -0.21298812899839448
Ni 8.755392629787009 7.985476585637176 11.611808769203686 0.3302409746759925 0.3097184292426085 1.0330101148319628
Ni 3.268803190256565 4.917203852616766 10.688169812109106 -3.1417273691437826 0.07445374823420081 0.5484178469641781
Ni 5.559836141854862 1.246640027766334 12.36498097732478 -0.42709185965847096 -1.6005996496285853 -0.7250822018308739
Ni 1.1075449972027422 0.43548621149267464 12.960358834353833 -1.993379623379064 -0.06830572635493397 -0.13235756252952044
Ni 9.341263622764531 4.934948754899411 1.4946833471764254 -1.6460984053913328 -0.2581235878844522 -0.46772583112974925
Ni 0.7165245999946699 6.69726385304883 2.8362418088719923 0.40367656605832414 0.6750467345400375 0.7256486158573051
Ni 8.401380896288082 5.891344876244567 5.527277698118809 1.3167920267144677 -1.3511987863291115 0.048921408291051224
Ni 6.421686080375452 4.341287544568572 4.7627037838570105 1.2865964769676939 -0.2122185978222216 1.4153673505872204
Ni 1.740651763186064 6.951112983547507 11.276187546419559 -0.7233014557813673 -0.2783489137923916 1.100364275906905
Ni 8.292289864536786 8.686605477037302 2.7033938795536465 1.1986578068731808 0.0471090376726608 0.586803388720912
Ni 0.9962521794689515 2.0732334017621543 3.6587394877563075 -0.6711587123395408 -0.9198687202195771 0.32201061634640027
Ni 7.358163502260332 6.928815235673942 3.5990272385030946 -0.7853501454829959 -1.8962762560661475 0.5439456701254374
Ni 6.62577111582911 2.5834413255954862 10.958207667340087 0.5173689480781735 0.3342092152951212 -1.3875639552217072
Ni 5.033376051998204 6.730766452468902 9.319820466399426 -2.779612171467013 0.1417325759865172 -1.9930466655196775
Ni 3.0608650293335433 1.8299453802981536 4.8036821930557805 -0.5288967462121148 -0.00867284518364958 -0.9496796329334225
Ni 6.402345816215662 0.24492909838908858 7.389289852147602 -0.8323547963673085 -2.4453281370698985 0.1775012489456943
Ni 3.5271211999315755 2.339668164847207 11.265850347823779 -0.05656555509987032 -0.3507882026997249 -0.41073115891226036
Ni 1.5611782168079158 9.008094219286335 4.3191138803965625 -1.3625990577462535 0.7341425122609292 -0.36023057905954736
Ni 1.371749985500439 3.266452130648139 12.919831044913346 -0.49648901930537076 0.1806847888799985 -0.9742470378601414
Ni 0.32560962728491194 7.516832037024233 7.651502970499271 0.8103476959685979 0.1513994096523199 1.428870527279978
Ni 5.609478952078812 3.227099871011864 2.780789455718808 0.8944909035764208 0.48774572589510196 -0.9527842400006752
Ni 3.4572704725971057 6.689501624500375 1.1003537402734769 -0.043772517100260096 1.220520668384543 1.767686645219491
P 3.9172758101092437 3.759960067580349 4.168145998810418 0.8963847781650238 0.487827744085947 -0.40680148484055095
P 5.291852664900767 7.454155773336112 4.437951546961044 -0.04551572504361193 -1.480234997794883 3.2674260315958885
P 5.405449894234879 7.155468577448165 0.25526069922389455 0.1724713998312707 -0.933990761443256 1.7600088169592591
P 6.6231494977736824 1.2336532223102659 2.1254810367586146 0.7612776779148244 -1.3905644326109279 2.3782321147523495
P 1.2688444796236922 5.449009804202109 4.667679925429463 -0.5452273650513385 -0.1096197546123725 -0.3239384294967324
P 2.740421202466034 1.8307943740456405 0.04909982740962314 1.3651465067584552 -0.8325561137448371 -0.8710604404676223
P 6.737530413643938 5.7156871369293 7.325494036264992 -1.0276236537090688 0.2508522510340196 -1.937189449340741
P 8.228242149410415 8.008315450404742 9.42163161000606 1.0112886639944711 -0.0556579556839364 -1.4557390695360477
Ni 9.138643334765328 2.6797134847198882 11.178363874545628 -0.22906215174212163 -0.5443501046527076 0.40439724627443263
Ni 3.183651916264084 6.814033146933994 4.153084289953898 -2.034339353620877 1.5721367663022021 -2.2946193257267
Ni 6.660169357004774 8.32707994898052 12.785563150228324 0.6961439215299687 0.7522919294764463 -0.32469536226741497
Ni 8.67645487047394 5.223699925061271 8.379495516806154 -0.22331290796317024 1.2328583640142898 -0.6349910041697322
Ni 6.727090589430332 0.2472447055113559 9.905120487757758 2.1052588634495746 -2.0198956673917214 2.153680963506704
Ni 1.0846781436303121 1.2444102529789778 8.299819786004884 0.5022513757104448 0.12204358219802208 -1.073863401402899
Ni 5.2532654325973915 5.693352070649252 3.205645519124813 -1.4006724675792073 -0.32424541921419 -0.7554186480308861
Ni 4.944306345325011 8.06777300153371 2.515599261489961 -1.2342336470952615 -1.1800885285114255 -1.8989949405488906
Ni 4.216774681338194 0.9681234305824246 2.844311914273931 0.11178050970911717 0.21473082272111405 -0.5442022662209338
Ni 3.196284196858564 9.314944816592428 12.093796514054608 0.7829045121559807 0.6299133325365087 1.3313904933539327
Ni 5.830207996823867 2.264471575784054 0.6491322226872647 -1.3285034016141248 0.707319221420498 -1.5374137609987202
Ni 1.7048727409705318 8.997094618975483 6.479441912168798 2.747429158976565 -1.0600838311203034 1.9375663730641854
Ni 6.349661555863351 9.166921357277788 3.908035772664064 0.29340580812551403 1.6386517193053005 1.071808575756399
Ni 6.589068463053125 4.167691647211488 8.630444074160941 -0.07367007599064086 -0.8349747504886588 1.711283069618782
Ni 7.3749287963728 1.8941610282536974 8.59435437621144 0.495733886306901 0.5516186132896629 -0.48334322595203205
Ni 1.1889737601485488 2.8099174049389157 1.4250574632410151 -0.2222821527058107 0.5693057461567808 1.2493974993198933
Ni 7.611704755905524 6.654468970414502 1.0061564845495277 -1.3644808481499984 -1.0482536712545947 0.314024255706814
Ni 5.351207590411906 4.832304477868045 10.601843941272573 1.6785372426463283 -0.6782264178195997 -0.30663361966969777
Ni 1.3838038307944334 5.916805359067562 9.239763154891866 -0.3920626359684796 -0.6278343385202929 0.6114697811193405
Ni 3.730133331198848 3.2643436406818522 1.4460042847998975 -3.0977535346659937 -1.6145856794950322 0.7225524934304847
Ni 0.6568851216340984 9.150725168864186 9.946604561364373 0.25664520356671283 -1.302876187964324 1.1394247322434765
Ni 3.430811722400691 5.421244909778791 8.155516038856433 1.489980507217421 -3.5742324293980254 -0.9721323055099838
Ni 7.745687164780953 1.7192216682632275 3.991561830054213 0.9143699018885348 1.209929523132258 0.08890694754505334
Ni 9.234122477751969 4.119084422767441 3.7792023709231226 -1.3626674490903434 0.0042762587778506994 0.09491201608855267
P 7.5908530962831735 4.505544510703296 10.522824081465242 0.9374594367181468 0.6529031085634627 0.6073596156057088
P 1.37163803028099 1.7754325180281778 6.133169083214274 -1.5997781821685546 0.36492747031458445 -0.5801809983083879
P 3.9688405182670654 0.18919125942630993 5.716574382043432 0.9972650960218695 -0.9222274502597408 0.8359787662731409
P 0.9546234970372157 4.632389774338858 11.325932049301176 0.8923111223162826 1.8164540444311814 -1.022579406416942
P 7.919646916601244 1.0126722783214515 12.03660978796013 -0.6243985733658666 -0.629994065175773 -0.3475519551506143
P 7.103241467575271 4.850571837841451 2.6159344621201948 1.9174346353113172 -0.2751656309684035 -0.6950067226017321
P 2.7900920014948465 7.261788717518103 8.244914147506675 -0.8062408728890761 3.395604523047055 0.046106307439759305
P 8.849033841254363 8.047658380439398 4.902870785646825 -0.342672515571126 0.3772618235102212 0.3989393084836549
Ni 3.1795375619493385 8.39024135195292 10.108222183200589 -2.0247907907004934 -0.26641256736612184 -2.895969244803219
Ni 2.183154768057696 6.436202940497322 6.252225995416842 -0.2953955848620332 0.20787780435502262 1.0508031771493258
Ni 8.786712102427828 5.61600967321333 12.731421606102852 0.15381059019697382 -0.6427788756452673 -1.2525314169631847
Ni 3.9794482753098452 6.647425121190844 12.389545818392182 0.9335066227179859 1.736366752060287 -1.8135569253890442
Ni 5.385185999514635 2.0942063462055747 4.670410699823854 0.4031327777397122 -1.3453878360742895 2.271555759039017
Ni 9.232116613403509 3.051805986159806 8.904346250383234 -1.172261062047207 0.9428433267378794 -0.08470370809698315
Ni 8.799792203900104 1.1113981226721072 1.5552016740096704 0.27781283878326346 1.7213414822960482 -1.300874841263579
Ni 3.306774668852971 1.6171091785242437 7.414155106387195 0.7902802357947616 0.4060383814222814 -0.2294910117494241
Ni 8.902352514516883 0.4389932087419103 6.5560454051563575 -1.7191398466590395 0.24248125336150494 -0.6242815881720282
Ni 6.594964771277431 4.558107486234537 12.545293254888632 1.8545593359433348 0.9191421264661976 -0.07948745400336633
Ni 1.2157497168000688 6.733210808093536 0.18423724096569774 -0.4157604938060517 1.2186887573821272 -0.185368567508913
Ni 5.0882341095281465 4.777688989980241 0.8537891627202729 3.4145697512956485 3.1218229169103715 0.9790256901957074
Ni 2.5328468960062205 3.7474024237988353 6.075654888102907 1.6438584603172204 0.78934126892026 -0.8980660225221889
Ni 5.209052450516712 7.3850514141313015 6.973773652924119 -1.101732102788709 -0.24546219036669986 -0.7746870093421949
Ni 7.585460586546387 7.5601493773493225 6.877984767163671 -0.46843005628562556 1.7228918575023038 -0.023387011465372625
Ni 7.761659442755656 3.5251526539896 0.5725501877834317 0.5986451185508465 0.17455373628159618 0.7327237775365316
Ni 5.070283956009845 3.6608330503600013 7.143147905547818 -2.526186246168546 0.7963683509703704 -1.3547811043637312
Ni 4.760298612559184 0.799767037495548 9.27549739501962 -2.00296983817066 1.1344948990420267 -0.24026290555394753
Ni 1.970831694372927 0.5358745908521462 1.5774313157914044 -0.17507438467175654 0.28106914093703206 0.7107323608671049
Ni 4.225320596422791 5.508140819274349 5.452135220745055 2.1165154102 -1.5105611595822501 2.0199414330279923
Ni 6.732874942435189 7.027662364845667 10.467985616098701 2.479004960497053 -1.0209500983436353 2.386314634650168
Ni 3.073068148253469 4.883458683554555 13.302179577414941 -3.7350919560219804 0.6901745913204114 0.14174363173011073
Ni 4.621660732475008 3.7521698502270326 12.641778128929987 0.9334158627763924 -3.2497185870137972 -1.724955682009868
Ni 8.516228292239374 3.316785331392024 6.270918785224156 -1.2664845367091673 -0.9318238356989242 -0.5953970439271938
P 5.005359258331125 8.268387425184452 10.918568055973893 1.5306903262319573 1.1683540136833168 1.3715133295167476
P 8.62734384754237 8.393096210048865 0.5515156679693145 1.6615257956899967 0.9757367350317905 -1.353214788317876
P 2.356480106967778 8.18433704418322 2.6979183363624353 2.3828948103353413 -1.5270128773803702 -2.3516978159072464
P 2.0472971092565007 5.097619688758609 1.5076962755170316 0.3189450900471991 -1.1379201226734919 0.4025033716858294
P 6.315011415443928 2.1099827025462434 6.697208808399268 1.7396929882200427 0.9703865264634707 -1.5575048753216403
P 0.9025456607902529 4.088427351841694 7.152582931666871 -1.5551618290107603 1.4835092976707804 2.9150691988574633
P 4.209450944065915 3.0542503417844395 9.213326795739341 1.2423380213699509 0.1983482675980326 -0.3197609010802751
P 1.7796494979607516 1.600175951582603 10.31120166086219 -0.8813433104508692 -0.07145789883067047 0.51788985357865
