# total energy = -340892.2045025212 ev
CRYSTAL
PRIMVEC
9.07590231939274 0.00000000000000 0.00000000000000

0.00000000000000 9.07590231939274 0.00000000000000

0.00000000000000 0.00000000000000 13.28350045069519

PRIMCOORD
 96 1
Ni 6.475592849031358 1.791837263993568 11.211898816701039 -1.0745817676261622 0.3177901505071495 0.2875897156643692
Ni 4.407666633264564 0.05400706497112936 6.200379721842159 0.5522829863465392 1.080949361715403 -1.1898913735344605
Ni 2.9183201211989984 1.8452852533753077 5.016062491612912 -1.7773537359956102 -2.4360695945861077 -0.010426851760278816
Ni 3.3792035222508114 4.088594207605802 4.848424220688595 0.07048962138013021 1.3939557176806638 0.3138195958951757
Ni 5.069817246496623 4.423159198704305 2.4808933899649994 -0.7316523988492238 0.6562386006945988 0.7912983926466308
Ni 7.538553465163125 6.140319937543694 2.328066084208293 -1.225941068069166 0.15738159537768381 0.48140230017557734
Ni 5.054587882227211 4.801987365930288 11.305295298197342 -0.36119988495135213 -1.0555517475779046 1.1615645015653093
Ni 5.739092443132427 7.832984815737589 12.487168387903495 -0.8940188490360087 0.31666503576377075 -0.056234139902380575
Ni 1.8771779744973036 6.609671155558177 0.42580503817858784 -0.0441898071433368 -0.06695589719525888 0.6553042618057875
Ni 2.873258265658102 1.7440617136275502 0.3695734695230529 0.43312186790263474 -0.9772984230919557 0.32758579644133257
Ni 0.4456785417189505 0.019783652106353605 4.9778456816810674 1.1739034827466364 1.2129644533038402 -0.02289798764409605
Ni 8.720054442869847 2.059549157828375 1.314613608215505 0.11294984742686999 0.24652996950958186 1.4708245031142604
Ni 6.906180887788001 0.7537382673750281 4.809225398114349 -0.9060791226346524 -0.9902971493444687 -0.4933291335201504
Ni 0.9627717292604782 7.6832687293322275 2.7787354646708367 0.022923698675708908 0.06491649816772692 -0.3834838931605331
Ni 7.860974898816769 4.115948977515221 3.84215985941653 -0.22276192055570668 -0.5995012959035546 -1.2782203370888565
Ni 7.563566652246854 3.4857183131124345 12.663400630834193 0.16698235169224143 0.3838389625071067 0.16024194764461436
Ni 7.892822240426639 9.090151591962833 6.871063498534348 -0.4572588701601545 0.14590059132127775 0.41918417477562
Ni 6.813116584320459 0.9000145867612566 0.2089590394855639 -0.29954997335003897 -0.9007433122440359 0.09016344565997375
Ni 1.6647927818462438 6.695084473281314 9.307775395493692 0.6227116725817469 0.6393019728402604 -0.6213253337571816
Ni 0.01804380161145133 4.6065922626191185 1.4453773951766582 0.5198968567063498 -0.034749487666043376 0.43463624766463205
Ni 6.232839686865727 2.1016613450810957 7.000909711760318 0.9593207555676124 -0.3866319518712116 1.1114056213227312
Ni 3.433613557289618 4.3423019839985955 0.4911597039518889 -0.1154733851796721 0.17481264636993762 -0.34311474531486713
Ni 6.293257969309987 5.795898516411475 4.71768856902496 -0.6745836788606898 -0.0089662080543523 -0.4962054266266808
Ni 5.014082129703743 3.081650061242094 9.101801420315761 1.7946042955459416 -0.1307940746971425 0.4054079469271341
P 0.1449321782370631 5.497246871209313 12.611554538230493 -0.046873267512770884 -0.028029138223074308 0.72914557326697
P 4.155628822918 6.149668117041604 12.699491864418064 -1.0197990154583274 0.36623564760304667 0.6487638895841085
P 2.5864052936086424 8.620582552290145 1.6639441849694916 0.9616298633167633 -0.3512070354046984 -0.7939538279916069
P 6.529839517826511 7.749241464060681 5.853095761085045 -0.9742894610623027 -0.7822308831277238 0.1220402397639124
P 4.6752605403678436 0.9743707325598268 12.395617944960469 0.9075351383548886 0.905062765554996 0.4969883275392924
P 4.0241553003872 6.080446209244944 8.194193025995377 0.4230061196248715 0.7424970548732116 -0.06981110725586687
P 4.740779479975041 0.7036483618905957 3.994189393350065 0.9718957640191455 1.2500667574727762 -0.9735343280638331
P 0.24488327646481378 5.787267333205151 3.4812602298411983 0.9445595380980378 -0.9521340080111861 0.9728388446587053
Ni 1.6483109430421614 1.1392526519176238 2.8212161335620185 -0.4601166513239237 0.17132083116659527 0.03522231353740386
Ni 1.8565847518946261 6.491920397494212 4.94102383795197 0.211869442012919 -0.4596967901776857 -0.5185588546212166
Ni 5.8804677752090715 5.477007608801216 9.262944067874395 0.612734506764377 1.0867752243685607 -0.944697863448115
Ni 8.603701373779357 2.503478773149998 10.284219064167424 0.6926911870946779 -0.5794297219646601 0.39649830314233003
Ni 2.4230027463461457 5.3126793194913535 7.062571392836824 -1.0243475540609583 -0.3421590662698172 -0.2626037351429929
Ni 0.6338855303093966 0.20908428693903106 9.294584478908972 0.35181921506740055 0.05849619646367991 0.34811476963261984
Ni 1.70198582998453 1.2508136445276332 11.555117680761926 -1.070740025282569 0.8231453619538984 -0.37047925337074905
Ni 4.036053808466579 6.888446574449249 1.606174250852893 0.3876979312418807 -0.26836866265122816 -0.35344595203754614
Ni 5.54884337649632 7.7598602698981125 8.072423458337553 0.8390993141799936 -0.020136622848874998 0.26595491100341295
Ni 5.170405473074618 2.49543752360131 5.048885492733485 0.5510398579680574 1.233499082922082 -1.115230908606092
Ni 0.33510409970255545 7.446033715841092 6.68607754771459 0.9821552369636246 -1.432843652995113 0.6562650830571601
Ni 5.235497845267832 4.535173986435572 6.802002234210614 -0.8655672785635351 0.02111724159458944 0.6131212006798344
Ni 8.169954920978757 7.511852160228319 8.974931195495 -0.6672413795630057 -0.576228184308227 0.052213705889077824
Ni 4.698694520429595 0.22800845108572246 10.188033557855869 -0.6904196174516819 -0.4652094924657988 0.6568340681867526
Ni 8.103582846543596 7.534315018730578 4.295751680459974 -1.0338866038996453 -1.0134180516326483 0.4893130703822218
Ni 7.247325908144741 5.881584111207365 7.0415969823322895 -0.4136586169717005 1.060638675182509 0.222012701094508
Ni 2.422031624786654 5.198876578982332 2.6627971643211747 -1.12241688483157 0.038314836419798534 -0.4178142910112869
Ni 2.1271737067982075 5.326864954981872 11.621694870591895 1.7437856702321772 -1.2185884843588368 0.3997191240724729
Ni 1.0799870090813595 3.4087183569374164 3.8585119128159326 0.015476241258728183 -0.3515060547023559 0.13634302953982969
Ni 3.7270465585973147 2.424246144978392 2.9129254047974857 0.8020836561875928 0.27904491141815174 -1.142645038952987
Ni 1.1128962312749726 3.4838486772128525 8.303183723038583 -1.1595119899116546 0.07380248780344709 -0.6734313104238014
Ni 3.6449187175520845 2.7728515571286088 7.083280786990543 -0.2737381544932576 0.5443914994136043 -0.4736295982086939
Ni 4.3455874606765015 6.7732279931619015 5.97169057807455 -0.27000568403401887 -0.45146180386240314 -0.0382749843207986
Ni 0.8455782316054173 7.316021413600741 11.562185085980394 -0.3446172980023226 1.1942846175061497 -0.3221988210978064
P 0.08272775819553341 5.727148555540923 8.116816419869716 0.14715708943619818 -0.7742756328363891 -0.38717522596919124
P 8.43362803823437 1.6090122855412388 8.11575363169573 1.1064025116811849 1.794416862125484 0.3537724821390294
P 1.6861302284477837 3.362131749789094 10.468646846988035 -0.03897175327750707 -1.4467944587482502 1.682648950821857
P 3.9670315705232726 5.949735062517858 3.8953600766620635 1.1564621473417374 1.0713928283752194 0.10391293403558234
P 6.859149561420847 3.935429278278882 10.548453979783154 0.6354280917071508 -0.4402780193314418 -0.8043621678091244
P 6.30659046997254 7.535140925851267 10.316511124996126 -0.9219788245840443 1.4329087019050935 -1.804886651308556
P 2.22986754273884 8.511535584651904 6.011833294501012 0.7446099874511564 -1.301892483894816 0.5007861040188278
P 6.919232035475376 3.872115782960998 1.6947750255077443 1.266224341069245 0.8418686493950146 -1.5399902634766447
Ni 5.275794852035522 2.739579298837989 0.3884268416308281 -0.24159088033675163 0.4726695482882699 0.10792436918782058
Ni 1.610074166124982 1.0940728096452006 7.140054187020859 -1.0749687186519359 1.13255011661083 0.10602021018657225
Ni 6.82811905102924 0.681429645163573 9.106118827099408 -0.46759573330978826 -0.46695475729167973 0.05963699493634245
Ni 2.899424092349825 2.0024980351838484 9.109864452030267 -0.8245275870134057 -1.9939689202236301 1.264390630294616
Ni 6.5564137601273655 2.056926222027505 2.617274252937081 -0.5777567051376115 -0.98942374560058 0.6348362237594227
Ni 3.923058823273395 6.790136399379966 10.550579556131124 0.09140631692813936 0.8174632239674565 -0.7478500916550088
Ni 8.075928571854147 7.482518843590216 0.20897628370017174 1.148765550028428 -0.9138441112920519 -1.2256366494548698
Ni 7.618593848650571 3.7624062744457203 8.331345340673597 0.031709158177822806 -0.00031187481346397903 -0.01360859192237011
Ni 3.16436783594496 8.463932476431964 12.386957718866386 0.42241270901524675 -0.7126668588856564 1.588928126827928
Ni 0.2821961265151124 5.022658857495514 10.242269335568114 -1.4815097507422486 -0.5871995957180661 -0.37080295525875495
Ni 8.426067811514216 2.3384516393533987 5.92640727051448 1.5688550102271368 0.22655686882176468 -0.2579569803996009
Ni 3.7795960336389642 2.7839695375994236 11.29027104932274 -0.29904552290979464 -0.4151575701147302 0.852420713879248
Ni 0.9249705956597063 3.2703199208562226 12.977926936968192 1.2804173447401757 0.25366298100993734 -1.556870841282067
Ni 3.1929750803890493 8.3419251201306 8.131256180628137 -0.8485368054438095 0.020142536386145955 0.6698577341399302
Ni 5.4060431277389265 7.791399030825528 3.4077753706754432 1.287224597469996 -0.6715474631375273 0.8111791907309578
Ni 3.1150493821666654 8.40354142169498 4.031356121371318 -0.4201570802118506 -0.45067916006010766 -0.5281477838612324
Ni 3.1016170465774353 4.476144317062361 9.381113225040158 1.0927334988345245 0.9390890019017699 -0.03891287501511363
Ni 7.456561762654272 6.174027839150721 11.341997340014428 0.5961820017223346 -1.599673024049258 0.90525045608577
Ni 0.8102811394837458 -0.11921107076417284 0.5087769381493579 0.09869462305943648 0.4869689956300775 -0.4274307310551284
Ni 4.827844611939556 0.2831645253038765 1.5543953199271392 -0.8592788744516621 0.1160696240027743 -0.021203887771124773
Ni 6.255229938148585 5.488960572295146 0.2750733582918505 -0.8218163587298297 0.3336186328989738 0.20490535199026003
Ni 7.987320536477356 8.740847335325878 11.223800955141387 0.07119950296296125 0.6735578086993368 0.22488308066376755
Ni 9.150052547968857 4.901804140802146 5.9447115505255335 0.4591859119795382 -0.75972524582604 -0.43842605372436755
Ni 7.9091497888894935 8.908433873606372 2.2278154812005124 0.6377672813632886 0.2738373990752832 0.26995349063984475
P 8.635421652755273 1.3747178644358538 3.61151848903727 -0.33792754468697284 1.666475426385788 -0.42407235610585675
P 1.9645879907539745 3.1452267577303066 1.7688706929067124 -0.6429120587890218 0.5013751437530785 -0.30688558777950375
P 4.714822399039096 1.0564259663856561 8.094712967103492 0.09468395923814661 -0.20586591613131644 1.0775135965609766
P 8.661533024032446 1.3537253021264697 12.544446408108652 0.5048736438246402 0.5057208223162838 -1.2656730965514653
P 6.391132501062862 7.717067389963505 1.365079256060339 -2.242053892925158 -0.06235259409529261 0.21352214712499357
P 1.607968556762346 3.2069701219286384 6.128674647141977 0.321244427604337 0.4056871687304497 -0.27859805368872015
P 6.908531546516117 3.8698377314522836 5.707972988897055 0.04375889025350528 0.6444148685867933 0.9253508263800709
P 2.420797302056833 8.611316055914061 10.442265921408836 -0.313162421927151 -0.5775674719449407 -2.1055807655653673
