# total energy = -340869.8325732065 ev
CRYSTAL
PRIMVEC
9.26446860805210 0.00000000000000 0.00000000000000

0.00000000000000 9.26446860805210 0.00000000000000

0.00000000000000 0.00000000000000 13.55948627472279

PRIMCOORD
 96 1
Ni 8.22434650896358 3.6788277463241617 7.586736149219399 0.35496521689555 -0.3210102001063439 -0.5580587124880518
Ni 6.843931456884589 5.873830444587388 7.847850558084575 0.4369852075127829 0.8596383146736097 0.5222401601275457
Ni 9.223575009826202 7.433883538423223 11.776996828278595 -0.7358556382972941 -0.07862484889275491 1.453009843530343
Ni 6.430921456806191 2.8640640752408344 11.748982928811635 -0.027263720811959498 0.6434465911362532 2.5079103306774937
Ni 8.071529103147222 1.9121677432970214 0.04958528762717816 -0.3104843608743556 1.804816974412885 0.4557349773164603
Ni 2.874366164071861 0.5165561837454289 10.516140667002919 0.26866639639730505 -0.36481614154770076 -1.1290547018630621
Ni 4.411183971227647 4.109051128640012 1.2172622053454634 -1.1809786444258628 -0.23278639467124426 -0.739364937002133
Ni 5.348331269521284 0.7507165483255438 11.550959549568125 0.7565242223902391 0.5729780528020455 0.33199652391451856
Ni 8.35152913079122 0.6617517114311329 7.629977128904592 -0.5960364772834057 -0.10920040768676678 -1.0911090758572242
Ni 8.503735081694945 4.226524587612514 0.8959120760112477 -0.7997110421903582 0.1859054138489895 0.07055904116548492
Ni 6.829451092817237 4.851783558121511 5.644190214126571 -3.1136285540250372 -1.5507654997152778 0.11599069113572283
Ni 2.4548988295373246 6.158462706417999 8.442909214590532 -1.5953749108945363 0.272807158038556 -0.33860503036997164
Ni 8.336353931595877 5.648944739295709 3.329870427684571 -1.265186386723034 1.7682957395584 -1.287928822625872
Ni 5.566277888001418 7.8506641771295245 7.173469523367062 1.4667760440764996 -0.46054576844154227 -1.185985353611835
Ni 8.811852770851683 8.082942928183037 3.1550480565881287 -0.5324826637911605 -0.42111147370532 -0.6089806961488996
Ni 5.781760157894272 3.8107074536170282 7.824609712723502 -1.1235515126566455 -0.3459588996318816 0.9648779379404157
Ni 2.4372407528179565 4.412962749155306 13.235658653791011 -1.0099738018377897 0.39976668948095667 -0.16097188383210342
Ni 8.73082573045945 3.562901453569989 11.741308243211256 0.6897781272129412 0.8923502030843341 0.09958885273893171
Ni 0.34381646513928793 2.005321972789805 9.009885414563566 -0.7174668513774611 2.07915368172209 1.5197762504226149
Ni 2.7670558269047887 7.198927356009849 3.158926163049161 1.9464551909133834 -0.11901379423276277 -1.344919123967987
Ni 0.05571836569025353 0.19722200272922702 1.1145072072775062 -0.7626501327823189 0.5541956299882197 1.0167607428526362
Ni 8.867245027255198 6.445031242138613 9.649716467376809 -1.1276637350528063 -0.3101454894776981 -0.7994351628211522
Ni 1.420548729071804 5.111735276205849 10.675532139576916 -0.22535693497639253 1.3748508785304128 1.1409709936846737
Ni 0.17851518819000983 6.603546296004504 1.0569674471050765 1.1279565837028767 -0.6163991001001577 -0.2718728191497447
P 6.36040958801757 6.436267055057542 10.444058470825036 0.6101214946215621 0.16166556746501834 0.8461261391197878
P 1.3744950567884995 2.5114584089558676 11.901065662285994 -0.16719755302684108 -1.286140363266882 0.26048797435157073
P 4.498584965860657 5.643904868500675 7.675699133220134 0.5005539334033638 0.044779103987903524 -0.3734895009519826
P 6.121247336962751 3.13736589225099 4.508637840492445 -0.01610616153324323 -0.8162334653254136 -0.7232952851337802
P 2.284414082533227 7.846337670399228 6.805790567038857 0.40531075922763743 0.3541977426019061 0.13665439013266145
P 5.601186404831731 8.985969189458086 4.96953773048572 -0.3284265471750731 -0.22411612059075597 0.654053420117822
P 4.025698706686102 8.4410516886817 12.627555625815555 -0.8875440399449424 0.39916376578963514 -0.5195934665333181
P 4.1116451797845155 4.104335514238041 11.896917033348466 0.8168435881055868 0.9427700502977828 -0.5178055213949598
Ni 6.014409487682713 0.6157980954062591 8.73042457897889 -0.6852995226162971 0.053243689815488944 -0.4935649036800403
Ni 4.278850304984492 3.9030649388297145 3.5665516541090403 -0.2739484707318508 0.5542971885630906 -1.0473131617181963
Ni 2.1415374512813417 7.154559816970471 12.62516909876261 0.42949481267300876 -1.5690457860817042 -0.3113546792944509
Ni 1.5887729457928348 0.13113947626984598 12.536069927076788 -0.45706835141590313 1.1717262725896596 -0.06762207002434806
Ni 4.125486295534115 5.716380804584418 10.11372180716879 0.2856135657746049 -0.2871225462199636 0.37083483693795494
Ni 3.344973364026603 8.575821910107013 5.018799688166673 -0.6551903619357426 -0.568534158098079 -0.8851673121826497
Ni 5.3014993818946285 2.0327262702378066 2.3940627715177016 0.074566105442349 0.3092947114416286 0.1500477807204319
Ni 0.38734834913140054 1.591366996937338 4.152226330599756 1.7057767950885718 0.1796614898218067 0.45726169837363184
Ni 6.420359962860713 9.047522317329795 2.85988580000451 -2.0725778282767853 -2.4520767686476415 -0.12314812811611049
Ni 1.2756153858410624 4.969572009018702 6.541855127554032 -0.4811590738165197 0.16154318295454115 0.02962013685927802
Ni 3.9359630660230382 -0.04597121851478285 2.566078935143894 -0.062783253874808 0.25440782959576186 0.5567201961822864
Ni 6.220636553670716 5.605985399449063 0.8441922548708782 -0.695594476784402 0.700325049490852 1.1184103347753385
Ni 6.039247527391331 7.80716749811723 12.501222555737739 2.605260009673261 -0.9554715570248513 -0.14646880511992194
Ni 4.987739631498597 6.405962979008722 5.108427860996607 0.099439471645261 0.7425191663603986 -0.19240927640577832
Ni 4.710935845443362 3.0231720550826116 10.194632115259521 0.8052990778010969 -0.6229122186283272 -1.913473079560408
Ni 1.8675871214850597 3.7803014684161016 4.408893794645786 -0.6217876181055807 0.02202844055494916 0.6174869338476979
Ni 5.0079361725522284 8.19309745714069 10.418878572233446 -0.6802794436938864 -1.8055744214042002 -0.46024392093040734
Ni 4.136677773328972 0.4632873434930563 6.760814352427358 0.5320710301750385 -0.10691829652080942 3.1036591015171515
Ni 7.2938696278986646 7.303245269892368 5.317420370794017 0.4299681527650015 0.5681302377914409 -0.01814967432583326
Ni 7.616041515577585 1.5342052270745359 2.592573461797644 2.2586431647424066 2.7714489189299303 -1.077262656892435
Ni 1.622199147683433 0.5469603160526808 7.934943045920758 0.5984589706819694 -1.5262443746454617 -0.9755642140096681
Ni 7.397983723476974 7.569339330508155 1.1630734033836294 0.5648950186835949 1.2945802665041188 -0.861356325805981
Ni 3.6385087799638836 2.0513941740098565 12.209503902048446 -1.1722469209798199 0.30790117352821167 1.437784027719524
Ni 6.428494166092406 4.2657040243628845 2.6373745779568885 1.1658662142644567 -0.7557899153273757 1.2021537358415813
P 6.421740368648325 3.3863021574395624 0.5268740221726903 0.4468214768769143 -0.34407325257339455 -0.1654790276738376
P 8.104102973947484 9.16629280187455 12.953634339807465 -0.8442322645311848 -2.0668329553732083 -0.9758400933788742
P 6.341130229332888 6.679922573273376 2.8445632957620317 -0.05492776238613121 -0.3854361317908975 0.665412553884383
P 3.3660129717021987 1.5836589592508143 8.599399055670036 1.0031266970089692 0.8609814589650656 -0.17478410712484738
P 7.6037105081728225 7.944865291548482 8.296113713216773 -1.5208969942906194 0.34803840786872964 0.5069930041604881
P 6.98489960765159 2.1545632938140966 9.862681581212659 0.9956525001191109 -0.24487854994908795 -0.6934501767478896
P 3.166965868703446 5.467750266852162 4.601072220792628 -1.4940816738699882 1.0690819208538556 -0.5423937522572853
P 0.5755523183461296 4.5354112276442295 8.72238302043093 1.053166792285496 0.27652034522408503 0.26069160572194455
Ni 0.606833795808326 8.789025120780055 9.881122505509564 -0.01868112134927105 0.13444375563458782 -0.22938456807854687
Ni 1.9257865118056632 8.345275614639293 1.1895197548018395 2.213011997166853 -0.6530476045611269 0.4654869144969015
Ni 4.295285471878594 1.6605818401537067 4.949253176982543 1.875385528660067 0.8351984364636906 -2.725650372538577
Ni 8.601123173234292 3.6155051049931646 4.1094189280344295 -0.8015822910711421 -0.5101747443225795 0.5528411728428543
Ni 2.397394274344713 3.143239565199615 10.075403039530293 -0.7161926126507279 -1.1450371933342474 0.228229114317865
Ni 3.8250488506587814 8.095839068158568 8.500441563188264 -1.5557506116346949 0.6404124322956196 0.6055410743397314
Ni 2.8273026647358748 2.1852472130662197 3.054545250781702 -1.0793311093856894 -1.399378431358132 -1.1830661230825108
Ni 3.051864113634491 3.8809321238860788 7.946143788183988 0.4231734984406712 -0.8337223661387965 -0.04506938153481271
Ni 6.173109830916069 0.5246440646352549 0.5269731519842837 -0.5030265633135724 -0.09582938569649949 -0.22658900761128076
Ni 7.7231295055037 0.45481220782522946 4.586604826980999 -2.485765162039022 0.5787339814492162 1.926770310889946
Ni 7.011433045072508 5.240622560214163 12.47592036616362 1.0745745685373107 0.20148861299922718 -2.7220839953435574
Ni 4.108819516930682 3.9592539395133275 5.767147311929183 0.7356221821302492 0.09703086220376837 2.5530936120823515
Ni 6.4830248269372115 2.189879447252833 6.355832940641197 0.24312197226929738 -1.1944589383004847 -0.12268841487087258
Ni 0.2915537461522476 8.83301281661613 5.288904337141228 2.258638793867033 -1.3542555708775645 1.6772342075641888
Ni 7.163944723432549 4.439690740412062 9.977015311853474 -0.05562967354916226 -0.0001488668730384533 -0.6383565782078554
Ni 1.2092447344152741 4.330286633392641 2.0876052750934457 1.2687825887147246 1.2474339478356193 0.2628788431812505
Ni 0.2831953427859234 7.670905697283827 7.539250190125593 0.5631451258720237 -0.7898058672615043 -0.41165624182969107
Ni 7.4358290767816015 8.722719320632878 10.448939919210888 -0.3232447458638175 -1.149351247328569 -0.26229597409458694
Ni 8.691562913493721 1.2311922599914458 11.364882702291887 0.6786367658841409 0.3717036126961534 -1.1527013947477247
Ni 2.380616322120802 1.9260829747936064 6.138501482861047 -0.424428711004011 1.1651583895641546 0.02102802431489282
Ni 4.908861947768954 7.5262039657624165 0.94548902561689 -1.2964630853491286 1.3863974457174317 2.1552303102716945
Ni 4.297722027060753 5.994361178123054 12.929782965980596 0.25748621141076944 -0.6134587865249111 -0.8315726667856453
Ni 2.0257779189578873 2.201969578479892 0.5267369080407666 -0.21222348291822804 -0.5971471938490812 0.3154830996405276
Ni 1.0744003972429752 6.3423716680949 4.113771375276171 -0.9570085624946679 -1.1735342723326756 2.145221262775125
P 8.629518768798228 5.552918524607225 5.578752494665966 3.843237954302303 0.8142370037206751 -0.3257698262785164
P 4.027922179095676 1.2374087182698799 0.8616298372429636 -0.6441335899009486 0.3456051158368887 -0.4568117553204068
P 0.5675014953297967 2.33029172991744 2.1627790243674734 -0.9911034472958479 0.13760595541265333 -0.7676969511776068
P 1.4380122519553342 9.119303418285547 3.3001750272078705 1.4828032727426914 -0.8034609961510936 -0.18087119385919173
P 2.340010157240954 7.51360428877483 10.30752800040881 -0.014322587270259203 -0.4578448245706115 0.18952347021755103
P 0.299171918495551 5.279598178660324 12.820426107749876 -0.19279777009344862 1.161706426459812 -0.41613870308107687
P 2.7605243767016647 6.1136875307702 1.2149025452508029 0.2739250736930831 -0.08221359468527777 -0.42152079332859665
P 0.2946536372699289 2.1529234829120356 6.391765181226753 -1.0599028254577487 -0.2730182456080975 0.22306299673589325
