# total energy = -340888.1899012072 ev
CRYSTAL
PRIMVEC
9.08703993642024 0.00000000000000 0.00000000000000
0.00000000000000 9.08703993642024 0.00000000000000
0.00000000000000 0.00000000000000 13.29980147902974
PRIMCOORD
 96 1
Ni 6.64760595098512 1.9830829171775262 11.13104245131681 -0.06447555397556638 0.3256129889856779 1.1572404202686586
Ni 4.803754660961239 0.23208027594412764 5.846393454274429 0.03527142160778442 1.3040406405860703 -0.23123679079593726
Ni 2.8495957921605597 1.8019146003414601 4.709898259432775 0.7114245018381231 -0.21929967303871908 0.46010893801443986
Ni 3.4660696740121697 4.272844347917794 4.585239518355771 0.6386584257189903 1.1598171798568992 0.10459479059395535
Ni 3.858329930463113 2.5765211525838625 2.518424070933679 0.34816979124027136 1.2071169933841275 -0.20826655515300904
Ni 4.943104419635115 4.610100751140633 2.368707817007428 1.0947852391572308 0.21589219001906693 0.07977824577090778
Ni 5.638635549642103 3.4013608620449918 0.2300629530601628 -0.048222582451813725 -0.4351586958270054 -0.3352533402889194
Ni 5.764009440768511 8.330925592053497 12.25711026773797 0.014264737449130272 -0.8810023821716826 1.4734735107013333
Ni 2.108193284143417 6.572501565237512 0.38218727259114604 -0.3623975048038791 1.2685103088899443 -0.7578347136715464
Ni 0.7060639180916891 0.21455773667768907 13.141321061859786 0.9325499152316713 0.015483697457895915 0.6433712578136275
Ni 8.23840135059165 9.543936389957533 6.696130744680491 -0.1460358313475614 -1.602646761965601 -0.05080756957017057
Ni 8.896730138765522 2.3003750934811285 1.0182982479213505 1.5681482139680993 1.2404485176567217 1.6438327492856077
Ni 6.931266992182625 0.7213483194017288 4.53350336471809 -0.004346964114786062 0.44524667619062674 -0.5589467715199599
Ni 0.8273822632581267 7.468501885078499 2.459625469794117 1.6128956933871188 1.3444280432641813 -1.042847412637359
Ni 7.960665059485791 3.948264365519869 4.055442367714515 0.20161048328907213 0.43078576357029036 -1.6995914922134667
Ni 7.90241713297131 3.8862634914780134 12.576052650508815 -0.32195096675305845 0.6382069400038686 -0.003540409053090677
Ni 8.291396967975807 7.321282749749156 8.789306786490393 0.3153766559696504 0.9143555037108317 1.2081863151889063
Ni 7.116397258466477 1.080176446922965 0.44521043863501103 -1.3522873914076001 -1.2627104143787158 -1.6929066239941228
Ni 2.031498666392682 6.830455370224491 9.235009742694372 0.40926588722064355 0.3016497933018611 -1.7069062807073248
Ni 0.42144873769231 4.781582283317662 1.6437891995826825 -2.0797558340824636 0.03560926456317739 -0.9667345315331802
Ni 6.67121408095152 2.2136211224306233 6.520520061519348 0.5776847142490955 -0.8029907413828946 3.01301871622076
Ni 3.4728122577054217 4.5621211798463355 0.2364838555367824 0.7599766997152138 -0.946441328501783 0.06914004933077125
Ni 6.259616603342572 5.927975990850769 4.381100981762561 0.8876157737231423 0.04605951336222391 0.8590094228403593
Ni 5.743345511767899 3.2075161243840116 9.002343352669092 -0.2597888914020171 -0.5591799705766886 -0.20108829223701494
P 0.43011686516534625 5.972020873817334 12.45697971293079 -0.9253186875905548 -0.8536905817306072 0.22990238825522985
P 4.144671648465885 6.341845228464182 12.4649726733305 1.359159178826769 2.5436880024977353 2.342635962815294
P 2.291515229463715 8.66948144199889 1.1672493730780973 1.0169512615968874 0.18553517499376435 1.0892396267486533
P 6.698829595565795 8.032443588586863 5.737189042155799 0.307855922112573 -0.646819364263228 -1.5109882198173399
P 5.068769096042095 1.3768228683059904 12.73801823437914 -0.43220835494942983 0.2889002069456767 -1.3566929766744635
P 4.366767993542391 6.5463763251861655 8.039596906488923 -0.9277779477643247 0.34117124843525115 -0.021628376903053075
P 4.874124698859544 1.1090732341797587 3.5200185218942 1.746425936068502 -0.08433706878618379 2.1871770383816203
P 0.5968585972690583 5.799948684039146 3.647736869345216 -0.3203311717614483 -2.5536422854969696 0.06975094344189278
Ni 0.6739185140285109 0.24828792051998194 4.467110724235603 0.06769406091286406 -0.11635038846798672 0.5354869978351229
Ni 1.9729599545976306 6.894037389229454 4.909316078736707 0.7734770481944938 -0.7502718137226241 -0.9925784891794777
Ni 6.317292046335926 5.716048043554248 9.08450927721458 -0.4813328803902226 -0.35139189772199486 -0.6455970618203527
Ni 9.033962617115236 2.711581828369309 10.224754693471604 -0.6882629761199953 0.566474704465889 -0.4025509370943131
Ni 2.8041969402313334 5.252290956242787 7.118412763942439 -1.2685828139990927 0.7889841426911574 -1.2218730686473793
Ni 0.4696563936910568 9.24960716377906 9.158177001935366 1.220048870954447 0.8338138974113382 -0.5032327657871074
Ni 1.6932063406078064 1.5454147217573386 11.412866093022703 0.9403267309636127 0.28130825353103167 -0.5190530206488158
Ni 4.4063238787401335 6.887331153696273 1.578048099869476 -1.0936727228193424 0.5424837408679303 -1.197530378136957
Ni 6.156805832580508 7.911295171068759 7.734832123553941 -1.7632080406228472 2.0942645692215995 1.9985881641631964
Ni 5.4469626145453915 2.866397729153582 4.940783589614554 -1.716709897061308 0.30240415496938244 -2.948215603702445
Ni 0.8356414739303593 7.94865199258218 6.702660691637325 0.12401818942588964 -1.0867862801121542 0.9379921692931652
Ni 5.246102681990624 4.875460493742169 6.992450941326875 -0.23343559821946894 -0.30781092780725056 -0.14107745890102155
Ni 0.9851714435362435 7.722348347977406 11.16756417385259 -0.7431961378227653 -0.6933982404640316 0.9745555702394958
Ni 4.8473088437668395 0.4903439489957158 10.520089854980052 -1.2431291498126784 0.34594527278512677 -1.386734003121244
Ni 8.461815316470746 7.349570705324753 4.453531960336916 -1.0935619082730907 0.5580625691427938 1.605755482797912
Ni 7.377785964580208 6.2175072598998105 6.957272283305735 0.8480426394162103 -1.1257642040372484 -2.356475439801548
Ni 2.471484057017424 5.473424075077399 2.344289123071436 1.6113769427497475 0.05446702069962878 2.377653359430744
Ni 2.571959458494897 5.6711035436259145 11.393979589049584 -0.5667310434510691 -0.5522279647388877 -0.6322679488116143
Ni 1.4278011628061822 3.402633047647492 3.5541321788252467 -1.628845531848156 0.9087368719724737 1.3954245889167065
Ni 1.7978345193734413 1.329415780532817 2.5145666224460976 -1.531089104332273 -0.8836372486913685 -1.2362851303076516
Ni 1.4195773915900194 3.6550891934236662 8.329346264498392 -0.41330868983144947 0.36677069417091024 -0.005038333754855838
Ni 3.9631125889090515 2.8900967295201596 7.018904223522866 -0.39050711855590164 -0.2582863387145616 -0.5579748945249938
Ni 4.154049473764316 7.021664866280291 5.86095634460705 0.5649287001350077 -0.021405719369285717 -0.15826014132789518
Ni 8.354479199779789 7.630814593877507 0.17451751224699452 -0.12628358842129864 -1.336369434625763 -0.5302802568232028
P 0.3153066580596997 5.791897566583322 7.853027253066241 1.287294531475983 0.06459305339003715 0.7371566164969047
P 8.94661798846357 2.0947444649169844 7.859490864630944 -0.1299201567326214 -0.9409263122208246 1.6980596289499723
P 2.187150574858598 3.700778830633464 10.525689289039057 -0.4506043409581143 -1.0843779277809777 -0.7226465958061877
P 4.300805170052748 6.204703620514646 3.7070806928858495 -1.9322395615346337 0.48239500310614986 -0.1542924149293988
P 7.064110430203714 4.018752534938406 10.518360591264655 0.965612245003279 0.924189201971802 -0.990030011726011
P 6.463248083102786 8.049336395980065 10.17106300882208 -0.13420695703343338 -0.32239113961427057 -1.2063009252407353
P 2.5702238338514856 8.862417475658082 5.498949570487566 0.3913838647339002 -0.42940148162825403 1.4689367991732443
P 7.0944520568233465 4.479629030564206 1.679512171300892 0.37194658194489494 0.05192239990090412 -0.5182600924338752
Ni 3.0774260594883343 1.6609564355844229 0.29675273975123406 -0.8453746056657441 1.0672016731120073 -0.28436426674853604
Ni 1.7345069374889779 1.2426163742822227 6.931936707031941 0.22034071270872374 0.7046851262317606 0.5298190009160682
Ni 7.323936165434372 0.9949400115554425 8.996278662161172 -1.6380333689950113 0.00018229121413516992 -0.5326945226916503
Ni 3.298413785682661 2.1207333993680626 9.210631031734458 -0.500014515960126 -0.926138869499005 0.48959614884027935
Ni 6.695531000039312 2.4485211068922927 2.317450550378688 -0.32131359027937567 -0.16616294111473964 1.4783650344656798
Ni 4.415956141159064 6.871101700224377 10.171142974774236 -0.1295540316424543 2.1765450125890706 0.2643528566236157
Ni 7.512310505004601 6.257353930378125 10.928540490630816 0.3044073014423403 0.5404032041898177 2.6264487279357347
Ni 7.913884977473849 3.982631550867414 7.773813707822556 0.36589060555880215 0.38448353806964103 0.7452306517542908
Ni 3.1178906486878626 8.662538943425245 12.400056676850914 0.5860863080492293 -0.8227344996687249 -0.6237102890495904
Ni 0.4982560347392661 5.333265569841933 10.375295141927474 -0.623177813584888 -1.3704254957692075 -1.297773833740752
Ni 9.04307691825315 2.509386100931916 5.700680950180047 0.4104051430314093 0.46846862283304475 -0.7542603660567269
Ni 4.095110932208479 3.0305914552362863 11.420380166413471 -0.07174380550220548 -0.7595169864699758 0.37117910765125106
Ni 1.2539660872645293 3.7760831312614664 12.629012828436903 0.2318929363226974 0.05416080231311963 0.1271626485921423
Ni 3.447068673334825 8.779979848616062 8.038133893046046 0.24262497802822086 -0.3251293644810401 0.32563150092843923
Ni 5.56660258342053 8.032897940587755 3.2027781417187 1.7150052556653756 0.271329545051765 1.3988019900293718
Ni 3.2785858643636914 8.741296319260034 3.346628711313422 -0.8050010869447038 -1.192479703086927 0.012083670637411448
Ni 3.775065382779466 4.686059318649922 9.153747978630662 -0.058031855232751665 -0.6921129459937049 1.1270698102225492
Ni 5.296572102249816 5.035655922217015 11.299046373279003 0.6408281796767996 -1.0567935904048058 0.08834439017336398
Ni 8.188313586013209 -0.09590916386849865 2.4038328614924627 -0.48525072738739006 0.8774974543422178 -0.25029329320675603
Ni 4.849098990650358 0.5273409237244292 1.4633505720600506 0.17429842573768048 -1.0428610394841136 -0.7603399965919034
Ni 6.181777018549587 5.9816531362362655 0.2422995611482125 0.42364323898823814 0.006730890965930344 -0.4881205927360174
Ni 8.079759805959858 -0.1057286193117977 11.190798826474254 0.17782829326780986 0.23771545654174542 0.41200694030089047
Ni 9.6340798269347 5.057010466258984 5.843054875771866 -0.5321358219747029 -0.192054721279837 -0.5676216735861386
Ni 7.703383695460133 6.548121036869595 2.3652102153045544 -1.0037309062518711 -1.2701990094462772 -0.4640692082137685
P 8.623328365748181 1.7947630998474047 3.479453975254475 0.3269741309992627 0.996648031263161 -0.4747531702901759
P 2.1222145868909736 3.3547261726733364 1.5459290482223493 -0.9323306001320136 0.07665692653310668 -1.84663930976531
P 5.100237515623943 1.27565685178716 7.98090462371757 0.48200753785974404 -0.3247264726156665 0.4531659310377035
P 8.67304356168589 1.7525992341645364 12.239594998103547 -0.12133447194613942 1.174254695438468 -0.6725797610567835
P 6.49778792221067 8.086338822932788 1.1151124809756279 -0.3859426391136708 -0.5795035126253891 0.9949531600592413
P 2.036796410723094 3.44093492132277 6.032843158768873 0.23709093558386907 -0.7507073585981459 -0.35694188100594654
P 6.864886164852161 4.33021991859056 5.810576886044035 1.1774526335504756 -0.25022952984835617 -0.06670521463703351
P 2.392399547741992 8.953024351676161 10.165717103179572 1.905678523216653 0.3741551595604395 -0.9915873289108019
