# total energy = -340887.11060683714 ev
CRYSTAL
PRIMVEC
9.11604339636497 0.00000000000000 0.00000000000000
0.00000000000000 9.11604339636497 0.00000000000000
0.00000000000000 0.00000000000000 13.34225097437125
PRIMCOORD
 96 1
Ni 6.539183893479582 2.165643677807448 11.220138963087892 -0.3272692936421783 -0.9938786960481399 2.921801375374974
Ni 5.002291944661944 0.3246095345488975 6.096288229274009 0.02713233744041779 0.6576727620379641 0.18964328362486693
Ni 3.1793385614114893 1.513071728034561 5.062143326043992 0.14372209561272023 0.1660043040496883 -1.654887978658505
Ni 3.7843429979635212 4.794473508691105 4.80094225291907 -0.6042015295927013 -0.6087169009645517 -0.30362362919878033
Ni 3.935696662587105 2.5598760804040577 2.676282481960667 -0.3623437687478082 0.3767740852405253 -0.6285115670929756
Ni 5.597560447116645 4.736386081660961 2.39906999062549 -2.3005148652755283 -0.5127679589710523 0.2524177957489266
Ni 5.388857754959063 4.2316034236352005 11.813255167751976 -0.4439050745610678 1.718962954761543 -1.4591992601705064
Ni 5.359567908278609 8.231449681955375 12.467693171560184 1.8324141673048635 -0.8329320090270171 0.20197532282765862
Ni 1.7263780219891014 6.744869175350444 13.582544228114632 1.4273643750480967 -0.1206860397288631 -2.7291452730657126
Ni 3.0027334572283486 1.804520743976294 0.21235549065271322 -0.04117673134862586 -0.6876955336522995 0.5180451482095917
Ni 7.96541619435012 8.965674030332938 7.04935139820131 0.25343723815237645 0.23105012870642788 0.680064499469603
Ni 8.579518441978124 2.320780500343384 1.2103087909241033 0.4914799961265535 0.7336689150586203 -0.37647969392855807
Ni 7.164881748010023 0.6351876554623906 4.7645847379748885 -0.06884977178386206 1.4989901669151993 -0.7881541905906942
Ni 1.1363330122663957 7.3958458175699295 2.2766014203659544 -0.6593599199324 0.29550151431227817 1.695679301643254
Ni 7.827763942599466 4.158155463876589 3.6452494997889078 0.6186912385684442 -1.0656386995002614 -0.08568792638712339
Ni 7.726183873642013 4.329309174248679 12.516058338557741 1.2030394808806442 -2.245099107509385 1.3727770267205197
Ni 8.084535530351829 7.101269998823528 9.075812240611155 -0.3533515925515269 0.505273193255904 0.4941837682109617
Ni 7.192047556633662 0.6609851460073692 0.14555221475509927 -0.7559572941431756 0.6262484820904118 0.041282660798870836
Ni 1.8814783803523885 6.91498365680203 9.067393574750776 0.31786805493293646 -2.1823567341748413 0.7381048393427869
Ni 0.3228665470962668 5.014954128614371 1.2301726489747442 0.20432453978612553 -0.5791199040337253 0.047620944312072824
Ni 6.460931778974442 2.3368885486111597 7.023720731246201 0.22888885938905096 -0.14070670582516412 -0.16381835214196303
Ni 3.7597023332958375 4.105510314614336 0.14557044684142384 -1.5505397568577168 1.5301527085609326 0.8250801170827662
Ni 6.1192442491653 5.588936670285113 4.600608088384474 -0.43040112653736196 1.5901789685158936 0.34350606721601484
Ni 5.381820169637772 2.976488368964101 9.464352585857227 -1.3389917027399585 0.9434310809205494 -1.3727759982792551
P 0.4903592545343776 5.560412571230293 12.11057400388591 0.36070803291659814 0.8357501952021026 1.4329400693636611
P 4.196032623215926 6.149308959514549 12.523290095598389 0.3155692315964307 0.445535153965323 0.5141314149774822
P 2.5763761185278113 8.789287711185693 1.1723687308869477 0.052367714968438846 -0.06250788872623428 -0.46464564954252874
P 6.565146384405798 8.007924303615901 5.79726104665146 -0.9642914693093264 -2.2252954425198967 0.5160923953585951
P 4.805768286169188 1.296137248901427 12.359166677713063 1.2505398404544528 -0.4449371153700079 1.736347211676261
P 3.8562959266435155 6.346543669373964 8.193236140623352 1.4185884286276795 0.1784913807731055 0.043839108672137396
P 5.109688049156941 0.9027116161246808 3.696404175994126 0.19400978812367878 1.6825854445737731 0.6990351270348348
P -0.002904371351507185 5.921216443550766 3.6869307839398693 2.255353695357858 -0.01823349228889118 0.5803607184193618
Ni 1.1599435640567397 9.247952306853403 4.136177595416613 -0.7142252045117119 -0.9115779409656946 0.25520358602417986
Ni 1.9612984542814436 6.592230148640976 4.82199575460239 -1.0997893772400416 -0.26365891588038465 -1.7883683419385588
Ni 5.945747715700501 5.5849894235958395 9.143391291781878 -0.9041014300829913 1.3069359598559942 0.0572011318013402
Ni 8.41855646786148 2.2321543287195524 10.080510501218326 2.248932622322862 0.981914324597412 -1.01429325514875
Ni 2.4531545631030696 5.394309148770115 6.855915343527624 -0.6673509085576765 0.03916021513922933 0.374494030957097
Ni 0.16734411593456547 0.028567856062000054 9.173504317159887 0.9002002952563721 0.6013720305637064 -0.16672781247927412
Ni 1.5159068174580346 1.2434920996391734 11.336123291846086 0.2413646232585585 -0.09035782105896696 -1.0348078301623338
Ni 4.59191502962491 7.100568063500032 1.6141057460065926 0.1399765125273589 1.0723829602026305 -0.7299755253674332
Ni 5.684336061978531 7.891539780562882 8.090901263292059 0.31645703351802273 0.02047112337015829 0.3344850946643272
Ni 5.522289278725575 3.1444879284020355 4.463116278993477 0.13746120230467296 -0.5869334865408731 1.3192805974642763
Ni 0.8183171117367861 7.574392638946639 7.185829503592661 0.03079615944525019 0.9843316757896531 -1.7663656124152225
Ni 5.00398752869013 4.686147567793554 7.053754447048699 0.12680552236303969 0.05145291646365332 -0.4338875424240657
Ni 0.989555601310284 7.781390631032872 11.248051375646524 -0.9554417322281805 -1.1711140929269572 1.2739517916204897
Ni 4.49507530311185 0.2581617843346131 10.421458719927006 0.12492758861403647 1.817131015893548 -1.2420048064002482
Ni 8.550000694218612 7.492184161709063 5.079862179138544 0.32264413616534116 -0.04761811609859541 -0.6038639437476244
Ni 7.105244593642289 6.262311430554358 7.024428136195596 0.866754614003417 -0.6731248349269763 -0.7838591627597662
Ni 2.785716933706754 5.788815032661593 2.1100631626469357 -0.1259999957426088 -2.181807803649907 0.5816604110673919
Ni 2.69295207848724 5.182652858627951 11.314348711148629 -0.9975209207864176 0.5258733860047589 0.4912359984365476
Ni 1.6881271048801119 4.030539975647622 3.415775903286037 -0.9700353137716391 0.0832759745115211 1.3056650635633706
Ni 1.462669125390232 1.3883460254880406 2.103952678915249 0.6225952016085406 0.33866493707362966 0.7048766734172763
Ni 1.3565128027653066 3.4285256012528227 7.733329028272619 -1.6707966794689613 -0.15606879010353122 1.5190859092238098
Ni 3.5611093330052412 2.764376276663821 7.005495026151825 1.1695544617493214 0.21135933514571986 0.14135950891781462
Ni 3.957821299341995 7.149913205137534 5.969670036166997 2.6125120632499845 -1.41100341719157 -0.35415043430373844
Ni 0.5619274861929231 -0.12596092639501108 13.555326458044968 0.6767529185978668 1.371705905143528 -0.7902784360225487
P 0.2491013490356081 5.6939261393852645 7.966217494544087 0.435851608128972 -0.4556100217028218 -1.0600360086015035
P 8.631908342031831 1.7402617557252766 7.799132274235331 0.09685165631342675 0.7547661020485518 0.4711425701207821
P 1.8151044700877188 3.525137426686825 10.212158926942294 -0.0136525577864281 -2.1215344606811466 -0.2565343890204614
P 4.078973512968895 6.639223351142607 3.6606601707547672 0.0812255197403956 -1.0938686408802323 0.6011408883895067
P 6.975887941169324 4.229196788240355 10.263846891672506 1.554073481042588 -0.9759833038249578 1.5184536749564492
P 6.332368222256595 7.954960092842968 10.396028605921467 -0.3752527634999925 -0.6797734505917454 -1.0004964584749738
P 2.4790076615113383 8.509406954016912 5.597861276541001 -0.8781222324104102 2.1674206816902997 1.6056624088634732
P 7.367950725493306 4.16840189639101 1.435479615054371 -0.1696850953353852 -0.44073464725288614 -0.9466770986616729
Ni 5.709341368372706 3.054011200016258 0.4190599461491198 1.1078294739356984 -1.6025647437747563 0.6216474929832907
Ni 1.325591184358802 1.2030077519554212 6.559303912343083 -0.5418268240102216 -0.5360081604459156 0.5247421006137931
Ni 6.653316753871515 0.8190099310171205 9.173477880634717 1.3455081637022377 -0.7234955740700444 0.31624003241121024
Ni 2.709488580783643 1.5556345335593162 8.938187336989987 -0.21687486564731034 0.30309603883008446 0.8252814344602949
Ni 6.5547449791576184 2.1512767937836714 2.5478091740701276 0.776624849794856 -0.44771262123261607 0.3117385449964309
Ni 4.170453006102526 7.121899604499802 10.356148651899375 -0.10252119589437828 -1.4468127135806954 0.11063199792697076
Ni 8.335646055300407 7.130131391475354 0.2180138186435497 0.637290084616554 -0.34912187074089546 -0.3146248654052904
Ni 7.986027567940069 3.975433494731549 8.339974352593865 -0.6555937680217484 -0.42627656284602716 -1.87255217297633
Ni 3.1658468175312926 8.735986206815754 12.40479703176193 -1.7081805194340582 -0.42634701107264644 0.12295066739332372
Ni 9.272383302528354 5.024963544006572 10.025259986820288 0.6316740239813573 -0.43886725502684415 0.6002430591655856
Ni 8.424645984693893 2.7347947166021735 5.402730549443444 0.28304940459185446 -1.7430999570190626 0.6615885521526025
Ni 3.6724526841895124 2.6748749648964085 11.313520974429492 -1.0036311474492134 0.832130081951012 -1.3207808361588866
Ni 1.1791510669996952 3.2073886262218707 12.627586745418204 -0.10001462742244066 1.625794403726658 0.0934418593009294
Ni 3.4069935073034823 8.500837873444354 7.821640696407352 -1.1554095377075067 1.1359704551462888 0.6349154137367904
Ni 5.922583850025111 7.902469916314473 3.6921077848517365 -0.2971123104428238 0.27077315832766274 -0.6169233480347439
Ni 3.3326795234444537 8.883711686260744 3.1989380542104233 0.10294774190883559 -0.7837738021348114 0.1994913800635403
Ni 3.4188808275871145 4.3920913635074035 9.022390404471473 0.25750935133922104 -0.08085682354706719 0.18813044652476632
Ni 7.573180205206054 6.2041054949631045 11.37899148481678 -0.9072862555688761 1.897170999966275 -1.4290165659395389
Ni 8.39594868081899 8.824484753835314 2.349383908973717 -0.8842370870588966 0.28368652395522115 0.319608691773127
Ni 5.018472921275018 0.5464539145292436 1.4191883343190335 -0.44316896772599157 -0.2990936025389107 -0.6175573820743171
Ni 6.177030846771088 6.043179985019111 0.2129772047963817 -0.2043787900628287 -1.0235242868287147 -0.46436437085668414
Ni 7.942981612127712 8.888734626043169 11.410800094222976 0.5210574526733542 -0.04071778943433632 -0.379204806169205
Ni 0.2169964682266376 4.8459426883854215 5.805520181756499 -0.29012662315361004 1.2976871875642169 -0.08339835902199831
Ni 7.4722838394857725 6.1378683253458695 2.4419254211357546 -0.3483088879212969 2.186984719865156 -0.7659447443731905
P 8.791949595789083 1.5058791699795102 3.5249159068379816 -0.9391712772029308 1.6480239045488196 -0.40333255245534405
P 2.0110447018180873 3.4710884067775782 1.3982013797507977 0.4642684687087682 -0.03165465079080355 -0.3927655755727752
P 4.866098259817257 1.3070582686098564 8.238959478312474 -1.7994636805207718 -1.0437367572208476 -1.4244220045903209
P 8.746405844150257 1.7277363124202834 12.227559274183326 -1.1434724199502888 -0.4960064232419974 0.9993494893547241
P 6.646406793154496 7.9933477505993915 1.258075945490213 -0.8454399116860408 -0.26355941418804285 0.3591964813680782
P 1.9651910047117433 3.4575419666384075 5.671777800918154 0.4944951288037936 -0.5434180797567415 -1.3161194261274753
P 6.935786467298388 4.283893047214124 6.037541712323232 0.19467159007739376 -0.9257259503313023 -0.019657369219611306
P 2.2822469858963634 8.733780124370478 9.947821934969541 1.2111826788130688 1.8279070234631294 0.13089537616169714
