# total energy = -340863.1504638782 ev
CRYSTAL
PRIMVEC
9.31098787472808 0.00000000000000 0.00000000000000
0.00000000000000 9.31098787472808 0.00000000000000
0.00000000000000 0.00000000000000 13.62757192374390
PRIMCOORD
 96 1
Ni 4.480493890282674 1.445670522697685 9.341346288197217 0.35650556479947637 3.3002680178265744 0.8352557720641873
Ni 2.552821461498679 5.75553125032968 3.8727787511479943 -0.3233843567654753 -0.45588075886570517 -2.959477292659193
Ni 7.979423445378476 8.049125500142363 13.020204165076851 -0.6803802309378089 -1.144236808920139 1.7405432520354798
Ni 1.7098511798998968 1.5574209984225271 9.561690814778485 -0.4264454843237237 -0.08882801467800186 -1.0249479066491185
Ni 8.00383685542268 6.222765929745469 9.096063211859121 -0.7796595228561217 -0.6880827417883892 1.4826549200902852
Ni 6.757300429069537 6.5424680072732295 5.4663049670108 -0.9067488950081675 0.44315508376892065 -1.2742513251387797
Ni 4.030912843759262 7.073985746546069 10.41837431922742 1.2648935380729636 -1.9747131573178118 0.2832566355066541
Ni 8.328250292783531 0.3536871830431473 7.07986470425084 -0.16664965094317105 0.8291103212880817 0.7441883265327054
Ni -0.05742086183928524 2.76499094078063 6.299304111761246 0.8825517289366736 0.3976223894444442 1.4296020061293637
Ni 4.273240612565689 4.6446466054158995 8.696884404561981 -0.10052164896584621 -0.018835644649264335 -0.19574065477185643
Ni 5.357980003702153 6.661834871028644 8.2392847353345 0.8304274974376085 0.1273554813292387 0.8543914644523738
Ni 2.0767878986001387 6.259609508519274 1.7092655187664945 0.2371842666286238 0.33062972547397895 -1.4940428502122527
Ni 6.247905596839043 8.449302445332997 6.803006206043217 0.840037766833863 0.712703882771179 -1.2501266641764341
Ni 1.865288810440683 3.424963067913819 7.655765129129213 0.9928091171330451 -1.2386585156358345 0.2684835909625376
Ni 0.6364423298323851 -0.32585012278031106 0.050311922644491296 -1.3147089189331937 0.7216124981147185 2.2962617464261292
Ni 4.61780302755265 0.8331294985798199 12.389152897187865 0.06193119028715785 -0.5714719005701642 -1.5995982049472643
Ni 1.4168343934425744 4.131667042877618 10.797070815534768 0.7600196371380071 -1.0201741394095591 0.06735596084715496
Ni 6.561536910313096 8.833166539876245 1.5909368301521674 1.1050503685286646 -1.5649646740337952 0.9564938276417787
Ni 1.0484824045948424 6.6650844057751835 13.005814033412733 -1.8459901062170854 -1.8900359315833903 1.4530386398857493
Ni 5.9220210234038255 8.874805277373452 4.270567427964739 -0.39846519706071376 -0.6326273890335621 0.2539535156671626
Ni 5.618222113059704 2.3084545863613286 4.805709003694178 -1.3831182607455277 -0.6246186597964727 1.1034981935501962
Ni 0.3770642801438272 1.3437617610905865 3.043213498702775 -1.3695649475411251 -0.2961931410626641 0.11878188072761478
Ni 8.533362043303658 6.939646814388261 6.96041869709902 0.5662235076870313 0.8195992964738529 -0.42411400797706955
Ni 0.2336629635481756 8.249935574293144 8.85546914898337 0.8797998772231495 0.39441313847852716 0.6179533319611551
P 8.415419760683546 4.833231352568954 7.4269587768240015 -1.2596484876239402 -2.0027767483232477 -0.49272852382167404
P 5.365810544452411 -0.4002048781540714 10.337712300709518 0.42565718409447334 0.9097216044832461 0.5101194656046117
P 4.340037639132096 0.9943017665142845 3.573912802146901 0.3345416589338755 -1.4248233537937978 0.2152116190122745
P 8.500298725581702 5.516676479977291 13.623292674367534 -0.06171058963591953 -0.5504276783053553 -0.8621204576655154
P 2.3911640910991867 1.1644973127377798 13.429249826158829 1.6849428890623563 -1.4124072395176321 -0.07240843566939786
P 0.9631844452451275 0.9702887289460151 7.654456935341565 0.047356892017408767 0.5722301188924274 0.34024590840750435
P 3.2573280433387435 3.2493019718444245 9.925628464304342 -0.10338714343909937 0.6032684762554708 -0.9348659649593577
P 3.3553634340158696 6.66407881909144 12.608529081036641 -0.11723896172052711 -1.1999153334293657 -0.06990700940378283
Ni 2.669581248666611 8.217384360900871 0.24743484562154788 1.8364029767492824 0.0875784585416169 0.6104909621458389
Ni 8.636956093704807 7.097542545711528 1.4910876590491793 0.2722695403675311 -0.4000636518960852 -0.5252948877934696
Ni 7.657989524117602 2.8808568731185686 12.79353747777094 0.09019481311854144 0.9290771261917224 1.3638594125159156
Ni 3.204506809478801 9.157179604761163 10.400167613658986 0.15972464168856362 1.945672290000772 -1.0318469477617973
Ni 4.636611222933769 8.868129299111937 8.234773561739376 -0.13071719871262003 -0.6964375415109877 0.387630568339055
Ni 6.441872094947685 3.0897488846905423 7.147865641541395 2.078041679604834 3.9070401363599294 -0.882848434241486
Ni 8.611518475001235 4.997700641287802 11.335727289163401 -0.324693305384886 -0.19300217279477083 0.34725062186011163
Ni 3.739432370290991 0.6801704529947039 6.1105350070495055 -0.5998987884522894 -1.442395044128974 -1.6701233075510205
Ni -0.1212113704410571 3.1796092280683506 9.137982210089485 -0.27837796725811415 0.3685532399926298 -1.848198426722314
Ni 7.407486708011858 0.6500224055568213 11.913195684389388 -1.134211306363337 0.6246777951691822 -1.2980504844409064
Ni 1.0954842710720132 0.6639572299169112 5.491093609863845 -0.8905871976466405 0.6376891198271856 0.896050791864373
Ni 5.257654110023168 4.941965068242567 3.9336120900205374 0.17935527143529756 0.4166153856071793 0.10788168887534323
Ni 6.832589076520885 3.567244272675635 9.598130296681228 0.7876906206907144 2.1160338425778913 -0.34115530759565116
Ni 0.32398047642757416 4.862607519117186 1.8351705581638003 -0.2389393016465175 0.6716197111363593 -0.5345539444978923
Ni 5.452179267400555 3.3332963929003987 11.285960059305937 0.4209052712317848 -2.9012713737424227 0.612236741192352
Ni 6.908427072253166 1.320689133291373 3.019229325196724 -0.4576548200469924 0.7807998071081521 -2.4402916030872555
Ni 4.224367237538219 0.5233371053808338 1.1856667746281313 -0.657728554976564 -0.3903909046930115 1.0072941981230974
Ni 2.4240598110405185 8.587859254969839 7.766939254708465 -0.08566221535551054 0.1581675816140889 0.1232247469903168
Ni 6.897831168122615 1.4953260207013996 8.756982175397342 0.30883654085828743 -0.8857923473611582 0.6770118286862082
Ni 8.139376905008293 3.2741343763401884 1.8688986804155638 -1.6616453519869965 -1.0963651820498408 -0.011048287394361617
Ni 1.1195252416037198 6.354125345803299 10.316562391893571 -0.5660959809702315 0.2514114659715993 -0.15118549386930089
Ni 2.3598512390859683 1.6679982896830023 2.0071230877875017 -0.30771528276965066 0.7607796552324834 -0.3598572548805286
Ni 0.5702784504372237 6.766844191577284 3.889718231275157 -1.2363812895658834 0.015046095699845056 -0.5236997753922077
Ni 5.302263052632544 5.891899977830599 1.0698678814024427 -0.27244874625787274 0.10596107481386267 0.2893378087037275
P 5.445987460505286 5.23445112839458 6.677877703029468 -0.4595281258103054 -1.224765045483194 -0.9701363581258776
P 8.352123665534615 1.201378135462834 1.0367738374207058 -1.7679661241331228 -0.7907990844127091 0.38841089814850527
P 6.950410316299434 3.490791751747733 3.7298802278942143 0.8626202801200692 0.7728185886748884 -0.625813194325206
P 2.296238570351414 3.955205201856355 1.8567161839617743 0.45106816796841026 -0.21482903886187518 -0.1061384809319914
P 3.496853204813628 7.7634178391178015 5.568075925998275 1.282136127203495 0.48855819449406823 -0.42061165125076594
P 5.819926042040478 3.6736316194205147 0.588892046173062 0.9847037144170913 1.7488294033036722 -0.2605486523861771
P 5.4303822449316455 8.476918835184678 13.550807565346508 -0.016851010119067752 -0.8214530618531403 -1.4899787074452082
P 1.0397300760511539 8.296434647428443 2.2199583026980423 1.0307732550816442 -0.03946051998846752 0.6434255080903305
Ni 8.056080808038251 4.62212332589762 5.234650383533766 -0.1355963811817923 -0.49737450723411764 0.4518528686532347
Ni 1.507858610296937 7.564469962529508 5.86177707005981 -1.63977014918046 -0.4364648162329386 -0.14666883694587
Ni 7.973250260458832 1.6150001470546238 4.888959476823938 0.5556089653959786 -0.6711736247378763 0.854315874019432
Ni 0.8912980327404436 5.354199742650304 8.275997029180148 1.3124936564494298 1.1975568604995184 0.6289139447377169
Ni 7.678036080877775 5.7155126247118355 3.14907291243869 -1.0274791577114046 -0.2982505378123251 -0.09702777687997483
Ni 3.6745440962261333 7.717570535129373 2.360935969166117 1.3269023756755922 0.11134059395822116 1.3177181380731626
Ni 6.480466139430226 5.208119654861014 12.496224601536959 0.09557587492479669 -0.17285500842293458 1.241256615380314
Ni 3.936825311914608 4.746601921962061 11.692565310482276 -2.0596798892681947 1.9734854555582984 0.46395505123340736
Ni 3.384609246734727 5.449926008349946 5.669151354196161 2.3156830883755344 -0.7568412394100256 4.223648607854152
Ni 3.9182778241922382 3.0307917098622053 0.04354283450485122 -1.443068930267547 -0.14204856456503923 -0.1479937264048806
Ni 0.7228771607939984 2.247821433726753 0.31989760827182145 -1.0528166080349286 0.8397618874646571 0.1958041610199402
Ni 1.9639666592768668 7.930820088997566 11.563920978470552 -0.5626712715593987 2.076052931309579 -0.28419585949147186
Ni 8.341602249306565 8.508501705844457 3.2629313958042667 -0.695838474474408 0.8503522613859936 0.891444146330297
Ni 6.836294849670234 7.461388016458042 11.160531742484629 -1.5773903013916575 -0.8245520124934381 -0.739904611555687
Ni 0.7682365690210557 3.6788550835832905 3.899924936115148 -0.3249036216234792 -0.41629888280802496 -1.0292802154758853
Ni 2.7479704550594994 2.0423744876453798 11.515080191900426 0.15118755075182996 0.32543326887470403 1.9561479927211147
Ni 0.48689110578662037 0.8379172085129738 11.831485248643803 0.6107357311667932 0.7123950932815086 -2.2504421169888533
Ni 4.279302065631584 2.7588922437634853 2.584209732513178 1.238179262006571 2.58724968913877 -0.8630110878005846
Ni 1.465800878348169 4.324404490595018 13.275313126853407 0.6626769001207748 0.49469181819563185 -0.13323867958289312
Ni 6.048361817030754 1.553091389089745 0.4579311403936045 2.3230336152033346 1.105758450339283 0.1496610868049745
Ni 7.271220401376874 8.566453293989051 9.047822052904117 -1.0346175685283987 -0.5460588598136983 -0.006876158294542995
Ni 1.0154749527997613 5.094516292561499 5.901665341848282 -0.04261474934673306 0.224306125114375 -0.15302074730582677
Ni 2.4342553426951343 9.442552070224476 3.8030189682596705 0.20269805992629608 -1.9462397324684675 -0.4413565971076012
Ni 3.9677564134275167 2.9703261550082543 6.579609537657032 0.5094512358929936 1.9132234254434466 -0.07821630060042659
P 5.862058261891746 5.618957681096887 10.443421807541652 0.08236837509558717 -1.1270021902094076 -1.0856153997325044
P 2.2859871727699232 3.3086874521121334 5.276554484183629 -0.10415230373989803 0.42949147023889905 1.6316673175676675
P 5.732244469810781 7.046816284109384 2.9437740110635335 0.5852036483339599 -0.681382189839762 0.4448412132220919
P 2.806229305801904 6.630745482722924 8.68380246668551 -0.6467052072828668 -0.3937688200263089 -0.05985476737410337
P 8.87517771688595 8.100857348428251 11.08202335544774 1.7467151851741467 0.34358500008306636 -0.9632913101795861
P 8.353874131243352 8.440084567398685 5.3999530056618275 -0.14477959034295712 -0.44989574492686385 -1.0355665627052295
P 8.634106931434202 2.5471324479452817 10.997913478142893 -0.22191705605690812 -0.16729474072633768 -0.042205686833772474
P 5.398045184259059 1.4284451952446806 7.173962478182087 -0.6944433938990944 -2.709102752592541 0.22685434545752545
