# total energy = -340897.9265362665 ev
CRYSTAL
PRIMVEC
9.01236076146411 0.00000000000000 0.00000000000000
0.00000000000000 9.01236076146411 0.00000000000000
0.00000000000000 0.00000000000000 13.19050095779309
PRIMCOORD
 96 1
Ni 6.429183975127023 2.0121988400342397 11.397516513138264 0.26138554646517564 -0.6703580708151164 1.0193107629679994
Ni 4.626901046169805 0.39297318407265147 6.0234952510003374 -0.45143146484509994 -0.07441903834152344 -0.2986200053366019
Ni 2.7001393878722193 1.6575984863833526 4.741760882676043 -0.02981605492016801 -1.0529014544392512 -0.0732378735492287
Ni 3.5044385278412067 4.086628032377719 4.7633797341053565 -0.21516173961094556 0.6867709649555012 0.1567730152594074
Ni 5.05933214892172 4.507135781602463 2.790476590253412 0.23189345054332966 -1.030735459865173 -1.0400009443274993
Ni 7.062888134811924 6.077647824196649 2.7562611619345083 0.5296189690901201 -0.7390111532071402 -1.7494930050296
Ni 5.186145079746241 4.472357080724641 11.323834153779153 -0.8969339658002747 0.15267493393063383 1.280068188930873
Ni 5.357064505024264 7.855858737075956 12.309124933615708 0.5131906483307678 0.7504070537489077 0.38557959934729724
Ni 2.1338026262338894 6.314429583243814 0.35748340791645195 -0.927080664586984 -0.18105014263921723 -1.3267802482754312
Ni 2.696777777240598 1.5548936210805133 0.37425270792250603 0.09654440948565308 0.13115428625003864 0.33113160481106196
Ni 0.3212798527735917 0.12612078150412348 4.990599378192332 0.249825352431402 0.19572214282909517 -0.455374508653248
Ni 8.508957497509515 2.4078144483352864 1.3855432478426124 0.36475546351309435 -0.31755977966389826 -0.08097355163058957
Ni 6.825926128545905 0.7165764234972675 4.876409160104135 0.2950340877575564 -0.3559229528231289 -0.31188509787662416
Ni 0.9331759014493834 7.155165698504077 2.183555364817982 -1.0360517298717642 0.05424256339364852 1.3153540087163602
Ni 7.474149201709473 3.9743069779490354 3.8830721444179517 0.8269102283129693 -0.6339885310471468 -0.18654947519089163
Ni 7.486406012591525 4.04343178637943 12.578738723577075 0.3983070742162947 -0.7801904556589273 0.3257952801998131
Ni 7.896846954643288 8.756788411072412 7.1208258996041645 -0.39194230834053145 0.6173563218071045 -0.649260626714869
Ni 6.876873004954905 0.7115249951888926 0.5157819229303382 -0.357158625002443 -0.5632654534999719 -0.7697749167525582
Ni 1.8593041366415872 6.492387662418074 9.247412328431245 0.7506592789690297 0.2445684749078369 -1.0593608369113496
Ni 0.144502392882824 4.689987572768601 1.2672902574414528 -0.5467152624507745 1.5007264328800154 0.6067417795160519
Ni 6.400452568441743 2.1280166905086855 7.033518652971902 0.022324374528813164 -0.5369124174277398 0.37284441116881595
Ni 3.479447250947141 4.088042973045721 0.27468144051943855 -0.2307076577653446 0.386672832411476 0.19876967140616733
Ni 5.809106505187462 5.650597100927516 4.823436304955221 0.014987217437451605 0.2729861068185815 0.688641956725969
Ni 5.2758901700135 2.7310427735446865 9.462839298224718 0.19125845063078675 -0.018768281746438645 -1.196039138303411
P 0.22221958623597446 5.50201931842641 12.329438795180518 1.246419390528176 0.2880892810086071 0.8096696960649669
P 4.094153353764862 6.063119898357041 12.533165917998197 -1.6066242585561104 -0.3351145007182099 -0.2343048881982997
P 2.3697732727962126 8.529776051287119 1.407650569235019 0.2916019221475559 0.4602830016984589 -0.9963610961503615
P 6.156551044249857 7.754361528139437 5.721208047677361 0.6838910723045447 -0.4497972716757866 0.9363677463158647
P 4.663112712437513 1.0517695590941765 12.46925746408143 -0.15837147009477887 -0.5659023769021867 -0.04696839832973847
P 4.011591115168923 6.22973141510446 8.191182551906534 -0.6926863019986715 -0.5073748129799391 -0.7088415716022954
P 4.625522154945574 0.993171188244838 3.7610339624208646 0.2586367800754449 0.05179281630157532 0.1151414557615501
P 0.06503229532632124 5.674750228253913 3.566764411176439 0.8614918229425808 -0.9764743845287636 -0.2145145929452499
Ni 1.226582324299439 1.00361651457741 2.7320827999974724 0.9752561958509461 0.41810174034471864 -0.68982800661427
Ni 1.9509508350677518 6.268718888542516 4.705526685505978 -0.6333660669717995 0.3813043690107111 -0.24200354239413804
Ni 5.9684720837369625 5.512978349332715 9.163546902442995 0.45695676553870335 0.7794754318697736 0.021898085624671965
Ni 8.642232291129943 2.3865452765105495 10.293933088512402 0.05683192138737954 0.3347828284104041 -0.6531566193351653
Ni 2.3480805200071697 5.200501770727939 6.964267671488311 0.02404649942624246 -0.09287004595785942 0.38101666256696315
Ni 0.46937186901988714 9.214418075020076 8.999232636499867 0.6933139082803415 -0.20879363130107265 0.8229376168184667
Ni 1.4136338756648676 1.005220714825208 11.357535877524324 -0.09848122149704974 0.44883439354188515 -0.25480197971038704
Ni 4.092161621996528 6.886426107554151 1.6001924508867316 0.5717889175899507 -0.09799348322735381 0.050580541161029016
Ni 5.665620706618974 7.790176650525668 7.892997775284667 -0.41972590621170297 0.4913313863638312 0.5801627434759428
Ni 5.531282454407309 2.7910921345057975 4.8231461069328665 -0.9465300315608473 0.1632100291340028 0.14051541574996446
Ni 0.849799846660321 7.383881394507538 6.8073669736566345 -0.21535405812740976 0.1586388648235526 0.18960471707744767
Ni 5.026355920232436 4.586192211791697 7.035075087706704 -0.30742269122989635 0.7476269199006091 0.30252062594258866
Ni 8.212468847217062 7.194351443882872 9.087490687211583 -0.41322667164060445 0.11680650216879883 0.7240609596552111
Ni 4.568645145036289 0.3499265432660105 10.275347797776398 0.030199406401515735 -0.9277342390105829 0.8177406459985594
Ni 8.03695311785827 7.148343341270464 4.702585050894284 0.17689549704089533 0.8600239801478027 0.7421509843877026
Ni 7.310908307954618 6.189635421270454 7.034626272131758 -0.3332519935881744 -0.5980277966818216 -0.7851300590523898
Ni 2.3566152258198927 5.177159755886385 2.490485736498631 0.20368073555453955 -0.6409035129994253 -0.31369541161248554
Ni 2.3840218154465975 5.11109013781556 11.271243422734209 -0.31607779580173306 0.29703543445830133 0.9308187914731776
Ni 1.0872872735692982 3.600230912301006 3.814561077767754 -0.49002012375157544 -0.599174251581439 -0.14775409959024877
Ni 3.5955625093326953 2.5968036573033926 2.5507919497466083 -0.1699504331816299 -0.0724148634273011 -0.07561305864962461
Ni 1.1124137358775044 3.3840153609250483 8.208422297153797 0.18700764577423276 0.05094640914088001 -0.27281821378214943
Ni 3.8003503870333284 2.6871976375585236 6.937122440328943 -0.5926886438570954 -0.9154399950242622 0.383377706599972
Ni 3.894151039724794 6.8709158343717895 5.966354178915432 0.8823606959717901 0.6626180218583815 0.08346366504229498
Ni 0.7423031090442562 7.321732153446782 11.190636866462834 -0.06923312326520979 0.6124298310397647 0.7493397888266579
P 0.26101059020547956 5.62784990190818 7.947830781732152 0.2787440923482812 -0.6164824038425835 0.2020709678652584
P 8.477242999352207 1.8364938510956514 7.892549860945815 -0.07419818057996899 -1.4075396270126856 0.5679620876446928
P 1.7120061093943424 3.2411333905397193 10.339612239950402 0.37555178279765 -0.22710965600144112 -0.5227397254717836
P 3.9394291411008444 6.041057638769348 3.683684473394176 -0.28260357530368746 1.2899368541948366 0.9293985140868833
P 6.9413654598607595 3.9169703376316733 10.363143514371751 1.0825185059747355 0.19822871130103278 -0.4398201058584168
P 6.234273645019573 7.6380479978131435 10.136438476094604 0.6136045680741561 0.36960173586180217 0.2603550483181323
P 2.323963442124544 8.500017235454372 5.663315344689834 0.5970518059217975 0.051128186134382914 -0.15573017581718984
P 6.8270797107465695 3.9625548592797744 1.6405813464513745 0.37872735231215415 0.31043088192860085 -0.6695569150700598
Ni 5.316193448149187 2.61532405904061 0.5303161574226064 -0.010538437637478625 0.9785145548872439 0.17615553355107727
Ni 1.530298888067926 1.0890356715921792 6.980004154930333 -0.08672408096112161 0.8098244764752763 -0.13822559127452322
Ni 6.893978466024121 0.698681479609472 9.304302856881945 -0.020911039121054308 -0.2948579671910083 -0.5964339698321406
Ni 2.832332698179524 1.6690261600586773 9.185350507271632 -0.7223136379468011 -0.4380840970039165 -0.6959153504589305
Ni 6.342953705627413 1.9695253109706259 2.674017960915941 0.17606168828569033 -0.09638705797218239 -0.22773777650374327
Ni 4.115900180719561 6.720364344824235 10.357919949969371 0.20652848941597982 1.0358871792694417 0.24884344813410694
Ni 8.242957664286166 6.990681098939131 0.5204061653300299 -0.29784944571916444 -0.025862469589058683 -0.5695356027793997
Ni 7.699566373607912 3.9040285873179776 8.239209423370102 -0.15827711060875968 0.29926072424439426 -0.24625383303005974
Ni 2.9243489034043386 8.430504895503441 12.4619502418291 0.6317223607207894 -0.5345927681556277 -0.5565942121273834
Ni 0.11211827630747369 4.929175632187461 10.148706101809786 -0.40101958805145127 -0.547835749208463 -0.2855516021884179
Ni 8.626911277527379 2.510609437247552 5.733950624814223 0.17589482369052287 -0.2650326562994597 0.028120412385299956
Ni 3.5417046403392094 2.668145506525687 11.257459917908466 0.5665914325494114 -0.22996383762078457 1.3857785811865102
Ni 1.0332401449960158 3.2528404474042674 12.488489842333118 -0.3535598519075911 0.30995728472629197 0.06507513523277826
Ni 3.207481234779733 8.41156992516286 7.977588696328804 -0.4131760209083271 -0.3009730789498107 0.20220723633280657
Ni 5.7248499427342985 7.845755880459206 3.5721456918953165 -1.416631819121941 0.7977199799022584 -0.21950664684320262
Ni 2.9554505610175448 8.226041462796745 3.4364817213889842 0.7424168364545795 0.21857847860197838 1.340390639970014
Ni 3.6457974092272214 4.341993279688701 9.318877646998455 -1.1958712452669793 0.3069058994944779 -0.8933519048759713
Ni 7.380087190550668 6.20438865613363 11.404811118085272 -0.9299423024054951 -0.2851227421811154 -0.4129924441426113
Ni 0.43723198742608366 9.085721560758532 0.36497808727638886 0.583602108174795 -0.2899798131631006 0.14808062969173208
Ni 4.686220405894558 0.2326288631247757 1.6583753518966122 -0.38695488242826903 0.5892374520837013 -0.49594497387644265
Ni 5.9423993235297745 5.734457119499202 0.3130209252057151 0.6052533678959834 -0.8241563197169162 0.7528717132393162
Ni 7.660741122666824 8.651244652072627 11.59521526772138 0.469922581670752 0.35902550300785263 -0.4050503064773992
Ni 0.06672481671135749 4.954329131578496 5.750491010852333 -0.05557208083834945 -0.2860226282875655 0.37467709350218054
Ni 7.989566124021632 8.698938066181318 2.4707522709785277 -0.03714935535678763 -0.06935653621695152 0.7532998019156704
P 8.383199012915288 1.6455219227201545 3.5192656640641116 -0.4773548695790811 0.2858333950948948 1.282874033810784
P 1.7244341551343052 3.238934374469704 1.5035853489977131 0.6120811894510944 -0.7222892124667689 0.3341775907262374
P 4.820062978254374 0.9962534156872364 8.189995623970383 0.09733528081806463 0.44231947524150267 -0.72992924551053
P 8.489076229269953 1.6241716396469335 12.380974178759075 -0.8363783157044048 -0.21494936648982335 0.12968798611715732
P 6.309896365689644 7.655144446521416 1.352316475519121 0.03432911229917313 0.5781261726618883 -0.11434184267839018
P 1.855843390039596 3.250073652594863 6.013180603901434 -0.5256584417804754 -0.04922197025060555 -0.3356922275985509
P 6.8360019480798275 4.0987947196503445 6.099102650656806 1.2731375232493107 0.23602109955845804 -0.7244070301407203
P 2.4407996893855137 8.493753644599206 10.172356339395579 -0.6194543419867139 -0.11423385634561617 -0.3759503037876493
