# total energy = -340892.11329295574 ev
CRYSTAL
PRIMVEC
9.06156529610743 0.00000000000000 0.00000000000000

0.00000000000000 9.06156529610743 0.00000000000000

0.00000000000000 0.00000000000000 13.26251676791092

PRIMCOORD
 96 1
Ni 6.052246733422585 2.0455034101095726 11.368550275278468 1.6593053909999098 -0.49892668221258596 0.2867906168018416
Ni 4.7406213841188904 0.43639592940127275 5.998093006117452 -0.5023246521505413 -0.2880064914868137 -0.5977066658969771
Ni 2.8234297404563375 1.6589370289916443 4.785620211873074 -0.27766808567528306 -0.2270358653407122 0.2028096458034959
Ni 3.646346743148403 4.2339983226579845 4.969518339119245 -0.7879891257677396 0.44352455129319746 -0.4267596731300328
Ni 5.028670425913938 4.546133005358128 2.844557686406046 0.4442192633673769 0.13426120731013652 -0.11361807713848819
Ni 7.257009041645086 6.365260387969153 2.558710605009772 0.04943177226856649 -1.3371438508979425 -0.40740723674534995
Ni 5.286961286846553 4.629852808338638 11.61720869216213 -0.8209360130074055 -0.6956754665339825 -1.1079014648242145
Ni 5.729247233775409 8.090654937802778 12.34591803604842 -0.5259942278533394 -0.4153442322042395 0.2771016716488518
Ni 1.920897823922216 6.249118303890661 0.5935597201680178 0.8400310819656437 1.0785065566018652 0.00543916873770031
Ni 2.752658914471082 1.519869184382717 0.35270602958667246 -0.039723029621234814 -0.5221442579796298 0.21050290068269553
Ni 0.6053551598844079 8.986064463911239 4.680833175431219 0.06335018212187155 0.8430405582159288 0.19136489430166395
Ni 8.573165173662305 2.4913958600783928 1.5209185136591694 0.3803319777951127 -1.1695230942907535 -0.09380489906730295
Ni 6.7189604712831725 0.6483667863404408 4.772105793195174 1.6744486743992517 0.4160795677083673 -0.2818952363827532
Ni 0.4233599613779195 7.39433706569202 2.2264719332531766 1.397505639815451 -0.24158419546853235 0.22280228687533887
Ni 7.3481412051449215 4.061892010502035 3.5501373845397914 1.5664181186508699 -0.11386233193881036 1.137404359379338
Ni 7.575840221195819 3.9030699532621402 12.501553140727621 1.367589311871993 -1.1693099498386827 -0.26080139182693146
Ni 8.014193448729335 8.824279274776698 6.914864266563639 -0.6846899140567564 0.49199858763418486 -0.6237012901885259
Ni 7.151015910844889 0.5705496870791111 0.35463070608337777 -1.601964648296912 0.979055000771746 0.06711659114283924
Ni 1.9372901957797486 6.370497972785987 9.303310775668782 0.6854959548978193 1.6345348689234496 -0.4199112827496317
Ni -0.12819215378338264 4.8088187255228645 1.2644816490129274 0.27295653913222667 0.8667451009217202 0.5263621527157193
Ni 6.453320680789219 2.0944721096773478 7.066481473132487 -0.16107241396570968 -0.5075833294463193 -0.28617715158755874
Ni 3.6337058593776694 4.400196494155498 0.9351689567327255 -0.6020006652866406 0.6850506398302848 -1.0364073134389697
Ni 5.84447409974577 5.685914827903258 4.866110472935384 1.5850323913179476 -0.4512520018444422 0.8644840728016854
Ni 5.0852870867021425 2.986963811718298 9.302528762572427 0.2422177152874732 -0.7821367807520208 -0.5706951703051397
P 0.33977155109610213 5.612996410911792 12.508264136082895 -0.7464740372430886 -0.16295214748692582 -0.20395327248963585
P 4.161224890713351 6.138911545166886 12.874269825246847 -0.9698427381448587 0.09144796879935217 -0.17832451617793807
P 2.3317401388192094 8.604400389689344 1.30285012934414 -0.21789559360234084 -1.8478269023155078 0.005752843323377189
P 6.372908349189582 7.70433321895138 5.823690493282289 -0.03971814452522837 0.30613713964925343 -0.08388044086473942
P 4.590806522913482 0.9533672985798689 12.626658925326552 0.9021394212606142 0.3204941797018739 -1.2622545577882196
P 4.147786589185037 6.135685627874857 8.222587705794448 -1.394442170398779 -0.2383525759051121 -0.14360356775698493
P 4.6693159257734385 1.035175111255271 3.5974315068166476 0.604270949378056 -1.0986650338276112 1.3478015877221046
P 0.17010823697928515 5.671760662706207 3.630016896092317 -0.15358587578067745 -0.16360057970420214 -1.5492760596539448
Ni 1.3808375860354978 1.0260772995665135 2.449149029744403 -0.39347211472149657 0.8457029355394404 0.7473474409869775
Ni 1.6722394070385531 6.7115571723292735 4.927740897874376 1.4196667492935229 0.24182176540063513 -0.48390604043403757
Ni 6.016190764588355 5.284306248176429 9.110314836733854 -0.5115829375240157 2.0725724289601466 0.033980727820818894
Ni 8.792083532814392 2.4775588496712886 10.30949793912292 -0.8211897808894245 -0.7506387101437395 -0.11741842472118487
Ni 2.332755034147039 5.293331567341769 6.982250597861893 0.03163639595835842 -0.17230504945673553 0.43705925528382794
Ni 0.4315824258464241 9.008627761824592 9.399782013518236 1.1684208623655101 1.2913399051899503 -1.663348193610716
Ni 1.4389675282500198 0.9870944450993469 11.451215312043267 0.09393679665947693 0.4869219444422259 -0.10584640361286932
Ni 4.204530111889221 6.815719866913206 1.8667123811380886 -0.08532771483422724 0.17011549800458445 -1.6111969655284573
Ni 5.770187386374818 7.610890356267647 7.826914451422334 -0.06731096654183245 0.8513321088007595 2.0865916260573742
Ni 5.499636227419403 2.705049449717364 4.931415362655044 -0.6092159520881573 0.8842059767106449 -0.4178358882778416
Ni 0.8328774754094782 7.5656459600903885 7.042277125720296 0.6721748123088811 -1.0835713727192824 0.310673079846394
Ni 5.07608053622826 4.5236784462299005 6.98172049628441 0.0813972694315695 -0.21471025389582377 0.031674705395461585
Ni 8.0355878047026 7.337910697777782 8.864361297130166 -0.3612906448929455 -0.48939200324927334 0.6533959890394813
Ni 4.587317820224069 0.2641573183900883 10.28692557964414 -0.11559371280762026 -0.7891697763394021 0.3424740264070747
Ni 8.066859266991345 7.27769659551504 4.661894503688685 0.6424708574865451 -0.29989810071807704 0.3279339238093707
Ni 7.3651769481477745 5.88473463493815 7.034280294230925 0.2905032897667384 0.30195549746773803 -0.8634510035514806
Ni 2.2334402770665776 5.239252144873139 2.8705263206068845 0.27005324944250264 0.06566880295271917 -0.23146407631539492
Ni 2.3755890539207014 5.410823824668893 11.569901883693676 -0.05957117469541354 -0.6312809023079966 0.9203248339203891
Ni 1.0190092785334148 3.208192870054283 3.723689922537898 0.12681709232726546 0.7080517287111483 -0.34202202647132063
Ni 3.651838051797195 2.6274190187038315 2.7267736466721724 -0.8585437960578504 0.8061722244346696 -0.9526472002021787
Ni 1.2464726938832094 3.300430544536219 8.407321309372989 -0.37571890450313356 0.3180197500194523 -0.34254910261938426
Ni 3.4317054428778837 2.7377798240398663 7.292541251997632 0.5453176107722995 0.6229952652604367 -0.7827075656538263
Ni 4.178133771800225 7.128842260244898 6.161725848442568 -0.945901911058545 -1.087715733904959 -1.4977467814264012
Ni 0.7347389095214477 7.341526262383176 11.181614711301153 0.11070553147738353 -0.050083289809636326 0.859868171296229
P 0.24415119424024861 5.6862954136511945 8.2202271680007 -0.05602870875979382 -0.9794566070855388 -1.3028525338152401
P 8.400161766529077 1.520041354125831 8.059697911834348 1.4663582398127908 0.956174496629147 0.4116672975732846
P 1.9193664193650446 3.0966993690398668 10.626684444548644 -0.23505076522538876 0.7395562270773328 -1.5661625509966384
P 4.106139634482317 6.33038242264044 3.927429253443134 -2.517342165514355 -1.3512214120369308 0.25811844567812964
P 6.901396968025958 3.8393309020482747 10.307057659553417 0.9723858162816866 -0.44278587335496006 0.7003628447073229
P 6.297371139789698 7.7094439418522365 10.12993667709014 -0.8650165482663876 0.34632862426647454 -0.0518097855824398
P 2.6004608615583598 8.71282202002399 5.627033681914834 -0.9998863356948007 -0.8899385083190481 1.545715853106512
P 6.774970007187765 3.7933253343751447 1.4846722519509719 0.5851591682492696 1.5465797437687043 -0.6263600679676116
Ni 5.231821661222958 2.8085325268942687 0.4081782146614409 0.05354785131946907 -0.5462424365794141 -0.37170592668899854
Ni 1.6396449561974562 0.8779669188179334 7.149026897233652 -1.3851700010682337 1.5272051958968342 -0.4729413138924177
Ni 6.697258022085389 0.7865049143365529 9.202131148423433 -0.2539681709551819 -0.25521027089239917 -0.4571238872441869
Ni 2.8881021329091894 1.6127774147062548 9.311706316036943 -0.7143002807240214 -0.6592143954934712 0.3527442979848312
Ni 6.235680002362346 2.029446316172841 2.5271854188890672 0.9024790639882201 -0.8671122544531518 0.5477017947337599
Ni 4.285567691503323 6.718860794063476 10.750595914824292 0.06137120401862979 0.5915930968000715 -1.1053195630296513
Ni 7.9668195846767205 7.2592472483055674 -0.008117350309550865 -0.16787092494478184 -0.9439884960859162 0.350188621442513
Ni 7.724105554713202 3.7632862449844757 8.203888259379188 1.28835665419191 -0.1123610648029355 0.4410560351480468
Ni 3.0800985811775123 8.418275835817749 12.42867640693712 0.03133094890279765 -1.1538468212060773 -0.048657613106703294
Ni 0.12630009892221475 4.908668114963522 10.327190645619234 0.3535745071956104 -0.6625244337033106 -0.12816769281788895
Ni 8.79079679052375 2.582056822176022 5.954843966647231 -0.04601914704259172 -1.723392708398122 0.31900551097148927
Ni 3.77285525807544 2.8027784328480925 11.6693706873864 -0.898865892715665 -0.06306247567812366 -0.30629654804525314
Ni 1.23741112845616 3.2381866516178164 12.663448880960372 -1.487953192374747 0.7427953028399208 -0.20770656888448102
Ni 3.1950536001850613 8.382600452731456 8.029791121298915 0.6965676393309487 -0.4458426579034129 0.5373181375065907
Ni 5.680940028483809 7.856766872565205 3.6591815444192757 -0.8348503090956525 0.8683389277714013 -0.18066164895154693
Ni 3.083641653259489 8.406196769103492 3.511357509138191 0.24574398327317676 -0.018802477418483746 -0.36842339928298484
Ni 3.3388153356852 4.581645280266735 9.610444380409737 0.8484334470967261 -1.1540851624691286 -0.5991531685355166
Ni 7.323765594146159 6.091954513123916 11.156972690278833 -0.22265290578166816 0.23651115182099913 0.3435217509452987
Ni 0.33514834041522157 -0.08054009967215789 0.22262635172483541 1.938794846154648 0.4472410809128362 0.22457300562251642
Ni 4.720287231300591 0.23354463190788727 1.4356808984696292 -1.0305364564804895 0.419625890298729 0.22529574272115396
Ni 6.236975806218415 5.51217743397044 0.1972267838328159 -0.5376233274518354 1.4778081335209452 2.303214523594878
Ni 7.919925983591741 8.79008998842044 11.046005666215729 -0.28081537305501314 0.8368017763950685 1.7736577752012612
Ni 0.25965190805975935 4.9052700279283785 5.595004672756385 -0.706725296590241 -0.07552589825245704 0.9909059865730613
Ni 7.829944638901139 8.905960225536122 2.631827470284091 0.04386841924817607 1.0308326475646699 0.28799132197816213
P 8.57360919036823 1.6956907383637567 3.8114883361171223 -1.1249003133750561 -1.020751352069268 -0.7027935656360025
P 1.878906529733269 3.1533250913934987 1.434234672627472 -0.872753254789013 0.5894914770760363 2.2036128153401404
P 4.718846442397691 1.076994235701104 7.989246959108668 0.1882793133978048 0.28820266665801975 2.21818505672736
P 8.514083767077944 1.6312539466120086 12.357363699339325 -0.015563144545579648 0.21469842682128187 0.17680010911361166
P 6.242349314516654 7.861043931446773 1.4330013935728505 1.3864164718808252 -0.9470761338723044 -0.9162118401932802
P 1.8165992058568774 3.259191360277717 5.927841407831166 0.36865325590560377 0.7111370525046913 0.4291813951976479
P 7.106641424948628 3.9599584610131564 5.978423972201499 -1.0220908968162976 0.6064509877485104 -0.44768742442163545
P 2.4303934016234963 8.508239057377496 10.171740396874744 0.3878578538585127 -0.32299226353337923 0.18237966008391815
