# total energy = -340886.52487418026 ev
CRYSTAL
PRIMVEC
9.13092621971592 0.00000000000000 0.00000000000000
0.00000000000000 9.13092621971592 0.00000000000000
0.00000000000000 0.00000000000000 13.36403349072479
PRIMCOORD
 96 1
Ni 6.467736398514532 2.2058309067632647 11.57690145207049 0.8416958712625761 0.46763764229131716 -1.1731439788727926
Ni 4.871677879073613 0.8241427957636932 5.939096856575644 -0.6376713792153728 -2.081070953349461 -1.1039242253440213
Ni 2.7284120791211586 1.52237194443169 4.866419378633983 1.397522866206632 0.9750039706308242 -1.6440543783781103
Ni 3.415952565495995 4.545658156557563 4.415690378197418 0.9349932345658414 1.0570522433828313 0.23910539491073657
Ni 3.699212160283641 2.8571581395462053 2.4715572969247996 1.5671709376564944 -0.3375110259748445 0.6194157754392945
Ni 5.0141659835369365 4.838824806349548 2.34792729448955 0.07856237108593567 0.5670814848119524 0.700009318022646
Ni 5.412429594711353 3.2264310598093084 0.2817246860814441 -0.19017833019273053 -1.8818346267195205 0.973016250776834
Ni 5.797334660750888 7.893585321332521 12.49780376043831 0.02564572559256228 0.9980335987567779 0.5155465501574541
Ni 2.290931139611594 6.663101697014837 13.1193513902801 -2.115412921164441 -0.16443284579751036 1.140921628503977
Ni 0.6867515743449982 8.77389792314662 13.2726632947454 0.49498209574254104 1.362606256835105 0.31466574594555485
Ni 8.524943218360173 0.022131539096328312 6.696837730309336 -0.9636882885076888 1.2693063224286785 0.5773311875644186
Ni 8.827879959262427 2.705484323253974 1.368036463131381 1.1063436334187915 0.7412001904386589 -0.5718552520515119
Ni 7.280498407773702 1.4541821870377718 4.665196590930651 -0.47606520423338006 -0.9073222510131342 0.9841090182558857
Ni 1.166895853764491 7.5205778522244655 1.9472330307417185 -0.49416577048883276 0.16572893890111456 0.6141038763080778
Ni 8.099350744855816 4.046990880104151 3.9007344423686705 -1.0996029722608482 -0.015163080893683562 -1.8183682307347588
Ni 7.508707648071802 4.000852309655374 13.015766510288191 2.0469444439793976 -0.3960074795488406 -1.2478620365119735
Ni 8.447996902672097 7.448251785229657 9.187772678967045 1.0200934067702947 0.1943707710075233 -0.7241216376898174
Ni 7.223557951546 0.8813179167965667 0.15840696132467288 -0.12982785412913125 -0.19658089128496467 0.2704147465469794
Ni 2.4580910068599158 6.7414998299800475 9.57688071036925 -0.9318873419470081 -0.21301024048558154 -2.201027314001151
Ni 0.4185087009030989 5.297169912388986 1.169287243354939 -0.24373980835895442 -0.19611372184055903 0.05685583264677951
Ni 6.448040990547382 2.246043506061982 6.796840547925021 1.3796223317771272 1.0312599649100755 1.2670944023790243
Ni 3.498413960651924 4.514266032036902 0.3310828211334749 0.11064793876657072 -0.7253560243175508 -0.7784318210966078
Ni 6.08556147943011 6.020896259576905 4.776466058472469 0.22992167152893953 -0.32686023112921775 -2.349703411185037
Ni 5.475569949877254 3.0483962593718923 9.129585851303315 1.3837579512120555 -0.7627632613214154 0.4397159761803846
P 0.4050844130990632 5.88866218531623 12.190443998850249 0.2449932211500813 0.3572475851718234 1.0888742729894343
P 4.22875109846025 6.230542326765493 12.586581017296085 2.1910684030162266 0.9418359685192876 -0.01577834588017928
P 2.688455145758037 8.989360390370013 1.3028927827415613 0.15836324256466275 -0.3880856535986026 -0.1960854397057849
P 6.7278856189095695 8.514871806682951 5.874067312764216 -0.7905160059546515 -1.3271502300203402 -0.013535058371957336
P 4.949738167766785 1.0682453263295824 12.618320117015054 0.042005140787192176 0.6857564076480577 0.17008361632538452
P 4.483494810502688 6.347262957291264 8.273125055095052 -0.6767758014160021 -0.6389283915509254 0.24094964720832696
P 4.955837626516001 1.5293844958080332 3.758928418097812 -0.15247078833962774 -0.8224542494241448 -0.38063485374751216
P 0.19708099954667904 5.8458746648090125 3.4495644181932033 0.7681862321091996 0.6917596764193441 -1.6777592268297237
Ni 0.7351947905846468 0.08582157602376013 4.51944874578848 1.3348774234612688 1.1413664293508796 0.22462931278174864
Ni 2.015478486785892 6.9489270820847135 4.621817386401054 0.9339169707825271 -0.49488002294703803 -1.1720371189618588
Ni 6.541231224072064 6.003374012062319 9.282349900192335 -1.1621471135416566 -1.5641079824604545 0.11916986019465284
Ni 9.064800103223329 2.4813474760728655 10.212714587455082 -1.9703222273389678 1.096365439160157 -0.5589742823237858
Ni 2.6046332425876875 5.2918465823728305 6.973005334662079 -1.1958607037440179 0.5388718551469558 -0.45715345493054177
Ni 0.9482832169775066 0.27887675017743185 9.227423726300078 -1.1736078058830886 -0.31011000825407237 -0.7710578972300398
Ni 1.6432928010422503 1.66947116666201 11.400670009571654 1.616716866905422 -1.8969565699626232 0.10312514802696435
Ni 4.652298244479841 7.331138524874221 1.4323437506747512 -0.36860800448996517 0.39732645547058026 0.05233326218607761
Ni 5.9876505570231755 7.92538833753539 8.057657109315898 0.6214297205455298 2.076598262290088 0.2907958813064927
Ni 5.700008117625314 3.424444326928285 4.37048042295043 -0.6370136910267158 0.19833746896475518 -0.3305747038663275
Ni 0.9645271348141137 7.641809160328249 6.6669686442907246 1.1916230115135864 -1.3847573390108474 1.0323423993409768
Ni 4.928326145660634 4.747405972521493 6.602086108392264 1.4474076668522167 0.37772950717525916 0.4646104254292192
Ni 1.0101908970967846 7.8118909239833805 11.083247054140013 -0.014391492834981666 -0.8584869746779861 0.5154830439093703
Ni 4.985987945063766 0.5464831980582229 10.228270033450835 -0.29112832494524693 -0.39009522782946365 0.8795682208283173
Ni 8.521473466377087 7.476922893721476 4.625251527771683 -1.950523704555802 -0.18237426076727944 -0.018680350018322665
Ni 7.2854473698127356 6.331566895030935 6.802854175967285 0.9965536717771417 0.009457802978790165 0.46486933551756066
Ni 2.667298789587482 5.7820860138778505 2.057846897777258 0.278817625898694 -0.4626851833820483 1.9392149644112022
Ni 2.9560552019904383 5.127033363176227 11.240167500667722 -1.2762171906158988 0.8187883705367834 0.11067364979818359
Ni 1.447507479933466 3.5311848550395477 3.6367274056240184 -1.4995223852695851 0.3360958907948728 0.06318408885765248
Ni 1.6876873645732133 1.552732274283696 2.231713430371835 -0.2410522342244623 -1.954608159037821 1.2230490912333518
Ni 0.9647736698234383 3.4993361842053234 8.126508858864483 1.598563593035163 -0.07268097260449419 -0.5598461434057778
Ni 3.8888706298643965 2.858034708468248 6.968474569046269 -1.6259304150838902 -1.513686078364477 -0.10107160793204528
Ni 4.662360525230791 7.009739051051438 6.178580051540893 -1.2919644261478267 2.010232176160028 -0.548559771858681
Ni 8.001613310048034 7.180049087863352 0.27588180636045206 0.761184861090702 0.44605708790706405 0.7040595768326198
P 0.4931741112086092 5.7627467120352796 7.854136067470084 -0.4217334235600349 0.5881840711185226 0.7082095944452512
P 8.657003805021695 1.7568997857095154 7.971739658566288 0.8154659910317699 1.1176945396552365 -0.21588447670958305
P 2.146552933410115 3.5227387482386137 10.127050976455815 -0.9585800207468459 -1.115964187227691 0.04850823201303259
P 4.256006913380021 6.608507888838855 3.5164648887976173 -0.16879652208284476 -0.8331302410807523 0.7397585728961259
P 7.32500254241992 4.238347701971366 10.414324526432317 -0.5436106553835218 -0.7539700885098176 0.04026296128510485
P 6.671273876027634 7.9131346344793325 10.391351115933777 -0.9785091555706051 0.9898567193729404 -0.911774630357533
P 2.821346646710245 8.589097106342187 5.815840309024891 -0.41326035309201736 0.9110444370597277 -0.032001235496944884
P 6.9927281354080435 4.127105627208362 1.7936535901366715 0.19541386756005702 0.0704777943055883 -0.2378332130665323
Ni 2.866937361582746 1.8295636969763611 0.10405420960225191 0.3169082621228284 -0.5598769966437133 1.817800788267063
Ni 1.5845170286340213 1.2524982875577402 6.772638114750366 -0.7518427577541696 -0.055640472182439664 1.75336020129449
Ni 7.180569550660814 0.9555240415106316 9.273596994268686 -0.3624255298283371 -0.6276775012274545 -0.21080963328983696
Ni 2.8968320141949166 1.6894861570486557 9.111664582310674 0.8704819422563331 0.43148047564446973 -0.3765208315791386
Ni 6.870665913013574 1.992678563886506 2.3607434626039185 -0.7687876131386243 0.36859694874637167 0.7614864514915208
Ni 4.408045966723103 7.291391602815339 10.597197804700883 0.9507021606606658 -0.3969919549492969 -0.28892463242570887
Ni 7.448233523377114 6.279337996759213 11.600515853593276 0.41614024574297365 -1.4023652819005976 -0.7107565292368211
Ni 7.820656613203809 4.149211599711131 8.08626977987958 -0.4000561956969174 -0.2756862793585639 -0.023256142314463175
Ni 3.23022039421189 8.67721967578631 12.497242208472628 0.8482028191431585 0.6251223389057686 -0.4293410607039638
Ni 0.49669682256406905 5.08517719714868 10.168719958494801 -0.45522975554526757 0.020552884450687182 -0.40649140979929993
Ni 8.941925228390714 2.979101659899149 5.775494398202613 0.12778125601274767 -1.0427908483678106 1.3743685395773555
Ni 3.747386927290914 2.9029862585017594 11.700091343859466 0.1529137894143173 -0.9835405473469254 -1.2624291356928712
Ni 1.1976305515936192 3.7430040826807 12.668475381930566 -0.3605056870978049 0.2558664164191593 -0.00034298516171553834
Ni 3.562668288822921 8.368174345208567 7.951226119605231 -0.9509039922588268 1.1616573183894314 0.339097396625358
Ni 6.188978350378626 8.590457614356607 3.7638600313769306 -0.45946513378285386 -0.4983988347335739 -0.3205412308897254
Ni 3.675809596250351 8.752878530870134 3.488240282600464 -0.7197093675547348 -0.07064080224601382 0.0758655409800629
Ni 3.725016157926278 4.396203155349252 8.912420466330328 -0.47029539162913847 0.8336547461256547 0.2222631265424172
Ni 5.243598767955388 4.493675793295166 11.436846739458465 2.19399097597966 1.3583929900847056 -0.42947115852392487
Ni 8.738844297191177 0.12282648092337635 2.4093610795353486 -1.1327537479812038 -0.6139244133074201 -0.9160830279248997
Ni 5.068348900030712 0.6976858585548559 1.5215081588064272 -0.9137345822973811 -0.3720391416587012 -0.23814688765220923
Ni 6.054068914720466 5.651787695986686 0.353491027295823 -0.25003566866999516 0.6888764413342781 -0.595967057498051
Ni 8.164837748073435 9.04568907453754 11.41279131419678 0.0645341751276437 0.721271569835532 0.11085928344642841
Ni 0.22539234954340964 5.410576016678284 5.530852229894092 0.6690586352774025 -0.516324308863743 1.6360721315035822
Ni 7.283968159756789 6.263377137637016 2.519828851750548 0.18619543428558255 -0.11118709909949238 0.33752079616685743
P 8.994300221482776 1.8945484992490604 3.535882716606121 0.6122190005805392 0.7585772482645258 0.3068015127061297
P 1.9778773324007612 3.5484240438397245 1.5500541736083298 -1.363734199791961 1.2015562114668985 -2.2760670166458095
P 4.953180526971058 1.09569289070105 8.126949882603386 0.3269103676408628 0.9130221296113888 0.02861226442005395
P 8.972112070643567 1.8182504793262453 12.529236061034565 -0.9731126671453822 0.21359953733014825 0.25710594525321523
P 6.846688100625192 8.378629255789184 1.6806739001042434 -0.43294934688051245 -0.33403489450078605 -0.9047328930194031
P 1.9390435029690074 3.581222331006162 5.750142381410404 0.8755362168507889 -0.8673331122147063 1.623674272059862
P 6.935942904926954 4.264261270729258 5.894407364126119 1.393010580158575 0.30711004508548395 0.7937633092473555
P 2.768222917663939 8.956187735226454 10.300396133160303 0.031246873829423604 -0.5921109169767544 -0.17309592078914704
