# total energy = -340860.860107549 ev
CRYSTAL
PRIMVEC
9.38985499648123 0.00000000000000 0.00000000000000

0.00000000000000 9.38985499648123 0.00000000000000

0.00000000000000 0.00000000000000 13.74300192844183

PRIMCOORD
 96 1
Ni 0.41265970466331947 4.033834671103154 11.585940889936381 -1.4479329432280676 0.5383537778599566 0.3619606743767766
Ni 5.179190379414052 4.614212206191353 6.695645356075535 0.3223217198289159 0.032753283171621 0.08224650480574222
Ni 0.4615338988766877 3.2011986869194433 1.1126818305771315 -0.563281651449888 -1.017492735922654 -0.11854996722246679
Ni 6.45775056786152 7.618327230796793 9.603499345253931 -1.0414024526607162 -0.6799809386168612 -0.5950694853844462
Ni 2.676014718322345 2.2014702366402696 5.057300674306707 1.1527759567394018 0.2644695847071381 -0.13732467672680865
Ni 2.1135905856041672 1.2502873356566027 2.695249835872025 -2.1348270640249942 0.6350005172514289 -0.5941292329583638
Ni 8.847515562726704 3.4996927810306366 9.48510360511619 -1.476124318060619 -1.1634090109732156 0.4877935484139019
Ni 2.045504748478109 6.753390146114719 4.731482102739049 -0.12786044599011528 1.181542744459449 -0.11447759692530607
Ni 2.5438900714873203 3.596229878188685 7.393405465968982 2.20227995546133 0.7803964010221464 -1.5371782479491463
Ni 4.5358820374828195 8.935883486212198 8.824793992091255 0.3282833367289895 -1.6428207630813256 0.14867018364661494
Ni 7.855740319459772 2.667939443197754 5.706726506637557 -0.059812087061626024 -0.26154006976516897 -0.5356572048644
Ni 1.3902055619723375 7.67121089300807 10.23969017724977 1.1421560151317103 4.125500087106172 0.9736736818551748
Ni 4.728796604267383 8.508532414735 1.5292524097630003 0.45016879608259247 -0.18686263555593624 -0.20971691444629043
Ni 2.375802280783477 7.950549683335349 12.470757236207143 0.34809240103511657 -0.046396070766036225 1.939082552598396
Ni 0.5357700908941496 4.313088952737269 7.700533531565131 -1.9075711122536758 1.5298989406789134 0.5668637123741914
Ni 8.829224125584025 1.4045157006814966 12.745094989870056 -0.2993555979510457 1.6273234387766748 1.0788726816920322
Ni 2.2630676841022668 3.16238102719263 12.337573413751128 1.0341288018174384 -0.44173866303736825 -0.02287561904659286
Ni 6.670599796378068 1.3891538982351814 3.0434012380865765 0.039968569973137615 0.5048173366654081 0.8053543565190646
Ni 6.875683614978293 6.54809975070898 3.6290183121509636 -0.9768587644513758 -0.8885987064617019 -0.623231549640959
Ni 2.908779828861286 6.43699898876228 0.7248000747495923 -0.8032715058481069 0.942472573662022 0.056913682467908434
Ni 8.371309076745728 8.852304388672682 9.95239348498285 1.0622854667573125 -0.1381818825207814 -0.6144939126576449
Ni 5.509675708815341 5.8305833863246725 10.91209486223748 1.2823886095339334 1.3358467293530736 1.5990042801170077
Ni 1.5735612565745356 1.4434366488110666 7.061717296168322 -2.1027818626639916 0.9284361501736138 0.1824169410797568
Ni 1.3170585931112158 3.354196980966057 3.4202893519189166 2.9653535489343126 0.5233249085512923 -1.1070859109014546
P 4.347099006808512 3.256373473700952 12.995698007565027 0.08327006097425013 -1.3574445101285073 -1.211702812982597
P 5.743811738154503 6.5114417575852555 1.483007374892522 1.8360072839727606 1.8163745973434977 -0.07315816935122885
P 5.203866917818036 2.770317030038936 8.943918384961167 0.03881183066087509 0.17374152479294594 0.4797665643443673
P 1.3450121908390156 4.909354122140361 0.3034988867174807 -0.17148615309986595 1.4663893501610423 -0.7682895904562833
P 4.803596187572607 1.5247809609091278 5.986891604186889 -0.9670068113579604 0.5516093573182823 0.2614979036733239
P 9.109417392697743 8.871572370714148 12.078092288346506 -0.681326139790846 -2.589807422563617 -0.7899081971673235
P 2.460958873928729 8.799214149655892 3.7157777535098986 -0.4448317001403952 -0.6283742701841629 0.14739877313335906
P 0.4634024799810989 1.5029495485083437 4.866066891530634 0.963231146365612 1.393373619924949 -0.8576495663783552
Ni 3.821454935326408 6.856988414079385 6.599746769043618 -1.0298995942274392 0.560866357140176 -1.4053904418801666
Ni 6.830377565587419 8.611755088507827 11.705093452370683 -0.756328304329349 -0.05116572424053768 0.9749044689384821
Ni 6.437853465548719 4.621517513222669 9.119649517468984 -0.1911124119712257 -0.3114904335413668 -0.6948563130667968
Ni 6.654655822934398 1.5783970317944942 7.349248734805142 -0.4572745538894383 -0.017403025967795836 0.29356933028657184
Ni 1.4942827125316023 0.6227267192038017 11.88972992316706 1.4098330510325527 0.8460801163732009 0.5036392571969068
Ni 1.9201314072414344 8.680056892294195 7.6107646417440655 0.5892942734635658 -1.8637222333895258 2.6394027169932417
Ni 0.5934040806467399 3.612023613955617 5.538787075639492 0.8644678748517692 0.9871447197584161 0.5451116654090806
Ni 4.24789519088839 1.802936629532107 10.851309637215339 -0.4955292264952627 -1.090168823431142 0.4092270635629081
Ni 9.035246929663852 0.7059217716821616 2.7866131230374567 0.9040456371443913 0.887494931874562 -0.8682078015101756
Ni 3.5888494523190007 7.323936503231468 10.716737994220468 2.177041749719831 0.12269432840814352 -0.2120522474476864
Ni 3.6353855726881554 1.4991184877515609 8.229927911052771 -0.12182503842931279 0.8435547788481859 -0.8736654821906372
Ni 2.878835581916726 3.4289496149973004 0.9996495754988872 -0.2073304164919849 0.6156046292233205 -0.8551599671872822
Ni 9.03544411661457 6.510343144574119 6.155311795750513 0.5437770057580571 1.019964337391598 0.4507406094256625
Ni 4.202025750209754 0.951455206772752 3.1524662795134955 2.025843914555356 -0.47483930224607906 1.301974502085661
Ni 2.3115756739785898 8.761232187005927 1.1184453234509386 0.5556339050966431 -1.3892999640762072 0.8786302823950803
Ni 8.059565897517327 0.4402555489233902 5.108039693682568 -2.3160607834299274 -1.1595973505366095 -0.876130398791362
Ni 9.40825891143639 7.868388453870033 3.5993745405598774 0.3583387613534732 -0.9423507033721771 2.4078365678823435
Ni 5.129349030156693 7.063292913803096 13.13004992795767 -0.31744999355891135 0.8856067137129136 -0.5332902472941203
Ni 0.26836298905619305 7.527996827658925 1.554017212802066 -0.13700354594196404 -0.40985749805805544 -2.5746199161899015
Ni 7.565922451180116 8.670601308514586 7.382947045697157 0.612308732080868 0.2564996791277841 0.09865579940170106
Ni 3.543787539152823 5.4011571569375505 12.54844607783311 -0.34687421235729937 -0.9299988666750435 -1.6213667069726079
Ni 4.154832340004876 4.15070080389462 10.362195856831734 -0.7806864214587393 -0.42618426024253697 -0.3824531379031736
Ni 3.220804703733567 1.200267579158118 13.51570628819855 1.013247330382739 -0.19521357862379282 0.011483575159567319
Ni 5.544868884590884 4.635020124419369 0.28538210087400856 0.8390417214691809 0.1510127157368625 0.592411993156941
P 9.342821013362814 5.6617725768015355 4.3166909010370285 0.7088904225623598 -0.5237990199742335 -2.1922732219576053
P 7.7738889552027235 6.344922072632349 11.388632810092755 -0.5534615800356726 0.7653963280688884 -0.21710600782150996
P 0.21718640244683673 7.750545776179778 8.407130433807128 -1.5776944628956378 -0.5187547726821066 -0.9829877601672489
P 6.759146127104689 3.589431623316355 2.32178432411284 -0.315139857368496 0.38594623865809663 -0.7546578586054616
P 5.96490525918197 9.253795800041596 5.1048105226182106 0.4035937765365308 -0.5955186571067228 -0.16959047873904987
P 2.1285392344394567 4.982782786645364 10.475136091332978 0.5831331389581763 0.4603333953204201 0.21128503026435871
P 3.6668791456740606 3.1448219987240424 2.860715979116815 0.1557754272328285 -0.05284953970086382 2.386023842882626
P 4.4830453245455235 9.184320264405724 12.209736174615973 0.4960447326791005 -0.6138588501768073 0.3887430846769434
Ni 2.8750796399983116 6.416256799517837 8.623019158321151 -0.4381303768608196 -0.898480227241472 0.9821017580178699
Ni 5.060972107531957 2.23110461837656 1.3657299664609897 0.7186066214088592 0.28014148691644014 -1.090358827954761
Ni 7.860313178745442 6.381702133868423 8.111009156002892 -0.1717211519288075 -1.130992028095091 0.34687601212951225
Ni 8.585848479125564 3.1971892189215363 3.352990384624766 -2.0263069702347036 -0.13185439764085677 0.5904718387114346
Ni 6.634908958298334 1.3177440525113264 9.70863379346323 0.24882776440482307 -0.2941578558001902 1.0667180486073693
Ni 4.606465575984623 5.805371626197316 4.474721218268837 -0.39223258588744064 -1.1912136918903098 0.967650101368914
Ni 7.473329093036403 4.890546242983901 5.057809604436652 -0.5252516932603599 -0.2594106821269919 0.8213206500403339
Ni 4.17289842063245 5.45166518588543 2.2873573604886532 -0.8866061015117053 -1.5632651748441853 0.8646247121446077
Ni 6.239398884434496 1.6631874206027009 12.45293247484783 -0.357340659106262 0.014239283527833541 0.0023790417551378383
Ni 1.9543010888442098 3.015655156149769 9.573952289167245 0.004509200724263202 -0.16971106347731416 0.3758559443016301
Ni 3.0557873955480273 9.301533821824643 5.899018526049145 2.0452863395506844 0.3656216681681316 -1.8971450318243455
Ni 0.2518584412812003 6.007347402860053 9.94372101509323 -2.800024416574778 -3.402349812190689 -0.6319851274638729
Ni 8.120844089916261 5.308760985744556 1.7861776166921417 -0.08838989869931874 -0.014856091176226027 -0.19589260696868843
Ni 7.460220855741137 7.345054286667753 0.13038095079940087 0.2966397416817794 -0.046370873955055625 0.7135641738889453
Ni 4.454659793497107 8.077913673788784 4.125470264057671 0.5360858077613865 -0.35727123932090726 -0.12903235481102937
Ni 0.37875012203839414 6.607622040261053 12.90860898230275 -0.3421870912942752 0.1747357703854152 -0.4141378706009642
Ni 0.6037366768642981 8.885009252927276 5.641144943785603 1.4360037958906493 -0.6745697949036189 1.0614004930491978
Ni 7.811598612063605 4.858479888855438 12.973888191830273 0.22924212896341162 0.6195931815574233 -0.5076910586687773
Ni 7.560551454236783 2.847360788640413 0.45007358109812556 -0.6497949019517841 -0.14501818871632446 0.4085030409126901
Ni 1.4818317650720585 5.6277719125850885 2.6394121253419165 -0.5742461208811916 -0.23626818257225762 -0.7952730610236626
Ni 0.8469649026024616 0.8805477182804848 9.778626710098363 -1.8969809954426555 1.0900644366427936 -1.7589220116529838
Ni 7.328706549467854 8.500795174383068 2.8621723455956807 -1.1172700505233082 0.8452619913472799 -1.5731469527342714
Ni 6.180017442704363 7.004540592344298 6.0101033252426905 0.5956621246631224 0.6778968023943228 -0.16457399936106495
Ni 5.6168233418929105 3.459645050325543 4.085862917542511 -0.9224225969896822 -0.11001724716110729 0.7530411489376451
P 2.730813910912012 0.16241537942155784 9.896596150828364 2.1520884222086036 -0.7485468606117173 0.15657838275009808
P 1.1445200112340514 0.9953246083798328 0.6764442005209653 -1.0605584567638766 1.5552433329809732 -0.8785935156198739
P 7.660534628104975 3.1877899742707037 11.544904407521265 0.3845830397619828 -0.6346259075208296 -0.10188459075164388
P 7.418548680156328 4.153348742947102 7.163525857808864 0.5763130307125494 0.9032239125740444 0.5413771380673128
P 5.306272674223606 6.483178294649186 8.02642158805828 0.670431090144897 0.2287135101534513 1.2847396262646131
P 7.307494867483608 0.6618345254438127 1.0843244690931024 -0.3429656213315126 -0.42111713013227475 -0.48305911905271004
P 8.950775795918712 1.626923801380409 8.091659482224701 -0.9848518099591813 0.05406412883425527 0.3741906407840652
P 2.710015382538792 4.95945838733201 5.5781333841913225 1.000567163811909 -0.9098059366669363 1.1694549600569795
