# total energy = -340856.2287572265 ev
CRYSTAL
PRIMVEC
9.42621077646446 0.00000000000000 0.00000000000000

0.00000000000000 9.42621077646446 0.00000000000000

0.00000000000000 0.00000000000000 13.79621228734226

PRIMCOORD
 96 1
Ni 5.505076812739937 6.252641317238028 10.866724401067867 1.0687422781262497 -1.8713252425477642 0.21428396499168254
Ni 5.668055998470981 3.9071455481287876 1.5628214570291699 0.13249254544548794 0.3076412349986057 -0.26489124562558897
Ni 7.9522908232155 3.528702034610569 7.92262653764606 -0.08326080500286952 -1.0265206504528772 -1.247453488219645
Ni 7.114065022687264 1.6621331867635 9.395814155628583 0.1314751599245671 0.3466487266100546 -0.12645559522278868
Ni 7.813998883720984 5.484555951702546 9.011837456336847 -3.1379640454466085 2.02161650673757 -0.18736837154776118
Ni 4.1793556652798065 3.9865142435513095 10.6376523952864 -0.14149937692978856 -0.827801372668671 -1.3172067456543832
Ni 0.7079272878411192 1.6945970569577 8.838447020713382 0.17499596602533732 0.8842563703326062 0.19524314631014764
Ni 3.6004354992382877 3.3200434310627145 7.562559422195087 -0.24061129003230172 -0.10270040178471991 0.9974692416128758
Ni 6.154957494118837 2.1574899935507847 6.63428125885812 0.445561122107252 0.9912356019983379 1.624142984166164
Ni 2.944069584789234 5.630435990937575 9.074568889595385 0.34902545437234733 -0.7664821049338993 0.37001465502950465
Ni 7.7702329867083035 0.37829175152340827 2.1213197372473047 -0.44072230595771195 -0.4904677528119553 0.9163177696435252
Ni 6.681920385912263 5.092444432440544 6.467346835051149 0.6934069822147799 0.9570831244863451 0.3664505918273302
Ni 2.8703754683030973 6.764559976502435 12.608345053510698 -1.1366541114768747 -0.00563791501206771 -0.7777167973074541
Ni 2.0237414876897204 7.611740677345563 8.157727547892165 -1.2170548213231298 1.3493185385872632 1.3048644220389463
Ni 4.024831790688192 5.526681688025972 0.8222747665146971 -0.3661736840168597 0.11036563163946154 -0.16303185168492568
Ni 0.5052260495553821 7.882395469705048 11.821257389507014 -0.06649155596433064 0.15743044633774822 0.9657377148375497
Ni 1.9926255656481833 7.380478020160747 0.9884890278121329 2.8002139068777643 -0.7930850522334083 1.1581084246959088
Ni 3.697959076772897 2.3314035838768565 13.312130464300907 -0.41768573585322255 0.13986364109857846 -0.9642978970672296
Ni 5.781085692866642 1.7079162928997456 4.4048268585136015 3.6556520674270976 -2.5127128942724597 -1.7025467181870484
Ni 8.40275058768717 7.481036837591562 1.9105958509005099 -0.9231952134896487 0.7792807993604645 -0.759605432418724
Ni 9.261384134722503 1.8493565868207598 1.0697703014176985 -0.026466164611328613 0.16700780561353817 -1.463153359722248
Ni 8.123838434616268 2.58659939042958 11.832528309829664 0.23383026255472633 -1.227628483073918 0.5464710076504523
Ni 3.082993080411221 8.674093493439273 5.311693383887117 1.9150982738686566 0.7857486664729951 0.14633767885869636
Ni 1.7172670940706651 3.6862328704658167 9.963348401574988 2.3392960998087844 0.10434359381509771 0.7791105923311873
P 0.7528186744302187 9.236376397316807 8.033409965994311 -1.1907056419056397 0.03430622948103769 -0.9846762036132655
P 0.5159332824687363 9.299748812913673 3.962685725123923 1.7271385485937998 -1.0071918682172782 -2.7338763599927947
P 7.8845257933589075 2.3959165709875143 4.994311921684522 0.18929361359493208 -0.19687759658977705 0.8007960477244208
P 6.743237887542133 7.613380838034817 12.522104650372853 3.915408820039599 0.6001533276652566 0.5958963521611157
P 2.859412785075497 2.1218023592432234 10.811857255527979 -0.09684445722457515 -0.6564813128330241 0.15159789881637117
P 0.18691987606763902 4.464753051420862 12.116634305083204 0.3032392492761681 -0.04145415337972861 -1.9445358624034832
P 3.4313292764496843 3.273845571648726 1.4628951383469122 -0.7014141687899726 2.85087569489869 0.8534396420620657
P 4.972194260527823 0.37107127400634754 6.2947698814247115 -1.5162481826646983 -0.6171953707492082 -1.5962819960898378
Ni 3.7369647373023978 1.1883246979971045 3.581869634332801 -2.027358808537986 -0.28789670538182677 1.90443950860323
Ni 2.606158777959477 6.1011338301209035 6.712188891597686 -1.0872287669662115 -1.5358944961407162 -2.0964158112366476
Ni 4.368464307508623 3.0003911946644797 5.205186627405041 -2.563310404714353 1.5226381453514424 2.288395713414491
Ni 8.361510915184375 1.174439889403592 7.117921285549182 0.4985037357425544 -0.38060117229609935 -0.4029576856144286
Ni 4.800891730609357 1.7325846867145602 1.6973344285907999 -0.25495881700322537 3.6248083425733637 -4.0781804760846025
Ni 6.590948024923812 7.675084814309855 3.6820711983721055 1.1121684676306844 -0.06315169295782026 0.9332024612140057
Ni 8.490489758351401 7.6671385185567456 7.209114219871706 1.3056820328442353 0.14452248002682852 1.3332568571387104
Ni 8.749644573464392 4.525165636808385 4.287545943021082 -1.3491771279133926 -0.14305052346699235 -0.22163320626790217
Ni 6.096449003324586 4.563737691638428 4.3570925267297955 0.35515393586758837 -0.27133468725808757 -1.364067928982296
Ni 5.209536823715908 5.246544127543558 8.441170880522401 1.6877687885469255 -0.7886149322771967 2.615719771554005
Ni 3.7679109875484946 9.139833145711407 0.46948280060375974 -1.2288451290898386 0.27021317205913464 0.2602082383276228
Ni 6.4212479508511695 3.67512879407535 12.940267388582507 -1.5665836976944567 1.042715515045185 -0.26141794236500787
Ni 7.942723219194851 5.92599483238332 12.208557770747204 0.5054711681993229 -0.6621056009983372 -0.7651991244564177
Ni 8.966777340573394 3.460974709597408 10.00268209424234 -1.347878463706627 1.138913854045329 0.46906126211172117
Ni 2.172600209555809 1.5773726987303271 1.8226728691245515 0.026554610560076852 0.5398625011949993 -1.5845559659021613
Ni 5.484348575063675 0.2202462445553261 8.273036500073236 0.17458638929174447 -0.236330917489393 1.0907162112941795
Ni 2.3056323233916816 8.928111023634774 2.5482573351444673 -0.32623828127450266 -0.8454360550312988 2.250239514059744
Ni 1.5070154608878448 4.834345352943624 1.3875815988354079 2.4445529494667704 -1.6046730483670104 0.1453290350885239
Ni 6.599346778798096 8.47094922324322 10.336080573934478 0.00845250164272738 -1.133493711471022 0.5045926222491115
Ni 0.6977686603996879 6.176166468548845 13.586220167896968 -2.49811674162584 -0.6719179591030685 -2.0712369979781746
Ni 8.248980809964177 9.194099841619657 5.0452473946756315 -1.556040889181604 -0.3691098838270482 0.4908773295455481
Ni 7.982209616478098 0.5746500925229442 13.171878815569059 1.7040078761136073 -0.7515823050039314 -0.876929754764206
Ni 0.44772427808074233 1.9921919599487254 3.2449240714948804 0.371586884612631 0.05495295919711181 2.4936975295122217
Ni 6.797165239859502 6.149914471309923 0.6106261688827537 -0.4074686861109047 -0.4932735976918667 0.3136488746452663
P 2.261838147746428 2.4425480361009604 4.6779503754967395 0.2745889325293271 0.9432230786748014 -0.22860475248972886
P 6.222816786084007 7.313985528769956 8.677514265359562 0.42742738862101876 -1.0367587832411176 -1.218509294381469
P 3.02533294859417 6.355415294220422 2.759780564172002 -0.8147103438126678 0.004514857151218031 -0.4960814994543069
P 0.3692991463650846 8.540967117494823 0.6307963748762349 -1.2269101168506547 1.560347744087074 -1.3657049503650867
P 0.8173382598884767 3.8807898625704302 8.06785899619516 -0.2750054512414554 -0.2368759913595856 -1.4082315108733876
P 6.704034276584618 2.117108106236048 0.5880786725109399 1.7756912606915225 -0.15207226734962842 0.1505694575518568
P 5.383271316035683 9.662525963986258 2.602517432705116 3.001173386846399 -6.886473560426076 3.214469534003516
P 7.86849180868982 0.3782644155119207 10.91817077468747 3.645916071086256 2.5664646340726187 1.96034891817634
Ni 4.260656733928173 7.238434448744835 7.69312658189165 1.2044980677040416 1.7911924416509153 -0.25595100571316565
Ni 5.027658085215011 7.575789109133984 2.004010543122212 -1.0297139605791943 -0.21397671816390892 -0.30439830258127576
Ni 4.4759608161307645 8.158979348694077 10.26377493830769 -3.0587411579585386 0.8728584129083096 -1.2627281549905285
Ni 2.4693184749370602 4.426840831350865 12.26359081759819 -1.5140784287068894 -0.8270557527518981 0.5447920772861327
Ni 1.0733343517430256 7.688894213216506 5.528556561365585 -1.5499887694502532 -0.7586466680498806 0.07842070330174881
Ni 7.7401728002828385 2.7676297699532766 2.816538607609963 -1.4060201050443657 0.4194330575616325 -0.7680183390727677
Ni 1.6979150831796395 5.032060125685595 4.857867519518132 1.1833216907367425 -0.41072447404404094 -2.0818044890813763
Ni 0.45730225093333426 5.638118352786667 9.306332078576748 2.4454587491104913 1.347908288503298 0.17200654437971022
Ni 3.888632470004105 4.242435868340082 3.476149023836265 -1.2365697514276057 0.6868663528827847 -1.897934103384544
Ni 1.1399682362966843 0.80351472166554 5.684660268896964 0.8055525885727998 -1.4129875375011343 1.8039937071806416
Ni 4.849606388322372 7.765934634557155 12.533499996678826 -2.9600617044077535 1.1190340844022664 1.3586966373680534
Ni 2.934219194442852 0.8243475902823232 7.788830900730707 0.06256265322356966 -0.9995040126547174 -0.43306530363308643
Ni 8.908165161459708 7.880972111865523 9.735159631750896 0.23963787037543885 0.5998895324809088 -0.6805866905216601
Ni 0.566423838307358 2.9277433875835563 5.910504740080727 -1.1192845098501756 1.5769023060116456 0.7718333419434836
Ni 0.0772921011705524 5.241322006728348 6.400476352604961 -0.21914232152524837 0.6585502795469109 2.3529391445135155
Ni 6.365378799097097 8.007255058727225 6.50438995848006 -0.9538682170934734 0.01237677639779804 -0.8904249610371633
Ni 0.9426493644107405 1.068442148307837 12.82620081099249 0.8245291296753026 -0.2952379762382464 0.0053535510024294896
Ni 2.2836598258821925 9.087395134709569 10.587600158252666 -0.2892264799368438 2.486190936722531 -0.027740403338061905
Ni 6.541875171198201 3.9064197298927383 10.449555185482623 0.9573204373081319 0.43701066143407963 0.1798070142607355
Ni 5.152659067400053 1.6764233224238971 11.272237164306379 0.6592784159621872 0.46802613597898746 -0.9108870855462571
Ni 6.114000607941775 -0.013370137480677525 0.3206872343504187 -1.5870291100330023 -1.0791429046342833 0.57105178231361
Ni 0.2949301131815303 5.966687784656363 2.6826044053950007 -0.3116639830047536 0.33678417511114905 2.048870714467833
Ni 4.4147187241877575 6.505612538028315 4.298720715992982 0.30710515998947757 0.09894324873513283 1.3732951040075188
Ni 8.627179242000093 4.023474416324672 0.1154013290474779 -0.35781245653635796 0.36981205210039536 1.3738584327101564
P 1.4366959278887936 3.147166723930998 0.1361295667237398 -0.6037940097416375 -1.7109727374672146 -0.7840296268993594
P 8.32345730195151 6.665547057652296 5.301595084195176 -1.160366110381834 0.5675514824698354 -1.0484621877209748
P 2.07558564740752 7.049486052100601 10.364418591636227 -0.803313671939952 -0.8944587647869047 1.1264468319265697
P 4.438406792073363 5.080275194223148 6.568624872370414 0.1962214510630169 -0.14940629048169107 -2.8759120690420277
P 5.423295007337823 3.041178409046101 8.849939456991189 -0.055216754381459746 -0.8946425986629366 -0.590468496277325
P 4.527522189522831 4.9864561175556465 12.473872614655757 1.143792522293869 0.974433957059967 0.7157483260244577
P 3.801110102189602 0.36784939513515774 12.190885510631036 -0.37812674261367785 -1.84846299323761 0.060920746744772505
P 7.2807110044419865 4.926345170915574 2.467825363137188 1.4034065786809184 1.3653126000226745 0.5421474405744341
