# total energy = -340892.17905212205 ev
CRYSTAL
PRIMVEC
9.08690426558719 0.00000000000000 0.00000000000000
0.00000000000000 9.08690426558719 0.00000000000000
0.00000000000000 0.00000000000000 13.29960291104971
PRIMCOORD
 96 1
Ni 6.668706208600383 2.052540792979306 11.502001378382236 -0.5420700503692792 1.047096674832016 0.3758999101656881
Ni 4.486513469073462 0.4490302708049518 6.293132652506786 -0.2258685845054884 -0.5008102723885439 -1.1621512273067147
Ni 2.640772437765773 1.5237284135751528 4.596768510301443 0.7159887241700379 -0.591720109296239 0.6161828703242936
Ni 3.7794069459062904 4.181856838017821 5.161057071687412 -1.760474443741768 0.20529127457476903 -0.1173636602238495
Ni 5.170221214390893 4.582980042142531 2.4644964953854442 0.7020314906589974 0.4938443825936721 -0.13027856851330466
Ni 7.416776495086636 6.1347233808092385 2.50693506322686 -0.06251585914603427 -0.3859094718828902 -0.06250763161591814
Ni 5.042459343879297 4.637583248394607 11.728161697757411 1.1866751805900078 -0.699429534259776 -0.8069008750705781
Ni 5.6871570102417985 8.023091078871545 12.504485894910925 -0.6221848535439995 -0.4098091613186233 0.7062342158864353
Ni 1.5774411032333355 6.4661409442017685 0.4599218339625051 0.7335953815082075 0.7677602003153745 -0.8366652508172043
Ni 3.121206140171082 1.6632033033676494 0.2886718581952607 -0.8732024265112898 -0.09811766751004393 0.7844523162590747
Ni 0.46203726521820215 9.023995382791274 4.6991352101502555 -0.3053110442035323 0.12619385692096977 0.5694376437489548
Ni 8.74119275590209 2.313498502606052 1.513494742268598 0.1416536431194657 -0.2506635320619812 -0.40158394519535356
Ni 6.836314153236686 0.5893838642161164 4.864462341877709 -0.17543202512149142 0.6805234413838924 0.05231937822900667
Ni 0.4194405852468498 7.517641129701055 2.3585650030898546 1.9701851875404712 -1.1953207720801478 0.2656798029651553
Ni 7.479348916163653 3.9455155513794047 3.748293386544149 1.438338100450781 -0.38507694867926584 0.23186825373234907
Ni 7.819789775247365 4.063109176293387 12.624873742810847 0.46640968342148703 -0.2493080464753513 -0.07119333231537416
Ni 7.781152259357229 8.962358912828247 7.24499857019587 0.47596313143787705 -1.2039393669870941 -1.4400054608508748
Ni 7.058061872020079 0.6769761668199208 0.6101365356154326 -0.715846799275535 0.10521725466930267 -0.21808765500848892
Ni 1.8325014121515446 6.64000976570738 9.21304660353236 0.410618544593796 -0.7799590563744117 -0.7708007869139112
Ni 0.24146448312450694 4.666843079336808 1.445480174374412 -0.4673802748648725 0.4108113773308925 -0.32896056530167217
Ni 6.392600629973436 1.823832505717116 6.89749264323714 0.3184378113934774 1.1836096542908068 0.9263275884710434
Ni 3.56999924278113 4.361195975743062 0.553627805590506 0.30667270043774925 0.09204112229866084 -0.9389218801962862
Ni 5.885896688048281 5.432596481044652 4.717675220420867 -0.19958959620430142 0.9721503032321127 0.45869688815826165
Ni 5.329169339496786 3.0039305568977768 9.527436217483093 0.0965086711517112 -0.8081537736410727 -0.5248675704480639
P 0.14817560039099276 5.768466627406648 12.257764637811244 -0.6173167268184208 0.15674910400000747 0.9880662031314208
P 4.058193161218936 6.2005307397171325 12.659094114657194 -0.6709445394462057 0.7326049925704802 0.1300620816271244
P 2.3632038675917157 8.388139274039567 1.5789822421550117 -0.08856293394207329 -0.0461261049341012 -1.2451140414531912
P 6.299241778078973 7.842552469815754 5.831117195858231 -0.2808200010407034 -1.0589024092176924 0.1680994960158202
P 5.074917765036296 1.0107726816847078 12.711148444331851 -0.5717984306716475 0.5000682520161969 0.07530606893216708
P 4.033922040583341 6.234152284588605 8.044211769883644 -0.023946226402952308 -0.491284849396612 0.2478566587408054
P 4.839621472360101 0.9724077729151513 3.6755309112998695 -0.6951319353256867 -1.3126345529026684 0.8220696123912165
P 0.3237427642578147 5.507527091587941 3.5890045025375312 0.7111301105261558 -0.02871536565682151 -0.55329240144766
Ni 1.270458224748749 0.8918687252111408 2.6327496102071177 0.560422584734538 0.36768652111696026 -0.28342864230814413
Ni 1.9637799145186174 6.199440311234815 5.009907327610897 -0.35646956935521834 -0.035297903970345657 -1.369736440121983
Ni 6.007742984043303 5.754645446393266 9.210626760992016 -0.15108419240474624 -0.41914869355199424 -0.31696688327490574
Ni 8.905411285339186 2.8173309828611024 10.346745105409584 -0.9970828048077345 -1.6896382376554966 0.8001825825101381
Ni 2.3541623980924955 4.989655344623046 7.097492674631101 0.32987690646835444 0.46969426771002976 0.5447979908234036
Ni 0.3449806763317624 0.24269757599992822 9.390756459366937 0.6149474552552957 1.505554707506594 -0.13450057701445223
Ni 1.5405028383948118 1.1639415358343153 11.536633386980657 0.5486798423763132 0.14968319829216156 -1.6596334637632901
Ni 4.145073050547626 6.9825042650994575 1.3703242086114449 -0.1899836976834212 -0.48250736031429803 0.7702366868803251
Ni 5.658951260165838 7.993476858672589 8.095760867694827 -0.5600317770540225 -0.33402975229446347 -0.471424105916943
Ni 5.389015689368009 2.683090149783732 4.735749072515289 0.6843865238837246 0.4781390560432733 0.8864744610298475
Ni 0.7678415722514831 7.581721976845279 6.662369001737312 -0.9307244319871585 -0.35692491172508206 0.9226856208430818
Ni 5.170084910830604 4.024635224675598 7.1722760773292755 0.9246813111168719 1.6992575059128154 0.2269530758189188
Ni 8.277297218811938 7.456368135898801 8.9476135936761 -1.1726593259268903 -1.554359130603807 0.7234179267545734
Ni 4.475563749730186 0.289785003937627 10.68943588192848 0.36769937663276675 0.43350187694987274 -0.9747003233474761
Ni 8.115132329683206 6.725063187328188 4.669676376010031 -0.01251895840261715 1.7982866294935351 0.6886730670742204
Ni 7.321682044524484 6.099093630149497 6.77677221465011 -0.6714430763491791 0.12226906794526685 1.4207802940726757
Ni 2.2949793922146835 5.25528372291572 2.411922394800882 0.15470661964868193 0.3362506712051822 1.475914516042658
Ni 2.2182768353876288 5.301935888150894 11.614436367884453 0.5427673335466201 0.005244793338707096 -0.7104086589790991
Ni 0.9462465762435378 3.2231521163637997 3.6302599554756325 0.2824529086584361 0.5661561447842056 0.5834455279922727
Ni 3.935020177237094 2.655266049676584 2.6729809690622424 -0.7285858441087582 -0.14612761973041932 -0.14025522011004232
Ni 1.0574521076319392 3.301017796905327 8.382832522092285 0.10284386934111965 -0.08751083852847509 -1.6455757001186435
Ni 3.4741233184733162 2.5357641749185458 7.3386936375390475 -0.42041007676292114 0.41379051456387445 -1.1708646959203124
Ni 4.081982675941508 6.868154664920373 5.821209744405969 0.9480130438642771 0.7998555381880225 0.6479527065367228
Ni 0.6105754330795656 7.663985718932156 11.17903372703727 -0.3838433333824809 -0.5359017167750384 0.9980243427853973
P 0.20858988176342186 5.8224610110894295 7.9008013419603795 0.0007263366430632652 -0.8283909266235541 0.3326166739970207
P 8.515610363622546 1.6746709762400274 7.965105726943478 0.04555120626723768 1.0531683349473926 1.9782401966344643
P 1.959499982725519 3.4146131840508094 10.294464511824847 0.026516558233289817 -0.6062676680931107 1.7908769672930256
P 3.898299998095034 5.835527979069207 3.737627178606275 0.5839196394152137 1.1333399595019773 0.3691885595837835
P 6.985448422001716 4.033413173958259 10.48281331488524 0.12388192095834147 1.0163110569097271 -0.38227393201283194
P 6.202802465721962 7.844033635170903 10.261520849993214 0.4083364334278387 -0.247871828249457 -0.15682186621947183
P 2.4176889440915406 8.550340510784375 5.7481546708522675 0.5653156511607813 0.16129275750663188 -0.3007051700004047
P 7.250395282492942 3.9901322501142515 1.5417432007934486 -1.4302452961403174 0.9590888420624644 -0.8652098952241163
Ni 5.629009911422189 2.895632834795557 0.37660219362858366 -0.6185521418874186 0.7264754826339747 -0.6838609903975577
Ni 1.3934585575542242 1.129856558857857 6.982903180185906 0.41742656865456496 -0.3639735910417473 -0.11298712842270864
Ni 6.8517982376856015 0.7325189589475941 9.432344492992145 -0.15792358392408287 0.5627584319565663 -0.8385766089073042
Ni 2.758811320976701 1.4916516423869637 9.22252969656692 -0.14759186298077162 -0.196677564763829 1.3222368518791228
Ni 6.303576231296187 2.186781626056676 2.493649100860217 1.3828408387144246 -1.0966757713117243 0.7727363133737272
Ni 4.049169865527754 6.832988346365615 10.509705098640007 0.2122741336505054 0.33618536518488557 -0.5195417873597762
Ni 8.126963478716357 7.554842914756139 0.26868793887597875 0.6693262871164924 -0.7433138943475521 -0.6183755071002383
Ni 7.660923432277645 3.899608512273816 8.137202602165324 0.25128573902701234 -0.2170137052180198 0.2848877433521739
Ni 2.9985329359103026 8.250736198363475 12.363058229444679 -0.025403527674769152 -0.08354799722598513 0.6906008802245526
Ni 9.232294483626077 5.142696982116381 10.084769662532675 -0.6788056873618373 0.21645911826613043 0.049047649456270374
Ni 8.612676672356889 2.3482195628638616 5.943126918252342 0.3424308318739651 0.5853442876768823 -1.4792644063514977
Ni 3.786658295313705 2.659891283822416 11.586800366690504 -0.5947684092042596 0.01632676218448156 -1.0007543401220507
Ni 1.3177282994572364 3.3072423261585593 12.787847366397298 -0.36753122648601866 -0.11895440174973707 0.24572984220578972
Ni 3.0717006870738435 8.33727078533943 8.00451199491365 0.4276104511661023 0.014946594007503292 -0.4564248042946333
Ni 5.558177494591614 7.89581990117699 3.6328533578827455 -0.19555913488866963 -0.42939196854655726 0.2177834935045088
Ni 3.067738796921421 8.020274138625556 3.600920159778062 -0.08501558291044714 0.30131349300836496 0.3893735191720907
Ni 3.576687204139347 4.505087100888947 9.426944145933467 -0.08732494776991412 0.7412791233057104 -0.3297424377730192
Ni 7.013926779198256 6.249809020213888 11.44430771607319 1.3502891300306485 -0.7774694571833384 0.038328977487185605
Ni 0.8859449724809482 9.379502328739013 0.22065365553946714 0.29026006340768074 -1.9490244943024562 1.489462429930422
Ni 4.54774102835562 0.3160061741757682 1.6141994473722767 0.6290245021736521 -0.6813109702821943 0.02473864039726062
Ni 6.237541699787811 5.7632780052116175 0.4777003616762988 -0.8263947221291316 -0.24192100998266075 -0.7638909471679554
Ni 7.714145429118785 9.107258684320275 11.53600911667453 0.982234169830676 -1.9031228466743353 -0.18076449307799836
Ni 0.1469852159644622 4.809425690303912 5.935160429498607 -0.11083022998070591 -0.6740373194389165 -0.6042722349296368
Ni 7.840971348516392 8.764646055175946 2.9487476061692686 -1.0295884907449238 0.9738937682857807 -0.7900616920260523
P 8.37662616664709 1.7738727074189111 3.7190344642923496 -0.13042974937918828 -1.311700471124173 -0.40808935041403915
P 2.143364398652379 3.164368934262838 1.70177721092965 -1.817770963470392 -0.4936075839925177 -1.0550015315013894
P 4.914370344823004 1.1179345407845132 8.354265113236357 -0.816688036364329 -0.019603376053224306 0.5146646617731331
P 8.670651120000132 1.5994132371520442 12.604551790662047 -0.48708006728664505 2.3098328002423445 -0.8219755100155135
P 6.321222998901701 7.769439240076329 1.5059535206229668 0.18664692000070437 0.2729799361709944 -0.10753664683109868
P 1.7864035480615492 3.169748381442274 5.856080738580099 0.2896782227622817 -0.1179987227046871 0.5336039218797971
P 7.013781388733946 3.957719263477348 5.92251236779412 -0.7288172433932739 0.03691769896195578 0.9388997687090991
P 2.300922227443317 8.508986010592464 10.128791169054256 0.8882935165164574 1.2019562751187944 0.8712057077962351
