# total energy = -340857.1805620454 ev
CRYSTAL
PRIMVEC
9.37564862508366 0.00000000000000 0.00000000000000
0.00000000000000 9.37564862508366 0.00000000000000
0.00000000000000 0.00000000000000 13.72220946789475
PRIMCOORD
 96 1
Ni 4.701915852052915 8.813409615170807 1.098933824708726 0.44584060102088374 -0.8582789724322379 0.498714823312096
Ni 1.5378501216320368 6.534770753885359 2.8391254421098115 0.2803147792695108 -0.8400357099513338 0.997475926481095
Ni 0.1617411874842927 7.797839369141628 12.130117466202167 0.3113559648460315 -0.1467076606036054 4.0486966076928725
Ni 6.222327267466207 3.5538489413553047 6.0593438065550425 2.118168115312075 -1.1903575145376015 -0.24793327761501172
Ni 8.473636113360454 0.5402436181378637 0.36360452517960157 -0.9251806193507938 0.4064929524611967 0.7262541106517879
Ni 2.1787413264678626 1.924183093916734 4.6752936981238165 0.855821512030681 0.26521289063106585 -0.025448779090407787
Ni 5.848332648613697 7.159123314758893 11.807796734083313 -0.5595342685923138 -1.610745994033968 -0.8190477948457571
Ni 4.57455704276506 2.250774433929478 6.679285124807115 -0.4530417467550133 -0.08436483670032568 -0.5413956500100741
Ni 2.004635533735571 8.946412564858491 7.713281332842582 0.07713977970679618 -1.6105940418371358 0.7603294550689421
Ni 7.767143495937238 7.120898795805228 5.040592402988218 0.14336316961140472 -1.107348677644538 1.0621584542611449
Ni 8.148676136187529 6.198925648798475 7.494549328357616 0.46183363401503047 0.8057315373528253 -0.14602323294207112
Ni 7.812540385996999 3.4527606991776216 2.3270256456533582 2.442853450277161 -0.6390489762891897 1.2762472725228857
Ni 8.265524843501613 4.796741161029457 5.37633437594155 -0.3085478059732751 -0.13936150465117936 0.6452828730140435
Ni 0.7704354777901257 1.4613073272396604 8.319884853531867 -0.39276814667593646 0.5145008825017591 -1.5246322929633356
Ni 1.651370473726953 4.169810296817131 1.833630267963783 -1.3763560023210295 0.07309774842693863 0.676987403206176
Ni 4.914339920223918 2.5359441588484546 12.157424980036957 -1.130626417225556 0.6030309063233679 2.762872233004513
Ni 4.569944223700747 3.3091351397341118 0.9160524249760341 0.14883961934494366 0.8974103912160608 -1.6946588307985393
Ni 4.329224448342557 0.9061517401550702 8.514823337241605 0.6945439240327006 -0.33883180166879706 -0.2546482277413421
Ni 3.0525986453484912 4.106168394767223 11.139401126794096 1.0767980585511907 -1.1980451129898464 -0.37790074264580076
Ni 7.505750415626182 5.186805641419025 9.703784014022167 0.4689831005756181 0.27240735149697604 -0.4586405809990295
Ni 4.724436159761206 5.473672358717352 9.516557938772396 -0.8085520375207558 0.864465560858924 0.07823609809476849
Ni 0.917609720192665 4.748297185205669 11.241275048316473 -1.2539020720584662 -0.8401208134659726 0.44975510558394155
Ni 8.331388774247134 8.706142820628527 8.419151407205087 0.6574207939281581 0.26775571165757756 -0.7938998348252199
Ni 3.8559323361767612 9.167649742623913 5.886855313189812 -0.0668967618225493 -0.6798521263484807 -0.6632507703463738
P 3.85565106672162 6.7990421582873575 5.788974480365587 -0.5009028321023503 -0.18020373547852192 -0.25561444830935337
P 7.863393903486495 6.960556455077836 0.7186209563288972 -0.8306362710143049 0.3799290859297393 0.35640426333492164
P 6.630289860851249 4.234380388069004 3.9956876279175306 0.8263510133753897 -1.0943597215840377 -0.7708465525501821
P 6.302104660592707 0.9698733352172685 0.8238747991372188 -0.7070592828908919 1.0790770843933546 -0.6386028898907067
P 2.1746722950168222 7.1808841949383035 0.5566725670126507 0.20387588228448117 -0.3152193044561797 0.10066665918414275
P 8.513088842268235 5.903677101736945 11.41756442958551 0.39112855418998443 0.356464941369528 0.541339342850842
P 4.008014730571511 7.214317757506065 10.66492862048156 -0.6997617207882143 0.22764495967962084 0.42878878774491963
P 0.9269497412330479 5.660472779525009 7.125640998818906 -0.17318436673789528 -1.615207115129115 -0.283742316893821
Ni 1.1801972581232192 3.7066063824423927 9.01472260229889 -1.387451855123875 -1.5354550946104524 1.4874351150877478
Ni 8.437342977998757 6.0062841989723905 3.047785187406178 -0.4062039604658682 -0.35150811158488493 -0.48969307942945983
Ni 3.6589780880385137 5.585617601863479 1.983092168601469 0.3109957532931354 0.3132611522885444 -0.19631555343871995
Ni 3.770801447754079 7.430388952945398 7.817117577596993 0.5849588793130054 -0.6824106311042764 0.4614040026767796
Ni 5.076032354335987 5.536039172570622 4.466798964241133 -1.003544501272678 1.7267940207701875 -1.3710196777097807
Ni 7.088224660766345 9.291370800291944 2.4401794098917406 1.2091399373514273 -1.4818979873196025 -0.15747621197401912
Ni 6.051474824765047 8.446606118721402 4.40181071906595 -1.8922864181804635 0.00883662445502349 0.7969231950325759
Ni 0.2778914089847773 5.763773674749801 0.9614990059728699 -0.1830787430334718 2.239283272158557 -1.0027677710076537
Ni 3.5501830627899666 4.86808984615023 6.979514016354342 0.34249408101173273 -0.23737272849034602 0.2778385498148763
Ni 3.848684959882627 3.432153023764289 8.883565717801782 -0.1426797703911349 -1.9796306492240874 0.01682581330808715
Ni 2.825623570698192 8.357415574496184 12.403010716969087 1.315283046269109 -1.2082104835586223 0.12445861939741792
Ni 7.083358699192407 1.5019226365620237 4.161712549203621 -2.1450870511901057 1.1144014707262615 -0.026355607175393325
Ni 1.9018315478815273 1.5438599123235501 1.4404886997349724 -1.3266555497721086 0.6423423023284809 1.7242401440000819
Ni 2.4963882978071226 5.358023734411869 9.011320179456535 -0.6693342575362925 2.9869616141223916 0.2463764746508531
Ni 7.769365524632852 0.026575275686574133 5.677083615980788 1.5587433757144316 -0.12935142871334498 1.079815505221276
Ni 6.2419504997865465 5.058378008201635 1.8321067250817693 0.05281123026376066 0.15234506139504086 0.9310550758536997
Ni 1.4955659468758367 3.4773155226114327 6.796541672831154 -0.08052695101147421 -0.48954884054211173 -1.1796900075214263
Ni 1.756621503840723 9.007091761980915 3.9051760548180003 0.9917570217194467 0.5184467545233846 0.7008919777379155
Ni 4.425699871455928 3.3083007070171933 4.47512829037271 -0.28649648260019045 -1.1273395189441682 -0.6951825860579641
Ni 7.919638418866194 7.861640657216116 10.749004748447463 -2.351608084406918 0.9375964765166432 -2.041692965772471
Ni 2.514492675069699 4.863898931268629 4.973134611996897 -0.7606341307935546 0.7864845161977552 -1.5476040712681605
Ni 5.468168853045094 6.687003158656184 0.43443379937321347 0.6264639405353275 0.7199865324755212 -0.5480545500874884
Ni 5.80751107502423 4.212319487137444 10.998789838344848 0.82251235635559 0.48567367385742166 1.5034140070145074
Ni 3.4483728956774216 5.911946423718092 12.617104588138778 0.19980454042858495 0.24774841529771524 0.6236064164818744
P 6.039530248570058 4.063321681100741 8.461814358160877 0.3750316486281218 -1.1174366580081594 -0.526551643018706
P 0.9955532364716437 7.265311909723132 8.6850466739281 0.11865409690049888 0.774557425742866 0.995724491007627
P 0.0874691751597547 3.8301774297343485 0.29400627363465687 -0.3023180230134793 -1.916612653630654 -1.1738309776374882
P 5.70243818223205 4.700753271638332 13.276292371031527 -0.4446738344062922 -0.27469743308273337 -0.671730782792927
P 0.5132173737582134 4.574960195650762 4.095324519706685 1.2631904393389277 -0.3920549226589957 -1.359063019568537
P 8.368600723162292 1.7952585513285946 6.673809746080369 1.1470269700707665 0.4302741140411944 0.01029341150620808
P 5.037460936387648 0.9914185754810707 4.420115735206528 0.3060327528609052 1.338780358060101 1.8967400830764432
P 9.264940847157193 8.037602828352338 3.862485914481547 -0.2769286364060973 -0.4822962727447564 -0.5925981410258181
Ni 8.300317875102557 3.8015066966069737 7.7419192512001915 0.712015855565219 -0.06600844568032503 -0.20401549318613896
Ni 1.5887411417155521 6.948574376288828 10.850315193494707 2.0939359822375874 -0.9133427461756012 -2.390216026587103
Ni 0.8031039874399049 0.08405550153919318 6.035754674917215 -1.657671197830597 3.138123196732292 -1.2806096632566397
Ni 7.206451588410621 2.0302966836929364 11.82452382858055 0.5109604734486685 -0.7591264358997765 0.17500239378324053
Ni 5.734109122880929 5.560556493410414 6.696355368039623 0.8141285031672689 2.6880958113235707 1.551441956957012
Ni 7.236472414922673 3.052851787858118 0.14250610701204874 -0.6000988202782375 0.18908124047380984 -0.11243279858113538
Ni 1.2728849192406904 0.10954507712892296 13.429322643490101 0.36868462336417146 1.0192796526197478 -0.4680557036653423
Ni 0.7292520041683774 0.09273641448969555 10.262167636886925 0.6863701299726566 -0.40628366466386806 0.047651283329375994
Ni 0.8278153842037445 2.2737353971174903 11.991578196072457 0.5414247034757966 0.13419075908351727 0.40826187143616144
Ni 9.098363700174176 2.050735597433184 4.376533970697277 2.873982456119483 2.676038365938404 4.1449787646560745
Ni 8.780116687330615 2.091866567423306 10.100396447327418 -0.31917340400792127 0.6557295222686642 -0.3271399671531656
Ni 1.0288274130148265 7.323290920076202 5.625008451491129 0.7408546341737821 -2.0840750302831075 -0.11129045744657606
Ni 3.0587021925250513 8.904690929012572 9.650967235735786 -0.8749744308100479 -1.5750783654290292 1.959431034347761
Ni 6.0876367010476775 7.0409057627631215 8.678474344326304 1.1922932981077337 1.8973149817433068 0.4127145078908763
Ni 2.5500638854965336 3.267779154179877 13.443429244230275 -0.8010109919487044 0.5619667892932064 -0.7694375880177974
Ni 0.9046281972730563 8.531952647059693 1.8478737531721243 -0.9436843345819359 0.6251349373112588 -1.3687038850924105
Ni 3.7653260690273336 0.5808326756444139 2.918810016316113 -1.4856620823477251 0.5625545434758763 -1.0061446578996867
Ni 3.6707539025604174 1.1748343871785305 0.08629253127241476 0.4233917850990644 -0.307290022306774 -0.999541550760872
Ni 6.251326148291247 9.130775317054926 12.83137753419491 0.3059515060010085 0.8151751992642284 -0.5308474421805826
Ni 5.661138450568844 2.0687837208047326 10.069535562709346 -0.46520820691421816 -0.38096549761405357 -0.22905958063896034
Ni 7.074976869429204 1.9270520423591722 8.387577035735806 -0.33380940875354126 -1.099620969982977 -0.9814453553807936
Ni 3.6965744385423633 7.553519344757632 3.659150599971 0.3263035872947993 -0.09645596353690485 0.3522431899786966
Ni 5.726280456379504 2.2803077267192853 2.4862860365433073 -0.5480182975329143 -0.47417467207888664 0.48704407184238707
Ni 4.2771427208989445 0.5121560503474814 11.324911458367508 0.4469063232812368 -0.2915186184051302 0.22573025915541126
P 6.730309279099397 7.995993700288477 6.8651526685885536 -0.02482785767695724 -1.1064125389835138 -0.2678870950291193
P 6.494867993849352 9.1624368820553 9.562582059717121 -0.9012644748548285 1.109517917381715 -0.03762963742731584
P 8.781551161551834 0.4332552803561726 11.895920329508696 -0.5660201334269735 0.8831315126995436 0.36205811918658937
P 2.7060090470752205 1.368188386290973 6.816781822823102 -1.7846132457715007 1.470161158498649 0.3995692287581699
P 2.794449539420062 1.941940572184637 10.49665260598949 -0.13342791277556376 0.10588111350554669 -0.03786566469752188
P 5.744159818077968 7.100197363906849 2.8179102246733745 -0.6471122129132983 -0.617389231927569 -1.7473255650646358
P 9.036418790503618 1.482805689260939 2.5371404915976545 0.053034916238792536 -1.6592148881686328 -4.139229263766807
P 3.2314578918726666 3.1360137900948133 2.584427512395963 1.0132642996636032 -1.2369083657139472 1.2714117988074556
