# total energy = -340861.85184765887 ev
CRYSTAL
PRIMVEC
9.25355634211279 0.00000000000000 0.00000000000000

0.00000000000000 9.25355634211279 0.00000000000000

0.00000000000000 0.00000000000000 13.54351507049024

PRIMCOORD
 96 1
Ni 9.285758585623004 5.709758802488644 3.8169956996454326 -1.6045799744325722 0.24792839251900528 -0.17062560487178358
Ni 1.7343847868863695 7.081496721504637 3.5243751183943233 2.073416779238313 1.214923376802424 2.6727141866611777
Ni 3.6258301833252755 7.34211387860342 7.96108147742427 -0.6768907297273117 0.9974715556057208 -0.5360256439474124
Ni 2.081013748957215 7.388946126582292 10.241592644713137 -0.4025511942046293 0.5570158730458342 -0.18069481618232752
Ni 1.9262665284571816 2.748287687261192 3.8103729294659274 0.6489960601995726 -0.5952394353034072 -0.38376748583922293
Ni 3.4612464325739993 1.7075217132087042 1.8398327613219423 -1.1263313893946278 1.4981453024164004 -1.0235335428000953
Ni 5.626300979030544 1.0900781750956428 2.4222978569611575 0.923833618404596 -1.0780738399398209 0.5884049288800769
Ni 0.8939064848658689 0.7314741859334204 13.23916465878271 1.9968999778274965 0.9277388669962732 0.3722677127297395
Ni 4.416398504571455 6.252988819797408 13.729060879519448 -0.8026688392671015 -2.0636733266983036 0.2115889346580227
Ni 4.321475524969149 6.9066600304726675 11.461470452766621 -0.6276047390079901 1.3131510875277708 -1.3349468432466236
Ni 2.5046600593639923 3.216656434830958 11.18488443371622 -0.21731735250136763 -0.015331488150747792 -0.16218210209012068
Ni 0.21544499710398718 7.894791776802606 2.132683756122681 -0.6745227437157673 0.6683351268478167 -0.53266598344656
Ni 1.0247203075843268 4.098677652100687 13.086881660301405 -0.2961520034120835 1.0457033940289153 -1.8092791239492971
Ni 6.98491735534074 0.7314519773985164 12.565767642334567 -0.3392223522389964 0.42773103590436656 -0.28744136301196305
Ni 8.44622969846965 8.615033070852693 0.02758855248453026 0.46246432562049383 -1.0908483659966697 -0.9479107139584579
Ni 6.998094419383798 4.960202242365239 9.38477533849262 -1.4083569807076584 0.06824941919570181 1.0989360281008105
Ni 6.555154444279146 2.7568379731992434 8.744830853099291 0.3873032669066233 -0.707915203133284 -2.3459133480149856
Ni 4.128797977564276 2.234770838942777 9.278309472873945 -0.03534392671693268 -1.1144330952951453 0.7358006166896424
Ni 2.4707827900791375 1.2552356463319396 6.171238277460056 2.1728608788692645 -0.8103890907294946 -0.40408305746812345
Ni 9.204678926110878 2.374582819719851 5.042602384348535 -1.5324998686368703 0.7407394487521565 -1.8258239156818556
Ni 1.8813405130575727 4.9231972710814 4.706615011919203 1.501029308832415 -0.4239877668118505 0.8202857810179163
Ni 6.887079505532282 6.48306924140315 3.3862981794066265 0.182691277787066 -2.868944379474943 -0.4606213588744841
Ni 4.100398813555749 8.943053131385204 9.679983214060048 1.255473016090012 -0.4822895878765371 1.5207496700794778
Ni 6.633282219360279 4.322650726607821 7.282144356873195 0.01915934653727023 1.6980604002809208 -3.10907050234071
P 8.907463954201496 5.000048055405552 7.229731289144064 -0.03333923758207807 -0.8505224684152707 0.09300965685951723
P 5.626356500367805 3.319463444324193 10.503090740363112 0.34866832814324467 1.2463342870135374 0.5219293137553462
P -0.2631063637192758 8.519656666996097 11.120011452550308 0.7275090661048116 0.4371546432111117 1.0537355203047725
P 1.327598455894235 7.934147151363788 8.275128668079663 -0.10891321546365114 -1.455099636179836 -1.2808911990528005
P 3.3504258434028933 4.299220722284071 2.8645752774411726 -0.43141825494796665 -0.6484209044223929 1.0686941984971337
P 8.234397289710053 4.922854889501631 11.969487912629425 0.6766212781160089 -3.6427011636933844 -0.16478637248218717
P -0.2926039248499316 3.356597965394972 3.063733090259918 2.2370975773611472 2.012724860674895 0.6173013001994531
P 2.255831932876765 3.4425449954735647 6.350933085502282 -0.17879399961518885 0.8447174316977194 -0.0400583014734665
Ni 6.930932108411529 3.184722412350206 2.8935990564938763 -0.7159393589893411 0.766511672620254 2.575465037799016
Ni 8.01986284253713 3.4460798539457893 0.20789687130348022 1.100390758269466 0.9784698176922374 -0.00299302119005291
Ni 6.7462496335721065 2.626418351975332 5.438859093729296 -0.3987264211419004 -0.038985123013945765 0.4492280294358779
Ni 4.510211057428558 4.289439713370087 8.324751788611474 -0.5500846931436397 1.3882488971038736 0.5700151135189795
Ni 5.9350273748651805 3.1363633275966825 0.9999513136769872 -2.8945574520573567 -0.6775507319088138 -2.2064250879779546
Ni 2.276337813438152 5.9742624531956325 12.23959921839968 0.4782352153015055 -0.08890977575853075 1.1208143162311406
Ni 7.35009969761266 7.419778975874053 5.562795673472474 -0.5198318077963692 -0.8420411704171369 0.9867377141279845
Ni 2.1185369193888146 0.6051927550466264 8.624645665043653 -0.5720303441767955 1.1871482635716846 0.2733686869689808
Ni 3.468862109334839 0.19429506903038335 3.643232421133824 0.09964438856721548 0.16339154901718958 1.6591758074005811
Ni 4.650337659116772 0.5824299321256176 0.16313279313754642 0.384477367422054 -0.809326196682619 0.1073031906640539
Ni 8.81784326230753 2.1726887303298055 11.875617062368198 0.44327643983813336 0.3230822521440242 -1.3090460642204618
Ni 3.889343703517792 4.0936992388597 0.8053777126046825 -0.907755996116443 -1.4084392560088197 -0.8032964455487713
Ni 8.660995484547824 8.92455527252139 8.944936230073942 1.3314234034743972 2.0906210589317418 1.672313887444436
Ni 8.447895338587454 1.2367007732432853 2.7240609517477594 1.056614127404148 -0.8941304349132084 -0.1516259238408292
Ni 5.311735589227391 6.468346833473021 9.217959629983486 -0.19656623599694537 0.5198446633121757 0.9650175488420735
Ni 4.931414428995891 8.412000794048815 6.246811145671604 0.09245558412826013 1.3190954780366637 -0.114695369363067
Ni 0.23189874540100977 9.067772561983748 6.666496934020496 -0.39234905686064686 0.14535757433361418 -0.5666996759925014
Ni 4.292891289836422 4.487863719181378 11.786135173817382 0.9060618962434718 0.9692385289019567 0.4444514339828409
Ni 0.06382455324731688 5.204986564788691 1.671567945910323 0.8168608144967674 -1.4496753798404711 0.8532614646129886
Ni 4.345321939322351 3.0589943441247707 6.207195746180921 0.5812423496933666 0.37643161429944205 1.5065975469488118
Ni 6.590262436539931 9.306671622657632 8.071745681495427 -2.3788080418604776 -1.2494975152328673 0.3313771451629648
Ni 0.6166958507712925 2.109894097888663 7.049142587571951 -0.4707234803054926 0.888109168419793 3.516725593430808
Ni 1.1545662083232175 0.4260133700852979 4.3811785442805276 -0.7033854335837305 -0.7356674335458878 -1.2520395649284308
Ni 2.7530625222655583 8.275899489311957 1.77359117919257 -0.7647165283930443 0.970118874624381 -1.147132128190063
P 5.2962173754632005 1.0042051734667299 4.88727218980727 0.9831641378441133 -1.048338260548601 0.07250639469984287
P 3.2255028345677292 7.702040200948053 5.1677854181131995 -1.1851651717033846 0.03916252913207449 -1.0962325131267183
P 1.2067007440104258 7.150185869251558 0.2029092045062837 0.1701072704744683 0.379476828883669 0.6449414305142247
P 6.434117929052186 5.159403546898171 1.4707990889554152 0.30897383776710013 0.71889612762482 -0.18633298830471134
P 3.018075118564097 5.368746749037276 10.076144611811847 1.0276442225343592 -0.23854977951758266 -0.8576547085846777
P 1.0650473055475598 2.253786896954352 10.028878372046725 -1.4064998728942615 -1.508521503444402 -0.44320830560435925
P 4.233270627175314 0.6726123148815331 7.7992636146241665 0.09975417467220239 0.022220501961097216 -1.2699876647664192
P 6.109160795625189 7.056030934814684 7.372737597524834 0.6791319603530046 -0.6139778922531748 0.548291605798959
Ni 6.001208808879188 7.650460878633445 13.205509474846895 2.37943744791436 1.2018020089291173 -1.45305586627693
Ni 0.7933795516227807 6.705441450685953 6.072289075550775 0.09849279146127553 -0.12025692261124449 -0.16827690213394889
Ni 2.2030681553672755 5.671014162637324 7.469180936412443 -0.1685324697881807 -1.8556317430719074 0.6529231631681207
Ni 7.902555510462807 4.799819606133309 5.284584729951594 0.01882561734693532 -0.23853229601608594 0.10659819417722934
Ni 6.315626141782981 5.864580051438358 11.612141481756144 0.24141347421862294 -1.2016086619713886 0.4161962957918897
Ni 1.16415289255679 2.968272479041811 1.411356094573539 0.19607978327883005 -0.36865891233255865 1.0230506896264058
Ni 4.206148453923769 5.7997218759623825 5.314177602711213 0.04246099737768816 -0.664280754272785 2.120498048996832
Ni 2.96742115187049 8.30145781156401 12.900712138979031 -0.505085245614814 -0.6559789192753089 0.17939589486524588
Ni 8.953796510145027 4.019328407599833 9.2679353110069 -0.5200516371166592 -2.961128712219687 -2.5652883543763303
Ni 8.538570935889362 6.9683072219437685 7.88905642266364 -1.3828812050340573 -0.7891672052362408 0.41838764701625364
Ni 5.698127082332659 8.276093813992366 3.933700625210485 -0.8663512079174113 0.8677321474253379 -0.47951305357266455
Ni 7.526278154295082 0.47643137109554917 4.754586372667528 0.3678482435058052 -0.5220419280738107 0.6104796492919292
Ni 8.346365319851198 6.392976618142472 10.590527592991517 4.68942528567733 -1.083518665104476 -0.7091382769071077
Ni 2.2046875277040274 3.5344050479703553 8.718136194144648 -0.37062040693430365 0.536384827059044 -0.5929395835256369
Ni 8.486084765066174 6.20087279122262 13.532653223606319 -1.526878408685035 1.6744355617731292 -0.17366156348462997
Ni 2.5613658518189464 5.866282705781 1.7099905620055356 -2.6624752825419886 -0.3715465182929988 -2.433024894222513
Ni 4.68753695508102 2.1233857828428606 11.971492232904513 -0.49724029564909855 -0.7140287722301896 0.2339099667527262
Ni 4.059979280030416 6.549102618517797 3.164699567422981 1.8390208739881038 0.82758694266502 0.08759285671932011
Ni 7.097894023108778 8.060680278979495 1.754400228968626 -1.0638471548174775 0.982623691959611 0.8448457297454677
Ni 6.662912106344737 1.3074812246936685 10.296728108679254 -0.19781013570637548 -1.9957411816327046 1.7868498484115034
Ni 7.069383816425731 7.881596205647129 10.410086948318765 -4.491580182967962 4.307499995253169 -0.6460935418407969
Ni 4.378856827027436 2.6343486496473125 4.001512535828696 0.19202721047601123 1.1902143040915178 -1.6278654273230737
Ni 0.932851001531326 5.058123374179588 10.516620364897772 1.835012524159659 0.541729379200409 1.7160149278768124
Ni 2.422581015781184 0.5045131381260731 11.222237338713557 -0.5898102938680359 1.519740254978357 -0.4044453259035486
P 4.827987431236585 7.911661009773459 1.398449234371814 0.6349439529818807 1.226532678906578 1.9633010588261284
P 5.361288382732006 8.91696735642918 11.545954495608411 -0.9109701321783666 0.9316490006839567 -0.46274097632064826
P 7.759699109692638 1.5334530673421654 7.297462693823248 1.2661099269785678 0.9693868815543628 -1.4231210263907104
P 9.140792374036954 7.896438909807989 4.603359204949782 -0.2802458737047883 1.0743619383058722 -1.5376492740482937
P 1.3903005527732772 0.9468331249646544 2.0299294918998427 0.20317628511429522 -1.8619448297741286 1.1999150763190496
P 2.6201722015335736 2.4069147451176334 13.158309860686488 0.45338370347546436 -0.6005235665204819 0.5297400680490167
P 5.8276028408231495 4.574088355946272 4.647754991578557 0.2519236297213274 -0.7383411237233091 0.1398178754623076
P 7.299057081558233 1.4885085448301363 0.9821391433283349 -0.29503614464008543 -0.8488185983502865 -0.618020951974297
