# total energy = -340883.18773074436 ev
CRYSTAL
PRIMVEC
9.09440053139476 0.00000000000000 0.00000000000000
0.00000000000000 9.09440053139476 0.00000000000000
0.00000000000000 0.00000000000000 13.31057445379326
PRIMCOORD
 96 1
Ni 6.252245631453905 2.278738422106798 11.398257499506505 0.3893079560414779 -0.1002056603873242 0.11244488276599345
Ni 4.391986041160187 0.8179221742668645 6.273580185220076 -0.07592699034561763 0.16978279725551404 -0.23344459708053344
Ni 2.76244229318454 1.8039470633658345 4.799699831286488 1.2083606359832415 0.11097703997121533 0.7616947108475849
Ni 3.958274088771493 5.178960880497643 5.207109868441311 -1.1837186690648454 -0.8280417708142512 0.9097321460062076
Ni 3.5880228619807926 2.928906197074719 2.5588650509319564 -1.5990024803447944 -1.5243075626340652 0.1735093541774818
Ni 5.439488167142201 3.991805142838533 3.2049066964639636 1.3009843702582498 0.8951326509254777 0.8866140719315054
Ni 5.466734990571778 3.091068449602352 1.0009979098247561 -0.387858625189461 -0.2430574375799492 -2.472385912518639
Ni 5.994601269718286 8.45175363776682 12.57883889515719 -1.6363559812925883 -1.0397975700674416 0.3419163541313918
Ni 2.317944381988276 5.658272156209402 11.540774028411782 -0.04457495839689742 -0.8214350641310112 -1.5583199150237679
Ni 0.6591221215462792 8.840075438040355 12.955088788414562 1.2095603127182977 -0.3671828420076644 -0.21820823974675324
Ni 8.2520497006206 0.31157233689339886 7.022818719771588 -1.309936437245215 0.8088086336162521 -0.31083994444156143
Ni 8.962667954672765 2.8941019269595687 1.4787385825971657 -0.48709112303023855 -1.7496457285573803 0.09788678244616045
Ni 0.2755639681727489 0.011898203969598006 4.846673318501478 0.7877284159071852 0.720243899901966 0.7566183247659422
Ni 2.2863231519934026 6.54009249673079 0.48391486116571414 -1.119865064943994 0.08527089345436283 -0.3599829818251155
Ni 7.927161342744027 4.2103435830964555 3.673359258165403 0.5104462528164112 0.41720031157637183 0.08733163263813347
Ni 7.364327094276182 3.860063659460411 12.706207790850085 1.3292006847914657 -0.4372276625408921 -0.8008251011901434
Ni 8.099300152448643 7.605437836187045 8.577387321874147 -0.7846590329532421 0.7012272495901472 1.1590155098912103
Ni 7.116622912116172 1.183745337530242 0.3605784225851942 0.12511656469639099 0.2949505269048146 -0.1779527346608161
Ni 1.9899639279948627 6.823264840231037 9.271826637714959 -0.6303843586356562 1.2169170101936848 0.2664943284466507
Ni 0.25504518211740457 5.102640672813728 1.515116183971768 0.3770201398130604 2.0504300885351525 -0.32236234325886415
Ni 6.616731008426733 2.594050376421506 7.200647895771228 0.8922473589578828 -1.7213592229078614 0.8530712029790534
Ni 3.96668640908937 4.900326642768879 1.3312437789437728 0.14659658894703784 0.9203263765822859 -0.9769071011908078
Ni 6.2812567685501515 6.05607032164102 4.760287428517209 0.047940018214388404 -1.1511988420602688 -1.625558376456452
Ni 5.727062200408775 3.434227457769318 9.152017917027742 -0.513780973616599 -0.02025257960144899 0.5044764083862215
P 0.3931372852554975 5.9709649232251385 12.61151598503196 0.17653399993641855 0.9326378469597874 -0.4435340643748942
P 4.1902267695363005 6.17121452439198 12.413774619479899 -0.8521024113078808 1.300454723007025 0.28063513872340695
P 2.4041502028457393 8.686716565045376 1.2642635204127863 -0.23483710655268586 -0.5800527002606398 0.5345004655521375
P 6.972640365875497 8.365165852094925 5.435652149077249 -0.4296629628197568 -0.20246023288387713 0.4788234837048077
P 4.74888668824641 1.548530829714409 12.724136491687556 0.518435698779791 -0.3743863017346391 -0.46120037130640573
P 4.319012572802736 6.616667347624327 7.66822193839947 0.0291118297642918 0.6882650330025244 0.003030302185891555
P 4.877672491512845 1.5297508930047705 3.672347051407155 0.4663937425818871 1.1723726479244068 1.4158270638324584
P 0.4565434444514291 6.001867695592863 3.576537543786796 0.27288531957465906 -0.5531077962406796 1.2353533625220015
Ni 0.6426548908440313 7.6901794585891805 2.1314218687001407 0.7844937110199716 -0.03737766931750982 -0.7297896346088721
Ni 2.007752575067043 6.664149211818526 5.212726570093549 -0.10272148483064245 -0.44886061879413014 -0.5051562080620654
Ni 6.12579708907579 6.120476864874753 9.05297444064518 0.31247876559656507 0.7002643714562455 0.7433262356427263
Ni 8.64322714260204 2.487063850778801 10.472893170139717 -0.9140760247972 0.8949475314978651 -0.7215585049483315
Ni 2.3649351485639185 5.362440407430793 7.569404003145433 0.5081073202705895 0.6994457322096922 -2.787650725500773
Ni 0.49901611293634585 0.27122502976879326 9.240040799073865 0.17386056686931348 0.6942729297595011 -0.015810741780011482
Ni 1.538326912528833 1.8511742843504118 11.420538780348448 2.2222728536434886 -0.9367644675336513 -0.08936126147365256
Ni 4.13277744256546 7.411472465657667 1.5540229380819395 2.0819564412782077 -0.6843471860053569 0.07173660641335389
Ni 5.88317667670788 8.537795759418099 7.513259722623906 0.4105095298197575 -0.6864439206333856 0.22028054889474968
Ni 6.955215494817063 1.6090449696010596 5.11888781902766 0.44927868016815525 -1.5082206843745316 -1.3816221358159755
Ni 1.0415816713582968 8.173328571245959 7.0870151823573835 1.3589025827312726 -1.3617310533190032 0.20181308621818148
Ni 5.443307815286534 4.781362791873586 7.145036547109839 -0.3591733414396266 0.6494817415867395 -0.12181269713413859
Ni 0.15008488887126492 7.521078178599343 10.832691293175426 0.8469566054408832 -0.3177459275327754 0.40670069759662864
Ni 4.97434596716585 0.47775977101313144 10.5298486711719 -0.432492718959068 -0.005475421292274441 -0.27464241147508184
Ni 8.042723887910794 7.566186404303849 3.664054777173814 -0.6724195813298355 -1.687456142402513 1.4935797945329052
Ni 7.345774517575135 6.403885662783936 6.633018170002177 1.0755682999091476 0.5818578717901786 1.7139349054193322
Ni 2.530862482833822 5.556496721963608 2.9960237810508947 -0.9123459294799707 1.1485619186580542 -0.35713522796367525
Ni 3.8675392565428917 5.130669614672859 9.303745254601068 0.07836053948777473 -0.11691088895714705 0.9703980964276966
Ni 1.4188083032125776 3.682213566339981 3.7014445853066644 -0.935220777195615 -0.19436022948456202 0.8319498476194059
Ni 1.4766577837985386 1.2578010395285883 3.104744608839134 -0.48751612638279906 -0.9741138547163867 -2.332163345418745
Ni 1.4445545505854522 3.4688043678758773 8.331008193844207 -2.1350348091604263 -0.1737777773475201 1.8159539648663112
Ni 5.1473214617020835 3.0952427793600874 5.4629526294688535 -1.4067415565914225 -0.49533253710342434 -0.807914403936757
Ni 4.549519243912902 7.545423888319295 5.201812380241134 -1.0049925465731144 0.6281333578179504 0.89453744054364
Ni 7.9971700365894485 7.364618115087179 0.08190962613512298 0.26758679017988113 -0.3739798103248398 0.7588258739402222
P 0.283670716639079 6.123478016988159 7.885623578614437 0.7830585212353418 -0.8489080727402993 -0.06815660237157939
P 8.764864747198365 2.0944313047423764 8.131788988236302 -0.26397259046606153 -0.28335408031646686 1.130378305770492
P 2.797774038519622 3.582902714587317 10.52310062611691 -0.6069549239681225 -0.39835181141130105 0.08746712977473324
P 4.574010464038353 5.944109159010338 3.323424012302383 0.23204180319573586 1.6342651602018308 -0.3962918435584788
P 7.1913334109392615 4.304070473038118 10.343127899956272 1.0724585506355724 0.5155717469684347 0.4111355934395306
P 6.734130622462917 7.943822284173594 10.366634196524505 -1.5673910240871005 0.29731594181319765 -1.4841613294324827
P 2.518221266356148 8.658087392763564 5.434787271604568 0.2689517888482078 2.0281283397141587 0.36533370461406756
P 7.178792232865367 4.32228655692645 1.4640565826823764 -0.18641552071618864 -0.10985295366910112 1.654984652137369
Ni 1.8522201403899317 1.5236303615734936 0.682522013630492 0.7347762891901861 1.5490390039424742 -0.3200082412043908
Ni 1.643831050915523 1.5083153913947862 7.066490939661833 1.102485693125282 -1.8942810800129892 -0.12508931100288134
Ni 6.948658432169291 1.1374366509803733 9.348255978203 0.43660468424491267 -0.55667545898728 -1.4871697772415033
Ni 2.707284755100299 1.4172440663534698 9.312490429971524 0.09923404050267426 0.26170384903654287 1.4342865560892266
Ni 6.705692432588322 2.0370638273746287 2.581013553528883 -0.11411404293830024 0.9218250726149996 1.2429699985269946
Ni 3.9963887206117326 7.449205132683472 10.455416460999324 0.17627508984807708 -0.9925013560846392 0.8110393227189838
Ni 7.337871483676502 6.266023647974537 11.445310108004483 -0.3879308731882932 -2.14023332264223 0.0252546608017307
Ni 8.104274789436621 4.252714394297524 8.097834135113247 -0.4803846575443404 0.5158620245153439 -0.20241292458570947
Ni 3.469886601516772 8.874306760933855 12.573142162781927 -0.7918810046229781 -0.1872372452865356 -0.03669504142818841
Ni 0.28438735538615867 5.039334552021577 9.992367791982083 -0.033871713046780376 0.40602758278900397 0.4775299617043647
Ni 9.167519322413494 2.842118334595262 6.077142047237258 -1.260281493222249 -0.6212592564059365 -1.2554159375998315
Ni 3.4163387722933574 3.2695824339478685 12.8637118915217 -0.5994133641754386 0.2571889918853248 -0.9853560032891094
Ni 0.6695461232201716 3.876633656886542 12.267717640520837 0.9005034283190878 0.2534056135834926 0.8693552848510577
Ni 3.4732060576422046 8.617480895229166 8.25207698382163 0.26959764996232277 -0.7651240482441081 -0.7272966929836894
Ni 5.855884381276585 8.605148888363175 3.377704850193495 0.4035246138614922 0.1691233092946442 1.5422127250492599
Ni 3.557010956808944 9.011814094129852 3.1875500334081064 -2.570484553865289 -0.713767805259319 2.480000491641103
Ni 3.6087853779653467 3.054445299418471 7.995062864029825 1.0525384146728776 1.4430144228805277 -1.9276822811812544
Ni 5.086007014585192 4.352734609276992 11.311552396070175 -0.735129815874863 0.7791769267927484 0.4204473577587598
Ni 8.244965162752894 0.47856917264371635 2.713547159176937 1.246337886557963 -0.24732752571021274 -1.1742906908827262
Ni 4.672202704548749 0.7474814964051192 1.4563900031926789 1.0747370622571037 0.4511321884371262 -1.5842086098650718
Ni 5.8746279403848485 5.522538231080417 0.08297367097533011 0.6605251438850948 0.9218638962727349 0.12436760234550841
Ni 7.796547565008518 0.2531626412462689 11.454560932034044 1.2784046851855209 1.4732156290542564 0.2582554854766262
Ni 0.3446586747836339 5.091254483583477 5.873251048172819 -0.3246717081183312 0.9224133410183017 -0.39537061729579004
Ni 6.543284631251411 6.305566100668729 2.314762251308032 -0.15617343400219555 -0.696514160385194 -0.4579990907602886
P 8.855526824224217 2.1622482481049783 3.946093048951208 -0.6225928876156955 -0.11612747382390322 -0.058468428549538015
P 2.037218432180471 3.7400266693245676 1.2504154770095097 -0.523656323748782 0.20670666686505693 0.6761317400741
P 4.928009997414951 1.5119258683312156 8.36333969650592 0.3591692276745685 -2.4901702330852533 0.4236918328379864
P 9.017880059159067 1.8473000698040165 12.802735756097592 -0.9552676685441611 -0.37963058085271395 -0.027361422732088362
P 6.8197362128977 8.337073249433388 1.5611975105130453 -0.25975932371566235 0.5153766002384931 -1.5217457154441598
P 2.3782584450673663 3.522715973113038 6.105666633915118 -0.17902874133381425 0.4937040003610658 -0.24442732134428227
P 7.13702165208698 4.178040273075808 5.828687577048898 0.3117020353315406 0.9075546787389144 -0.4747038051094793
P 2.0747055503969984 8.78346279590113 10.743537067726551 0.45073906676376574 -0.24764377139905092 -0.37640487482656465
