# total energy = -340894.3986204851 ev
CRYSTAL
PRIMVEC
9.07110553589429 0.00000000000000 0.00000000000000

0.00000000000000 9.07110553589429 0.00000000000000

0.00000000000000 0.00000000000000 13.27647987318645

PRIMCOORD
 96 1
Ni 6.216537407022039 2.188667247952568 11.568154889150884 0.30425277814234697 -0.4004701433058845 -0.3620102966677895
Ni 4.494478751476734 0.4163936740575894 5.876223094237408 0.6235390535790487 -0.38125140428558857 0.1486439583943698
Ni 2.7750053609800513 1.7250611914438796 4.584089480725235 0.37464032672697417 -0.49727706242430486 0.9959476627620267
Ni 3.179286387951939 4.309273991835623 4.774049313834723 0.7859620680353819 0.305910368350428 0.017913389945311085
Ni 5.172090327378727 4.619723504200681 2.9617304378918607 0.060658494222321335 -0.5118649875408088 -0.9407836159953732
Ni 7.299418760388198 6.305905937755457 2.4586578158619616 0.017318950894421786 -1.7990656737514048 1.1800476479711612
Ni 4.7205488410969405 4.460507461627297 11.363949792068215 1.4715644666040786 -0.7311962851484117 0.7540451647221271
Ni 5.782376158751339 7.901522454659559 12.28070382763101 0.40516394923712806 0.03473277549549502 0.7733361517412551
Ni 1.8703621582818732 6.731957617768373 0.44606163148925015 -0.004427439643734311 -0.48942234226657644 -0.9225359826390951
Ni 2.5246247087973632 1.4896660054377657 0.4315614694533822 0.8753914637428084 0.43236519224226827 -0.9776169827736388
Ni 0.6684588305193271 9.087977689868408 4.762047334235313 -0.6566039544538177 -0.677389266630285 -0.3259402904181096
Ni 8.651521451922969 2.319409090569374 1.4001242165905616 0.35950372819585186 0.8156750217187824 0.2701092994914187
Ni 6.977213095380986 0.5731922670328758 4.8137326787758 0.5020706271582063 1.1484439050229514 0.28523689916147654
Ni 0.8742686061532274 7.5215519902501535 2.5986322295892506 -0.17547470543396876 -0.26287498652650854 -0.14221980003558088
Ni 7.568222827706856 3.881027104307737 4.060319317427123 0.4165835039279794 0.26565794858828445 -1.1668074951318035
Ni 7.664149767668885 3.8793852342242263 12.734201951354857 0.5589454859683792 0.10777755919731116 0.18137153053437796
Ni 8.0795882543243 -0.32043498522654223 7.110895790379417 -0.7244273418556944 -0.11535742842709809 -0.34631268342687455
Ni 6.968740682905852 0.7163524529885015 0.31764199186348696 -0.2662037937894254 -0.5582541163283095 0.283178473970551
Ni 1.9306759383109542 6.3759892983367 9.161713984607827 0.7525315562910782 0.780969499916797 0.7210411989922807
Ni 0.3628750591089393 4.984536151430271 1.3505633249426616 -1.1863838746018343 -0.8235014597417365 0.09195858988718357
Ni 6.468124516227417 1.7279820873935507 7.072818918210659 0.05599322753616809 0.6187408608594569 -0.5285457906305995
Ni 3.6215662755858538 3.846057992860586 0.3368718282725182 -0.6964825358163101 0.7327572018776283 -0.43840599911970946
Ni 6.017408500540103 5.680054089458509 4.910465132900347 0.22818591978475541 0.5665600650908436 -0.8387858967046328
Ni 5.308646748578574 2.967557716022509 9.2539988757382 0.24414270022432794 -0.2438511371258381 -0.290082657289552
P 0.30080057751516515 5.761512616253688 12.450324428136916 -0.5795217674578342 -1.135608700931496 0.3554804659690717
P 3.9117146539901526 5.909462345878341 12.972421879593043 0.7064468461178737 0.9178169798968709 -0.1949454125640707
P 2.344009928505736 8.60199321625463 1.3808998228447904 1.0375859071281035 -0.1579773199801537 0.27777787178027
P 6.3968346986234845 7.807201100359306 5.858618799922106 -0.260460463547745 -0.2664521623548056 0.27885902065959073
P 4.810289287153144 1.0021031594785128 12.815267699284755 0.3188419888104316 0.3740446021245042 -0.5450360749761387
P 4.018545062683563 6.084471183011903 8.126878648282128 0.0085561171001272 2.4257658986672546 0.5150780951614677
P 4.8117678773388475 1.1631062098223477 3.7116659374172345 0.2566382615881773 -0.6125002792663837 1.122922363713079
P 0.14169520242807326 5.6802899381997864 3.624479007540635 0.04899108518672208 -1.3158697720105144 -0.28592415503648827
Ni 1.5660447131900384 1.1776834762544026 2.5624666393353865 -0.8904678984599568 0.2436066252151998 0.5619503342329741
Ni 1.7994986826333275 6.550372229195333 4.654030424951166 0.9260753632509211 0.3271525655586559 1.3719568448120694
Ni 5.928883582612023 5.711004701198504 9.16274899773782 0.23277713869986363 -0.7341052312650905 -0.48295061849930376
Ni 8.613722155580485 2.3550131793968885 10.026570411762984 -0.0303223051326252 -0.15257440379702755 1.326824214139489
Ni 2.375151033459839 5.345538934377681 6.930003434261517 -0.7015311539838112 -0.8122271723794979 -0.2894817904807595
Ni 0.6515557326540556 -0.02942213047440579 9.145728882612453 0.0704176304916142 0.055960574526019755 -0.10385662687635018
Ni 1.3324093216380744 0.9824460740035514 11.326177709042033 0.0939121140691286 -0.06955476827068667 0.2259940543397592
Ni 3.940397489371707 6.949500868280844 1.7504775217587363 1.2617238820957302 0.5842685381142002 -0.48717288411076753
Ni 5.719758317942083 8.023247618475207 7.950593506614036 -0.8366040585619656 0.21475576242177852 0.31969353817744944
Ni 5.18601447421955 2.8466035961687313 5.1516594766102655 0.30421369737429543 0.002658520668769615 -0.6563041638252116
Ni 0.9456536703642143 7.532355676821763 7.11469295511399 0.43969335047256536 -0.9371889566655796 -0.7456111750221611
Ni 4.86639407426096 4.735552449484382 6.767380284487212 0.23346336613361082 -1.783547780621464 0.4286872291700488
Ni 8.306601738909619 6.986139063127807 9.229955003675473 -0.671424821516734 0.39379581660950247 -0.6495894708091975
Ni 4.497490358480743 0.2929041802350757 10.64331577731498 0.9125804140882801 -0.3446964879796902 -1.3124304073116624
Ni 8.054134732477165 7.239685531106878 4.579031432335369 0.5953535922837682 0.2705620707581211 0.6936705202888117
Ni 7.090366064561728 6.015213293025133 7.024558823081961 1.0829877323016703 0.2684005443304281 0.6165363970089703
Ni 2.413231534070771 5.286304615895219 2.530735912528088 -0.0396680080135833 -0.7972718366212462 0.31685658294928654
Ni 2.44752031261039 5.375482653414529 11.55078916490849 -1.7384233774789997 -0.46783638856568466 -0.4250802285450809
Ni 1.1572190623958363 3.3123050780326193 3.8030473464464056 -1.2939572882081392 1.3024221311460409 -1.1770291728598117
Ni 3.844198416246665 2.6903538050721876 2.542180019143322 -0.2808346563287228 0.33091537503519786 -0.2344144171929705
Ni 1.1089154259610559 3.360028163719639 8.374976103227139 1.3039470524309995 -0.023874749735068562 -0.8296929332644292
Ni 3.398743641710934 2.6007131411757554 6.951710589564508 0.8000362867402608 0.854538017332567 0.3901836737782119
Ni 4.251400339168224 6.937545151319147 6.052774019294709 -0.7558115125939306 1.2031083864453667 -0.5679392048265572
Ni 0.6744965582960387 7.350779359354157 11.073580078691334 0.43703457269347956 0.6092581181800024 0.8514727481436819
P 0.35243693808630977 5.485941504281444 8.06663018021217 -0.9745206032365022 0.019035676475212374 -0.5909693471731435
P 8.63283497472942 1.5634231637196816 7.943729401132309 -0.7796854909980507 0.004628499910946868 0.8026639541710949
P 1.9036259019074768 3.293419036519527 10.415279072036732 -0.48610150542345965 0.29599773722240635 0.30679688472043937
P 4.011315391652855 6.20286725113336 3.8513210482332547 -0.35715502545801714 0.4453137819831363 0.49447250309597424
P 6.9334268694522185 3.9777160171262023 10.496968912020472 -0.39380558680151534 0.13913421913172166 -0.7517584255704796
P 6.447451466943874 7.874345422780009 10.092182624475925 -0.14338219577479822 -0.41592864395279977 0.8056968274601479
P 2.4911704719576506 8.569636583172402 5.723012123461174 0.004687378173340315 -0.7258067387017242 1.0490733389424125
P 6.978528405668881 4.088165796887684 1.8049105041351097 0.8556227657563135 -0.054542354022254456 -0.4684313418372061
Ni 5.595157613703934 2.7868703668874115 0.6992851681148791 0.11284134687346373 0.018914063295683552 -0.6981216140816299
Ni 1.4138315640115187 1.0791894134546192 6.86632971677977 0.12661731761163356 0.2699452631097286 0.7140560259236992
Ni 6.659552054196087 0.8635329528723705 9.328094386252797 0.31848460547101276 -0.3518827213154843 0.18770647161347026
Ni 2.7746969433953037 1.5855657320834935 9.244187568101044 -0.1147899859594023 -0.12932237524762244 -0.15333673588434882
Ni 6.558499939663984 1.9298686099273492 2.6789015344620637 0.5456060885469958 0.003136745856768791 0.6378873518809208
Ni 4.176990061295077 6.682402168783733 10.502730878191999 0.10028922124006599 1.5133438645337098 0.08741545060119138
Ni 8.23081265301054 7.131095327959318 0.47378202258428226 -0.2206692996927361 0.319060789689457 -1.0958645882643385
Ni 7.8788265488642875 3.659982407097834 8.09964809688052 -1.37736875985626 0.9615840976804924 -0.06662216800492397
Ni 3.424478367826515 8.374136118863973 12.554185864021857 -1.2128374408076725 -0.5848570636278186 0.4799416564696509
Ni 0.025395466772359012 4.883583819057939 10.371586278493934 0.24709664064632933 -0.608325579063404 0.14888204254710488
Ni 8.639810654807983 2.3837232280947442 5.746671380653511 -0.39750360447839284 -0.0912898459549331 0.7492395158033677
Ni 3.4147360005906555 2.175314580754071 11.5293350934471 0.6962043424542591 1.3198105018258175 0.47855506053476937
Ni 1.1591965633803964 3.397682322375183 12.54943351188511 -0.13841739557035518 0.30887716428823575 0.13592753926896592
Ni 3.04779164358413 8.466652323182908 8.09492205094953 0.7526362001897425 -0.37013575398840126 -0.28023327529929803
Ni 5.703829456800398 8.07156032601542 3.6684774973365517 -1.3510697169504151 -0.7606955801591093 -0.5716439073716543
Ni 3.1125593363811883 8.553308593391632 3.6070996766400905 0.6059797045390467 -0.7332179435641308 -0.11400605660552623
Ni 3.5053472727684998 4.459037942547027 9.308405551908816 -0.8645984868923626 -1.3456364617499856 0.1009872757483551
Ni 6.8902665497983815 5.972878443965768 11.344367089657812 0.9920334153092851 0.33416293543821807 0.5334565976686555
Ni 0.5116529806596937 0.05893950755586608 0.4071220971937417 -0.8442698026373394 0.024122861190132648 -0.5941186914354025
Ni 4.579429653863911 0.355893029256573 1.6306972029480877 0.1460196333976453 -0.13272008807526176 -0.1813584179082554
Ni 5.976134970816488 5.611630741171646 0.4624767038821852 -0.5954932031854261 0.27652445898914313 -0.2728873764571881
Ni 8.038396364549588 9.097230217410846 11.37584563973405 -0.48367438403920565 -0.5392716616885358 -0.46508427974184424
Ni 0.049022067985134504 4.859536318553036 5.957302448825455 0.05986710866927755 0.10511492476348348 -0.5512761423485796
Ni 7.938741200254283 8.744763344676604 2.516755524833575 -0.2219155133950114 1.2054300926000077 -0.061171686413314004
P 8.762923697754996 1.6078534381342457 3.715701672224715 -1.5697839497993094 -0.14591164706487128 -1.3458184958538049
P 1.928208597632971 3.2687819141614307 1.5838975557942248 -0.9611524094597124 0.040849944136826424 0.05552425831954954
P 4.575456509683924 1.1034455493844977 8.076746276991903 0.9857388405498249 -0.15559056491553205 0.6678525307844434
P 8.634250067177087 1.803199693650302 12.452673844444261 -0.4321242798760558 -0.23798979324905467 0.40396735782586557
P 6.180915175983657 7.828645193604718 1.413002464974873 0.4797408533127545 -0.06526513975639728 -0.7059465094426874
P 1.6327989780770902 3.164364419513401 5.901395411816096 0.4172293650420944 0.6515465945355683 0.8464434132498906
P 6.877004593654221 3.9355081635429094 6.138925028930774 -0.281209008949006 -0.07961678049237902 0.18341324355475508
P 2.5472843301708994 8.353998264801023 10.331411259638346 -0.5638609209921257 0.18591441271005402 0.009422578865480546
