# total energy = -381167.1925269202 ev
CRYSTAL
PRIMVEC
9.24145310624161 0.00000000000000 0.00000000000000
0.00000000000000 9.24145310624161 0.00000000000000
0.00000000000000 0.00000000000000 13.52580076137571
PRIMCOORD
 96 1
Ni 4.9174602446189475 1.2888961901729907 10.234932155941912 -1.4408009601689766 2.2277094512780278 -2.042396676707715
Ni 2.6736909367665844 7.485105509714873 7.9815203161661366 -0.2864987965930356 -0.814424694251449 -0.9246088060077237
Ni 8.696428944506295 3.1862126714230596 10.446570668092653 1.3457935561531404 -0.8210100607784506 -0.5815318559093275
Ni 8.728700097924502 4.173892946787036 8.283159489516548 1.1771829248288563 -0.5399383487382573 -0.8552067612648174
Ni 7.524150648085986 8.773909285359174 13.281713483060114 0.5933414469497459 -0.43538803822899214 0.25415997525101386
Ni 8.860510940193661 1.7715865149686476 12.726006439147257 -0.27670957841675575 -0.24222131483189896 -1.7787056220378141
Ni 5.141029472423441 5.803161087574582 0.09177502015049893 -0.7103194416994024 0.760595050025503 -0.20312126350664372
Ni 0.8457130763918927 2.1726286036675493 5.974183414366495 -1.0713228943692323 -0.7285609044080936 0.9707688495035539
Ni 7.576688307645699 3.582791138386281 0.30341075986537897 -0.5410547217308875 -1.367059407510452 1.317872918483472
Ni 3.8686477585271795 2.2485286560798468 0.4039901121640815 1.2331671535039601 -2.0017765891935073 -1.5918689546238067
Ni 1.8710337892909095 5.507231283806579 5.7769504789478 -2.2494033913116938 1.1703743865474554 0.07000651109612459
Ni 5.3988844903715645 3.6641344065383623 12.841110582920015 -0.7116631002114905 -0.4537912233265281 -0.7441662150455184
Ni 6.806237623418149 4.479091927782547 9.698702398095554 -0.26317246316226933 -0.34206110723937216 -0.5328068798997985
Ni 2.674282389750194 6.347538110270164 10.29402662631211 -0.024670506163486546 1.9669443120056704 0.7571302314053542
Ni 8.31225250729314 7.573915871785028 10.867385769349857 -1.182462685170557 -1.4356078460038115 1.5683611013098537
Ni 0.8252497273042815 7.956336432953091 5.027715398071391 -0.14123532463512453 -0.6887656267880267 0.446910694156611
Ni 3.7640714778626765 5.37062412749846 6.778157468875989 1.4265961294235046 -0.4353142475682632 -1.1184887534217576
Ni 0.4896722424381129 8.325920616086247 12.695870985487053 1.0829741054549156 2.216833684905789 -0.03903011731926827
Ni 0.5660556228354544 9.140554686480021 7.45041679222616 0.9200111593347123 -1.4051672701257671 -0.44536443271541365
Ni 6.472510277416335 4.553494864830083 7.301199673478423 -1.0512340940391574 0.29110004281047286 -0.0028624091494595864
Ni 8.520388508806567 0.45533562430370494 5.2727090860618615 -0.8560621672865774 0.6901126277342244 0.38355202739430716
Ni 2.536131910812968 1.857707614253952 10.834207105259924 0.7531972148995351 1.3411779117579998 2.590643031091035
Ni 3.331978107524262 6.650399003689843 1.7982822998710468 0.526889485974099 0.676957321299189 -0.005867771634686669
Ni 1.9277208611887586 8.48624134045597 2.9495307461428792 -2.590016967471262 -0.11324886672452755 0.02534902028774989
P 1.8878162677008368 2.268822886579957 -0.44407214154708635 -0.44946534225766466 -0.1050989839238835 -0.4020169189677141
Ni 3.092957170522962 0.8514575634952026 4.716568618009452 0.017047185290273867 1.612231577440559 -1.0044582713361991
P 6.868035218752501 6.994319672206057 12.349921818066115 -1.6204218265608352 -1.330457440016702 -0.7282675415373909
Ni 6.175637845455705 6.910527419043716 9.298798856390102 -0.4540920423963986 0.9880206946054662 -0.4431905649925464
P 8.335263724936707 8.743430973797533 3.3760533686919194 1.1587020924158498 -0.7694864389778618 0.23961447333667119
P 0.38549519253754655 5.501806550972533 10.41439285334842 0.10407285665221432 0.01837207474928449 -0.03390925115293515
P 8.84005960499478 0.6533522349256831 10.671221145882809 -0.051628008588936895 0.08747330042232032 -0.12925089857973868
Ni 8.06153189095981 2.504174966792302 2.432277387617526 -0.3207546324521121 -0.5901118842688546 1.8381083894761634
Ni 6.122370111119349 2.36413923146982 8.473048242340326 3.566603194987542 0.3698465048827566 0.2581986640967618
Ni 8.642671413167887 1.7898938331019438 7.742546510574469 -0.6673005149357152 1.6010992149728231 1.21274462398355
Ni 7.524825274145417 7.563851929610793 6.66424270008746 -0.12621519707720844 1.442897180576373 -0.2553023163855732
Ni 7.180636603496004 0.5029651482447425 1.9594560103405705 -0.47752044862266785 1.1425164837949227 -1.1802507651209029
Ni 3.8592954082238498 0.0438516180082302 2.7031850335976877 2.585729395839502 0.8774408900726695 -0.996939851471967
Ni 5.766380105156348 8.586825313481109 4.901817237347754 0.0029315718244981768 1.526736740900848 2.0727122969721203
Ni 5.180277922757671 8.635694116251866 0.7776118860556618 -0.26176581262272985 0.11432358784594505 -1.1102285702954946
Ni 3.612068061074965 5.130586630681581 4.011576992742915 -0.4691041995345147 1.5019196818571683 -0.12090278372535954
Ni 1.4745847026678527 1.9576631684840033 8.930977942464331 -1.579794539957776 0.9616581454515374 -1.8004052184984347
Ni 2.2415236348052185 1.8270629565406704 1.8297161776593325 -0.7599036803854332 -0.9138117153922198 1.466084931546746
Ni 5.346725730379477 1.7002979475379323 6.128296654844177 -0.544690518711262 -1.213424166549078 1.7503044451873018
Ni 4.112012178376863 2.7836827088122647 8.084532943005222 -3.2025301022534522 0.6981090156761396 -0.19809012884063948
Ni 6.729921705626751 2.4704251809150697 11.245526613694333 -0.5801288049142138 -0.7859479269679948 0.4432026491774045
Ni 2.862567750501218 4.856050790305089 12.293261546381586 1.227300410310538 0.1936896857800987 0.0611230925635657
Ni 8.23064123700786 6.379227052157631 8.670105590154511 1.6192967118174564 -0.7871617447704379 -0.3812976841424917
Ni 0.22321620430490202 4.270780338664611 4.621617310507912 0.565539080025497 -0.9284441205934139 -2.070411416753086
Ni 7.6235055078795595 6.586023043005067 3.6906231828964984 2.5290440273323154 0.7450280488251814 0.9458553740913258
Ni 2.408294893277437 4.2289627644328265 9.687192168547336 -2.293073835616451 -1.423995972796496 -0.6997460370589303
Ni 0.4172100104930468 3.073420739158102 1.1392419507045541 2.060291811820581 0.9105698114161545 -1.4991377482366568
Ni 6.665286984261646 1.85730099032772 4.284459537201161 -0.17631982704308344 -0.8703006794834625 -1.7812116762891195
Ni 5.864071503433519 5.50941226668364 2.801044626317072 -2.102011303046554 -0.7313037572605535 -1.4638084768077435
Ni 5.774678929832623 2.8398245349908486 1.8515333995922378 0.5990737214478328 0.1381764832041427 -0.5807214441928903
Ni 4.953123011240042 3.5403821111708864 4.872832344569729 0.7794198960414899 0.2474069727978965 -0.7780551544834793
Ni 0.24848048815790824 0.6331892330563111 1.055319393056762 0.34694774590771216 -0.2321094232088777 1.5151528927179907
P 6.436949166776797 1.286604309861503 13.297796383487867 -1.6054397513297058 2.0061518354430676 -0.10756672873808573
Ni 2.7650796641871636 0.16947438343637217 9.23873033688752 1.3323595421354215 -0.4410827746209242 -0.45557582603077673
P 4.272573180521178 3.6947328569872995 10.469213151766752 1.4990613864727669 -0.7468450474292622 0.6418057130987205
Ni 1.3364527066363638 6.124098262805834 3.3145108374567487 -0.946525660685473 2.1693253549121803 0.43186716955992716
P 0.514431942964477 6.910019139135927 7.039990008138887 0.4174350532949972 0.19444327611667156 0.037339102770090525
P 7.124485535864552 0.6013866212985564 7.059088394637762 -0.3797308538760041 -0.20732733116819133 -1.9523237338790187
P 6.989689704318737 4.511760463674118 4.25936899266209 1.0620913484686354 -1.155085578709185 0.9680031138329587
Ni 4.424206939194134 7.627830507822207 12.141786740697977 -0.5925428623078505 -0.8997012441327666 -0.3311688858069006
Ni 5.530482779224738 0.10697443768398321 8.256811183242018 -1.8088669761125429 -0.1785533443592925 1.0950408068114623
Ni -0.21810013599667752 7.580135369565799 1.5313641890943908 0.8024937471418179 -0.18772395511496703 1.218009214816599
Ni 9.084764035510455 6.282413591903007 12.912499882187003 -0.4502952943581277 -1.7545675913390297 -0.1194025450307492
Ni 1.4846578862949564 5.389033101613314 0.9395332300622798 -0.6924081086366204 -0.28322809626156387 -0.3822407647820514
Ni 5.6232577245756525 6.237925237792108 5.370121392462392 0.6093365368264215 -1.8838719688645231 -1.7430135679528431
Ni 7.766637129913124 8.774639360135817 8.917073252477781 0.7750464495641426 0.9727012906395763 -0.5325942496683601
Ni 2.6232788113667205 0.9125047528566002 6.887797141567363 0.7964871359364217 0.03672666599707223 1.0238243345676368
Ni 2.484814123031951 8.988828513278376 0.4634523923584622 0.762978205545699 -0.07668160912345502 0.14445151757957703
Ni 8.255814954622752 5.472409489396553 6.0190488197544445 0.026206226081722607 0.49806613398450356 0.9173845203451427
Ni 7.855216455661557 3.064863153801498 5.783077562199882 -0.665510512914828 0.06385231856927068 0.9495647046221128
Ni 4.409013990677658 5.271694374536856 8.832023237579982 1.0584671214524868 0.16964961411175947 1.1349181026223742
Ni 6.583047295181281 -0.024317034933943674 10.9102356138671 0.2512011497330061 -0.5855350635314497 1.0486357371843618
Ni 1.8628828278605374 4.132518962292958 2.8469108810507233 0.6880179499887248 -3.2390109707883057 0.013536601033854106
Ni 2.6747999111108527 3.232715662259378 5.683839144712457 2.3902887888065676 0.7218166437057246 -1.155565860779713
Ni 0.8263392945975251 1.9037670153525628 3.7340404526198903 -0.3891068957742654 -0.40236967432144255 -0.6005467064489335
Ni 4.460045293419739 0.6078584107426489 12.205019533662869 -0.03207888281241572 0.7477469904182412 2.113870259267669
Ni 3.2952433323703736 8.037725908369517 5.6564354645203005 0.02880921092220845 -1.0942244815577542 -0.7736428843483967
Ni 6.114228391141847 8.019834455615321 2.8157339156521926 0.43906805818374056 -0.784279023906004 -1.7941127006215036
Ni 2.330509584479883 8.86295992520392 11.4458702221487 0.588556881076909 -0.8590261350109075 -0.10075639068447163
Ni 7.46710315952625 4.678975311884043 12.05236736688376 -0.13375238599451802 1.9389539974403316 -2.1407976797861323
Ni 7.092103485011917 6.492139123309884 0.8816808109576622 0.41798346959929944 0.0889236597156017 0.90940921544915
Ni 5.122860776083178 7.463887133927872 7.071626273745002 -0.9988000446091573 -0.35188323553611656 1.5627170156501988
Ni 8.316078468780866 4.719046251523605 2.191571733758226 0.5619678177344708 1.771163805134814 1.0031392954144596
Ni 0.7534112934278664 7.942797704500148 9.58580234083203 1.8884256496734768 0.3288950021710594 -0.8322151854656505
P 4.006373130632436 2.4754710141814904 2.8727444384004537 -0.6845783281795566 0.23316948904227586 1.374547231247065
Ni 0.6494467969432848 4.100737605876802 12.29295103356519 0.008152711014121444 -0.35383573127679707 0.15889571802936506
P 2.2716969784221863 6.917800442451543 13.158020332991 0.3392053829581319 0.46645159240301604 -0.5639007730911256
Ni 5.403218731767079 5.730467819307793 11.059614458040043 -0.8953241981109934 -0.8671389939260292 1.44375875724572
P 4.393368210970605 7.284501292289602 3.664774839222177 -1.7807000267600235 -0.8510379745991086 1.1155376412132336
P 1.825963223649271 3.710129117466891 7.523280103225736 -0.38904313241586547 0.050764632147377094 0.7883879038680551
P 4.281121524424914 7.849218752749639 9.616885043411298 -0.5449080340387067 -0.2372058638951786 0.34771033510534954
Ni 3.7806691272152255 4.287738404679048 1.1328616516438637 -0.44183379385433585 0.9680823038103261 1.4788440309846274
