# total energy = -340857.93695252895 ev
CRYSTAL
PRIMVEC
9.41121082612062 0.00000000000000 0.00000000000000
0.00000000000000 9.41121082612062 0.00000000000000
0.00000000000000 0.00000000000000 13.77425834379936
PRIMCOORD
 96 1
Ni 2.586868923980981 5.224718376868995 10.381865201310521 -0.4852214168113515 0.22308459400244804 1.2509105935303102
Ni 2.234729649453671 9.135575258704725 3.2010003081395726 1.337854760922038 0.16413125539669152 0.45243676618116274
Ni 1.4561590023388475 5.110532156224907 4.505656697888739 0.2850263258125672 0.5778029849945145 0.03996497042871181
Ni 5.680456259889682 3.696958882758927 8.940788605400769 -1.7730481666417206 -1.0053183053436492 1.0412487006916713
Ni 4.216118915365084 0.811921154829029 4.452666875475771 0.018591904069574432 -0.0400089362927698 -0.6511221054036399
Ni 2.806281892586955 8.134843569430142 0.27278018057204706 0.5780675515098108 0.6228661958817401 0.4117452019990715
Ni 6.271339130007467 7.79335778552915 11.067891648138392 -1.8704942620060367 1.3202447611497585 1.2056157262482528
Ni 1.7173483356888342 7.969488595663009 9.936570938915299 -1.5569358901920476 0.979876725342093 0.45342458401572877
Ni 6.562898440611099 6.348774572475081 5.9347490579649635 -0.8720554573910401 -0.26934362496998776 -0.09306442135685263
Ni 3.9753895542956745 8.994087115527998 10.89823480991429 -0.10704479479634468 -0.38537493953565893 -0.2861149308910556
Ni 1.0709675554797113 2.033320327109309 12.556461919353543 1.5357733971818197 0.4847609322351652 0.4227500377500074
Ni 6.569072194896314 3.360931601122301 11.5227458184649 0.8407319646874102 1.409702181881643 -0.8073824426926869
Ni 1.884472617086487 2.0903052085071465 3.5875055600264774 -0.2743881293724306 -0.1934279474782798 -0.3596114574183097
Ni 0.3569173462507923 5.885837113191911 10.578754319107338 0.005364863856339147 0.4654650601200306 -0.07944323102899221
Ni 4.259306961729191 5.841444431845321 0.6424515996998582 -1.0290609003762277 -0.4690098400484955 0.5077782190659448
Ni 1.2408022655879467 7.246312335320716 2.494490361004121 -1.2073975007390239 -0.8916349221848645 -0.7313824330172888
Ni 5.328316985362371 1.6608434260418294 6.406310950825836 -1.1253122041014942 0.6050728764540612 0.6363950836061104
Ni 6.792795498048979 0.5180805667273239 9.955386772669007 0.42384789879987644 0.6224849012829214 0.8291594293584623
Ni 7.0638854251612315 9.112564848297176 1.6339160696990565 2.650934628892241 -1.2223986021335465 1.3960480814333183
Ni 7.000566798894568 4.936462401256387 3.9880749253338488 1.111429532582131 2.0414330272428645 0.36113277915884257
Ni 0.6390447413900288 9.011036706179938 5.307896540167156 1.0875028465632046 -3.0790161061574906 0.6396948374033048
Ni 2.9432526545793776 4.3991387318050075 2.8366433997508795 -0.6445171984926126 1.4436489711407332 -1.3505356988238162
Ni 6.544772448609079 5.891342671510281 13.373923453980906 1.8116895331630023 1.043785351070596 2.2572658247789064
Ni 1.400294055026286 9.262306623346058 12.495401042557951 0.4904880645269294 -0.39766712663945064 -0.07070482271472985
P 3.51744003673684 6.9959553056022585 9.88045471227436 1.4474133232791717 0.872079111540124 -0.7046532445525606
P 1.412011012473075 4.964931313928303 8.037127908808243 0.91935449958732 0.6239350034658867 0.17443649397744151
P 4.0046395974640445 6.4829596160705165 3.0558606151722 0.3691551352426868 -0.2924295602551738 -0.33399375685020544
P 7.230925005661679 4.686688866607568 1.8492351616067544 -0.45118541027256487 0.6834323875005714 -1.1084858765727748
P 8.528693330225861 2.808418237438699 12.808682368810526 -1.095189416574185 1.295224327846021 -0.3026828625520658
P 2.018563548573916 1.255032016318505 0.9042140757876034 -1.2837582361879505 -1.0859905236837362 -0.13443372833225878
P 7.539142159382433 2.7017045181703137 5.806621069640817 -1.1043155472451691 -0.02931366136245274 -0.40651686372059664
P 8.738883312247214 1.777213047591665 9.52312233162726 0.09574428218186092 -0.12013145277697376 -1.1577160743534964
Ni 5.036155357267499 5.401696195974912 10.361106893647564 0.7103276692295186 0.10880600046182554 1.6434450269288858
Ni 3.5706227889712205 3.9323050312503733 6.861811671334347 0.6775975259863491 0.9184844382775408 -0.5139000156929665
Ni 3.378248228995467 6.858815141815424 7.38168036811379 1.0200448129205466 -2.305393276413752 1.8970820397968942
Ni 6.492700219249173 6.928119298151291 2.191539720847403 0.126310327894176 -2.4787774178672795 -0.6319820421400792
Ni 9.486406374930747 0.9143141872188435 7.321940825314607 -0.8338005276748995 -0.35371128988379086 1.6794155314862238
Ni 3.7211927505705584 6.876009423948182 12.042765094617154 0.21012726251083166 -0.7982586260145479 1.097583370727658
Ni 2.098634130065707 1.034988496588889 10.542583271516182 0.34722928170387296 0.9488609936868692 -0.5706792294655397
Ni 7.782619594005626 7.858332784896724 9.307597134203029 1.329981271711232 -0.08806285437720318 -0.48111665061435854
Ni 5.418805777210464 7.329196868841897 8.9132946941678 -0.0937287944137289 0.31765465337054977 -1.411803287385046
Ni 4.676007142348849 1.8491899877949114 10.909281689152074 -0.27959075661929267 1.0058248126664227 -0.23187082483551033
Ni 9.14990853275409 5.030649798949128 2.91372403957131 0.5335296169984359 0.9628562795246965 -1.6836179996033456
Ni 8.738713910452804 1.0286547517200624 0.24998716913399238 -0.7911454120085343 1.3112325303488193 -0.5431000342956905
Ni 3.706181869343548 1.0342450109356387 13.09181299902111 -1.234140830271139 0.317853142534601 -0.47363319775311974
Ni 8.609206238625283 5.718195215200223 8.241221308472946 0.9076570086447335 2.1621157245376184 0.9556111679265091
Ni 9.240594960028996 4.780490404657484 6.157561355912126 -1.2583127995316523 0.17576086921581988 -1.6823478746416705
Ni 0.532251026829838 3.104692564653448 0.9995731692250241 -2.069544697877417 -0.08956643550592316 1.1933999009083511
Ni 7.769199207403923 2.5764601248354806 2.024760830886133 -1.5500412199547433 -0.4106499120523638 -0.3597875779848578
Ni 1.0335109364931894 3.426499506770316 10.456810437400287 -2.5194910935365575 -0.9890769037841225 0.6134112211164274
Ni 6.734276589290638 1.1858313833014456 12.39274167290248 0.42127448164574544 -0.6671642464681671 -1.105171210377245
Ni 2.36615720828452 9.348569781544667 7.517590486648982 -0.8881125108539027 0.3812238934817628 0.8440502304273657
Ni 2.6495099430699995 3.217655327893454 0.4780245713176668 3.074937565212743 1.4496442694922194 -0.6611560926008743
Ni 8.902544268070233 0.7148341630886118 11.425884695783699 -0.5923150625677607 1.5972088787794816 -1.0156299716823023
Ni 4.818248182389627 0.42493499007021207 8.78694354244281 -0.5331071847490367 0.9671330525231796 -1.0050791927496496
Ni 2.7029938540500007 3.430489860149785 9.073833951368247 1.4873790650388319 -0.6294140243025871 -0.7551610234941252
P 5.099097535102137 4.771041549013648 12.627317043229354 -1.8617514828164001 -0.9031748045036638 -1.4709443165215763
P 8.933328338599107 6.430896797921411 4.619790215752344 0.9199723356769768 -0.907707916487327 1.0504064559315394
P 1.7150331778318781 5.65651413961287 1.0062786569204758 0.8709874211378419 -0.3289567086469302 -0.23963607060322598
P 0.6318959856658675 8.098205725783277 7.962361485723689 -0.787331951799715 0.39665745442801364 0.6565538179421725
P 5.88301374995172 0.9758955039717099 2.800775393147504 -0.7169156068596815 0.907957570604288 1.6150086259650636
P 5.283049061411323 5.538742247653739 7.5570404000830775 -0.8244939055619929 -0.6513573613428976 -0.6186112772601281
P 9.658443308366332 1.5637291417900905 5.251931834020107 -1.431543960347083 -1.5692000522713812 -1.9346864804132295
P 6.439310420377177 8.506445227893163 6.987763787721386 -0.14279521292307665 0.5614854787814136 0.29028063223297107
Ni 5.60037626718709 2.7912145440951406 13.628609640667655 -0.7475307606423771 3.5313785674572924 -1.03847473749096
Ni 4.5708462728625685 8.022238432200561 1.6561895823009163 0.4709600217963308 1.4676569040195562 0.5482597241197591
Ni 6.967072299655114 1.802058644105338 7.995956684918712 1.4659041829945076 -0.20087977577063468 -0.20647063959485085
Ni 7.064421864176867 4.183132621508863 7.3556743693083995 0.1510152868400238 0.3742045247411362 -2.4222146909808866
Ni 9.32813804289649 0.34073665152126276 3.2920481259092234 -1.1229740428866206 0.4313105257255088 -1.5812119891305931
Ni 7.528178098799694 8.209766218613987 13.11172994443849 0.21209621331174439 0.09120885620535259 0.5436083413906767
Ni 5.355214225830582 7.944172438609304 4.2459016330647685 -1.1230110667721434 -0.24052824340019222 0.1907205758494457
Ni 9.11945385460324 5.578015230324784 0.3416514212110844 -1.8379191562834925 0.10630508841684273 0.6793818715802816
Ni 4.615154253311952 5.211608560223713 4.821486580026124 -0.5801385751062267 0.08180247528978815 -0.144957253571402
Ni 3.8287252451785996 1.4027033249912482 1.9799945244707589 0.019650941461708094 -0.06292337899709809 0.7249253645380354
Ni 1.0434303526770572 4.328037034206219 12.69095376842108 0.14335879873603052 1.7669333119932344 -0.6692869492381248
Ni 8.998802132139115 3.006420701473231 3.9417792971633716 -0.5791461292859702 0.35198222300782606 0.7659321459677003
Ni 1.3968307294516527 6.63836694002138 6.4333775930884585 -1.5025516590142123 0.2914810802989754 -0.5714819278724933
Ni 9.251606076665738 3.5475559112988675 8.049538472491038 -0.3024085258447566 -3.1393511556021223 2.4183624071143317
Ni 4.719703394096191 3.628341744811507 1.7990837603712575 2.408825928378806 0.0637618157379934 0.16103616141113555
Ni 6.811025013369806 0.6197536414908899 4.855384820208927 0.36141225807247435 -0.04110294068789695 -0.1844792229254242
Ni 7.665638243753749 7.847604004584002 3.85636503017898 0.7766037667489335 1.0218569264286208 0.645427626122024
Ni 5.8760682763808525 3.1468453778294863 4.0968496997675725 -0.9218926926281413 -3.1309703877375945 0.15649173657356277
Ni 5.653003757984233 0.8822454864156841 0.5624676013474326 -0.9822405975885794 -2.399185834185881 0.7439558988069253
Ni 8.288754510863706 7.554633012360275 6.768505162972542 1.6905360668794178 1.1412139629334153 -0.6714826713378629
Ni 4.342567943682398 8.69127199680681 6.692016488311474 4.098862687024302 2.125381859451694 -0.4811202501587843
Ni 1.1765613406628213 7.120004475165411 12.922705775507763 -1.3020498354082868 -2.6132643680349767 -0.8472903346312183
Ni 7.565267680564992 6.061883222428564 11.294574777087858 0.5779796197816949 -1.2605229198090937 -0.41751784281679066
Ni 1.3065772178735757 2.7577576896988876 6.346709752825423 3.1267283246317894 2.5100677433401284 1.0741886459528016
P 4.919390464864037 8.61155904132544 12.877306094605506 0.4490665641573492 -0.300051852687122 0.5190918443065512
P 3.0668406748132995 2.000541079890702 7.654024809625768 1.0658572432689708 -1.9561806457312634 -0.5202048748650718
P 7.643597188058666 4.489081673426663 9.638054861287838 -0.5051567222826978 -0.5111990718220357 1.5165885967232526
P 9.003272457269416 8.103955975582462 11.47924626102329 0.16966529784104328 -3.0417698202115226 -0.4980303956505616
P 2.8746355166319577 3.1192987638160314 11.7341940793703 0.005810436034189993 -0.43624987200865517 -0.47704839408225586
P 2.8222809509480324 8.162230192859987 5.5596624281424685 -2.3513684575922857 0.1183126544006801 -2.6344201761769854
P 9.210168515510547 8.738977424355221 1.1405596948660772 0.8999293009831727 -3.345219385726284 1.6903936277642821
P 2.9075182871693714 3.5104569183227694 4.74523224451399 1.4058864076799786 -0.11371115107292674 1.3388302374614298
