# total energy = -340872.99541044945 ev
CRYSTAL
PRIMVEC
9.19250354250784 0.00000000000000 0.00000000000000

0.00000000000000 9.19250354250784 0.00000000000000

0.00000000000000 0.00000000000000 13.45415812695694

PRIMCOORD
 96 1
Ni 7.676484971819863 3.8582131996506095 1.9106921769183656 0.38551943553332313 0.5113458818125451 1.1636344967204606
Ni 4.227540410679008 1.7357193085389977 10.318222935691157 0.24101083946356555 -1.7269107488537097 2.0043803453649414
Ni 2.17696866654418 1.287106755272006 11.414628449184349 3.7530254005719494 0.4995802566361847 0.8950287783577617
Ni 1.1109600042023344 2.062816158727502 7.9167356456838345 -0.7317889244270881 0.716834617110101 0.957524325788822
Ni 3.515728098690232 2.436978626569524 8.3234147559723 -1.8192804581363826 1.899615347741709 -1.6738938303370465
Ni 1.441467273170029 8.737097634637761 4.632589690106152 -0.409178726823476 -0.40268771978249357 -0.23184562802452974
Ni 0.8571926732684945 3.695956321290794 5.973955196979699 -0.003284841398858859 -0.9098619867158524 -0.6722177497316746
Ni 8.495307216446259 7.66630887050298 5.650854328040021 -0.48864586911186814 1.0509880394666222 0.1608304731582327
Ni 3.116368978897371 7.6421325864348635 12.656070524328303 1.0880666894864746 -0.6607632280378297 -1.0506933910443388
Ni 1.7655857522413962 4.800619460631282 7.856501766841123 -0.1453488325828658 -2.4176219294038814 -0.2612307660548662
Ni 6.372730592803616 0.12431298187769997 5.8608864853195355 -0.32112924218271144 0.6809805835259691 0.14132017103944694
Ni 8.33872211271383 7.284930287454315 8.782309124345828 0.6411742501623087 0.9417881460004877 1.241930758629203
Ni 1.5395328999527893 3.533221432751686 9.910386489218594 -0.12686774305954282 -0.36084918648015274 0.03674517793983349
Ni 8.885152095170488 1.9351230933319898 3.1380072127635072 -0.5391127675131683 1.4842302349972052 -0.0795599591125146
Ni 4.119730730241418 0.7444190409690097 12.8121932451373 -0.05992238738724519 0.605644432686815 -0.5301082500217129
Ni 7.25621290668291 2.5092317036704332 13.377200357811926 -0.4240705563336438 0.10537306352087658 0.42296292509176187
Ni 0.12495461861836707 1.48995772885798 0.389467066832519 -1.8209946126140124 0.3701414104153561 2.236737622918567
Ni 6.388982938899596 5.362318191314988 12.092879850334993 -0.4227297260350332 1.2493183093425257 -1.3673136896131033
Ni 2.164466861854964 5.483466194255558 0.9453064958185011 -0.49400173410714276 -0.38136324727310444 0.10136985589875444
Ni 6.79982349549895 2.038823724728345 7.152337617721044 2.047530912610487 0.2819651703887402 0.22191037118868878
Ni 6.374017543286329 6.083736669406876 3.458943247141194 0.7456448564735739 -2.9844290775085245 0.22153473301682494
Ni 4.542935203978269 2.0455894072660383 5.70157580431479 0.6106794240075611 1.9351639342702802 0.11663012449193462
Ni 1.5801269951789487 4.606437017796726 12.186077127291718 0.4411156847413887 -0.1498778308014709 -1.256686833892455
Ni 4.213098987762274 4.651333204636528 4.846578300869666 1.022313040129433 0.4424282329052251 -0.22911383091566348
P 1.170996244220914 5.737326369474222 9.907601160673863 -0.5438993902685343 0.25033957306365917 0.1741187056267066
P 3.1182534421042014 4.631652054754461 2.9105644539535698 1.4694145101406113 0.82930238269423 -0.6086590511434228
P 4.001340478335234 8.642506774158326 10.6869066714782 -0.6177838962628264 0.28856622064502563 0.7588359012425512
P 6.647990916049114 5.372034667459475 5.773838073919147 -0.008448902098301578 -1.8139173940522566 0.010964983651935954
P 3.5327801925861846 3.820680208072618 10.658384171779893 0.5074974546007325 0.6097880225415433 0.519789384594208
P 3.162156838571624 3.7511573044957514 6.418036765297195 -0.7747055212849561 -0.41879850930142715 1.3057812774262607
P 1.1064097149955978 6.680394490703147 12.820063866589436 -0.08179784730409784 0.3794796570971465 0.056791040847115094
P 7.6292722741111785 0.008571090214871182 7.739544626222475 0.4110160371425308 -0.7145442784140275 -0.40986264026437796
Ni 4.192608897576788 5.969069381397112 7.1250662177420026 -0.9332826796326378 -0.4671828141420857 -0.20510666936778868
Ni 4.330468871785736 0.8746814110782247 1.9458746453647153 -0.31460172547683884 0.4710201856103049 0.6191920894642625
Ni 5.307898570903109 3.7326895650688137 7.110334311716313 0.1416904098946721 2.0247229135770355 -0.16663062477977755
Ni 7.714091503425439 0.1489755493782125 3.929744665230854 -0.7476354045410414 0.3957956206483506 1.2050318287203245
Ni 1.8582461869967606 8.193232360643082 1.1371604775296895 0.28566781605130803 -0.07470083124800038 0.18616843770238906
Ni 8.556051279230331 5.110011549179028 4.644940737738821 -0.04214346613726935 0.30638165155989167 -2.272471585985067
Ni 9.102637534245604 1.0775728316793698 6.157955103744956 -1.394811895033372 1.007766766884142 -1.5231207414148156
Ni 2.068120233216971 6.884394527220115 8.257462220734618 2.127476280086878 2.7604260854568654 2.791972749914895
Ni 8.291628917549968 6.925926257797967 11.859127357158382 0.3817460845338199 0.7285825016746484 -0.732492378252016
Ni 6.318844137591716 1.0437719965012475 11.670782154013278 0.8831693079160146 0.029069149451814453 1.3892837661262913
Ni 4.743019234026409 7.801199666098239 8.783264225454069 -0.5259734019177329 -0.9199268271510221 0.8975016653782866
Ni 5.955841368935508 9.12833977388608 0.5190758499465845 1.191055826156207 -1.0876100615650302 0.22873227920652864
Ni 5.950325866866737 7.898888400239634 11.949794857166228 -0.5049944856732207 -0.8037317333139771 -0.8246013776741347
Ni 6.92357297691529 1.465588402217457 1.9939063951306135 -1.1171597501976889 0.18355208312546453 1.0776616921030666
Ni 5.238550324891753 3.128466313434877 12.040193016823052 0.2293503724065018 -0.06788535098806374 -0.6747176333353928
Ni 0.7362257626458494 8.710770304762823 7.475802509797261 -0.11132696711146634 -0.6822105992783284 0.8758550336427884
Ni 8.50401251721147 0.009437943290013129 10.672147187942167 -1.0212365192358026 -0.30352207062390957 -0.4930180300376348
Ni 5.182108353721322 3.6190242599348776 2.7707087872460714 0.21734023531950308 -0.5345158921711053 0.19357630013068597
Ni 4.896469694083085 0.7226815280656357 7.71785675283772 -0.9064668449913743 -0.7047357769640379 -0.9227113318746947
Ni 2.5873128279573443 0.8021185466111197 6.5727870453414114 -0.024422394708422453 -0.2007627905767962 0.15081036991806931
Ni 1.6435276914594794 1.1363037362083404 2.429188899147729 0.2200211245857759 -2.2872708557814287 -1.4364665944596808
Ni 7.958501785099607 2.366223927530632 9.82659406253947 -0.47144776006602673 0.5354682287820456 -1.0179611909186403
Ni 3.7012236257664717 0.3468377513429827 4.617238209348072 0.7365441797238864 -1.2584074161279877 -1.5056416107934456
Ni 7.1898430317886906 6.8029673316781505 1.1413871906150581 0.3066505889505622 0.9719384443316229 -0.45772064028792137
P 1.2663316974796324 1.8763738037961235 4.601900517345162 0.5376734639634805 -0.08567147132689117 0.5155969437794152
P 7.983082539319433 8.658759120254308 13.194237365435596 -0.9184803245124826 0.4617544440376628 0.5391564762669102
P 8.127643848541938 3.739115124978933 7.665802363562998 1.1338402961771634 -1.3544954548025123 -0.6245921774339114
P 0.8732676040479295 1.2856359547203333 9.994677149584597 -2.4490194698785563 -0.18354514114692905 -3.3457814288773413
P 5.091847162365873 2.8126118949632195 0.6735191003756393 0.9080629858339007 -1.0243624664592939 0.7134320191864552
P 0.47108270869516783 3.584111131839553 1.0651592750232546 0.46134229620090866 0.19044006849454945 0.12421410748677962
P 5.609238026430448 2.5789752273300515 8.988615559977887 1.2863673916760234 1.0690492678437074 -0.5194600262792473
P 6.357048181921408 6.696738761833608 10.024531643032512 0.88096073030047 -0.17014198036714567 0.22322600467631878
Ni 2.9779482619780984 3.058162047064934 0.8336543489396666 -0.556727652381454 0.32271072773721843 0.6548844006595496
Ni 3.826590987789652 4.814417408306658 12.676305982168282 0.5416897842117252 1.34789620431844 0.12218910663695086
Ni 8.35148130749959 4.918384622303005 9.425982923776997 -0.40191561750315946 0.08500684115969875 0.8950925417161617
Ni 1.2235314014259642 3.9064186877316733 3.2201183305620007 -2.955789559394961 -1.2580374343830787 -1.1509036794173535
Ni 0.1912288914767275 2.5517010695999756 11.72087210530117 -1.0599897287446003 0.6293505180545033 0.7217978746526472
Ni 0.18013813606677248 6.070766047041814 2.2276184412920546 -0.3325284851585886 -0.3644898685565336 0.2093063092714331
Ni 2.5508277817724196 0.0552607344773682 9.02324647821736 0.7783040372694918 1.2406182104653667 -0.4133498274820301
Ni 8.681666838846605 5.6811417884003355 6.8077097442069485 -0.18748869917570934 -1.0188585059219293 2.050269394587572
Ni 5.746555642935967 7.191718302492073 5.565016569343727 0.5516384107840048 0.43130846884297974 -0.8044485568753436
Ni 8.71748083227983 4.956046308929267 13.154587340313542 -1.2931633315519342 -0.19062647347374265 0.8886131046394052
Ni 3.061048493147591 2.47983407764388 3.2993632257854224 2.193154081900661 0.7731566887405974 2.23482343661499
Ni 0.8080679348426348 9.02667987825517 12.427552242614954 -0.4991930485000951 -2.0736489498537773 1.0918935194317325
Ni 6.472368137675976 6.508292441150575 7.727880258597367 -0.03706476606278133 -0.7237711963289342 0.06313060991189773
Ni 6.77709962697561 3.396758719066827 4.6920302559013045 -0.5042856325316541 -0.4840032281335342 0.01892717592180611
Ni 5.7374091020052544 8.086571743136487 3.1521746990774924 -1.2388770594045437 2.757064368073484 -0.7056279497610041
Ni 3.316020961283458 6.040899603339416 10.402122914660623 0.18862666943489448 0.021523733004388736 0.0704957920277173
Ni 6.294493195958089 0.5427437885740286 9.504219401372179 1.0073283937951427 -0.9151191213497336 -0.7965830380843378
Ni 1.5955887859784055 7.83680223195216 10.576717051897933 -0.6396678408201113 -1.0352068653729656 0.2294817557780435
Ni 4.034920693430606 6.492674377792503 2.0545033778595183 -0.14750238859075887 -0.1347913687819937 2.4186781385825378
Ni 5.288621891172752 4.871751052311541 9.315389753295369 -0.010396255632659515 -0.2707713585554498 0.730345250002026
Ni 5.832606667712253 4.879913995373323 0.8369829544381703 -0.46214859415228793 0.158435747673811 0.36896821604286134
Ni 1.8601766127208308 5.608999021340802 4.471987462366969 -0.8779633382350427 1.1351875542336771 1.604935557999778
Ni 3.663561939140209 7.029158071518475 4.732459805315746 -0.786696117987929 1.032218472168603 -0.7946637095744379
Ni 8.944710325009774 8.81576707914534 2.082125012219927 -0.6252601500352135 -0.7391019131487335 -1.4353224535529088
P 4.899824957841588 6.843965897056019 0.27374356017658613 1.6581928746620216 0.3671345052682322 -2.184021009251142
P 4.065605269939872 8.193489750739625 6.636155567859874 -0.15357430581645165 0.346961372754467 -0.08976081090491639
P 8.2618452063786 7.31696616197043 3.5389685859073463 -0.47756852825178403 -0.9092798889601372 -0.5110766873115585
P 2.1351060058422027 1.1960550086200334 0.1290351708989133 1.2637959341334104 -1.0768839333967775 0.5597749238482103
P 3.1565126414545808 8.395577746539418 2.9027076212566048 -0.28626431198472635 -0.8164964891788131 -0.07106709115015503
P 5.576751719245383 1.3829294112134656 3.8570779254747873 0.8611267262936783 0.11834710718304134 -0.3029975655790072
P 1.314500415546905 6.8152485162846155 6.428881161614745 -0.4872662151555221 0.04090290886194892 -3.4083032015606465
P 7.387270428340373 3.586207022625686 11.6121496092712 1.0005013435709802 0.08672588073333451 -1.6520350825907417
