# total energy = -340885.60354760784 ev
CRYSTAL
PRIMVEC
9.16089571639541 0.00000000000000 0.00000000000000

0.00000000000000 9.16089571639541 0.00000000000000

0.00000000000000 0.00000000000000 13.40789687847754

PRIMCOORD
 96 1
Ni 6.8187203304966815 2.358793227588792 11.996648206889468 -0.8633553585138809 0.345137946392483 -0.09735379276082588
Ni 4.766047593395129 0.6619910572160732 6.474968712680512 -1.2975792012314427 -0.38103286051687923 -0.9183437989346185
Ni 3.1396496546941126 2.311944407013267 4.989709029567858 -0.5588526691442569 -1.1259194986681897 0.17781286664884213
Ni 3.608605066129722 4.768200403883055 5.25066630428714 -0.28631084895194564 0.2618532301302135 -0.005440968509913211
Ni 3.825672489582414 3.407230256999649 2.859287770717287 0.44333428965926236 -0.8085754345595235 -0.06590483022292522
Ni 5.486341339072058 5.100026367685689 2.8183394830578155 -0.170180546914565 -0.5443025392442239 -0.5370283741803138
Ni 5.587743293501172 3.1353348728225696 0.6159346541180183 -1.0969665630792655 0.5619565048805613 -0.27123672822764255
Ni 5.778922025724604 8.414410946833765 13.0922611008521 0.40667241546185445 0.2425337038659952 -0.16219804292972068
Ni 2.7128710070304467 5.353132754795815 11.710510378178018 -1.0874668511189465 0.06446912621766317 0.2268180929029513
Ni 0.5899167942594832 7.9641437626124825 11.22344204377762 0.609605474217092 -0.4194217447077228 0.4176438268716936
Ni 0.7460807509639926 0.1391054528340196 4.960546234217813 0.187597971060064 0.09041541376977977 -0.13473891827750345
Ni 0.0499919238878956 2.8946048557940887 2.031028288846997 -1.3441431650339108 0.14960272276321332 -1.103475310732061
Ni 1.6920998826133493 1.4402027337347385 2.970090636306863 0.20817270988762215 -0.055265348231208045 -0.3132123013284799
Ni 2.2080048844771096 6.9286877223990295 0.3993719960180269 0.265153241037724 0.2764157013254207 -0.6671429063119285
Ni 7.768036468506057 4.243024575577676 4.105886883138577 -0.25052674937380076 -0.26664165265779244 -0.9264453449958303
Ni 8.05880329781133 4.429577055475994 13.140757966562848 -0.33567731520021543 0.1324534646774364 -1.5898488388699845
Ni 8.346785214825841 0.5859565390512705 6.865581060236607 0.4644911262425356 -1.0136767046106736 0.782717335845839
Ni 7.078312631757662 1.073537883610493 0.6484585820979337 0.3229848073342115 -0.4032780450683249 0.35411006798410627
Ni 1.8180438766048077 6.448391122095116 9.568129569999845 -0.49312935880451847 1.126699571367324 0.9054612865449955
Ni 0.6269231485021292 5.345419280622058 1.2646314195039776 -0.614819928538496 -0.5022076669567028 0.03209816608612537
Ni 6.554336880788107 2.4563109622439474 7.4306562536445755 1.2857210163412758 0.09099314065012072 0.13989732254999132
Ni 3.7328542944179204 4.97005157958918 0.5837625045327257 1.1696089691363405 -0.25218871045725605 0.29201098466051645
Ni 6.014292918772506 6.054628342510096 4.832098567433377 1.142057284770317 -0.05124028623221497 0.946849362573479
Ni 5.381797197420143 3.298398816163271 10.09361228831095 0.503073614501424 -0.5771062160378061 -1.46427358936962
P 0.3970377997953746 6.247492679541095 12.607807286082569 0.20002771218298454 0.026445595786038324 0.18298232666492356
P 4.391577660140195 6.765064964421036 12.834052094840807 -0.6296330822919285 -0.3869451122362562 -0.4001068464291948
P 2.5854337870409805 8.93235882843713 1.8197734537117025 -1.0182658666432527 -0.23877757925767265 -0.9043127747628491
P 6.639670624171176 8.384134186567415 5.978849413335137 0.058368669746880125 -1.8772179538831155 1.4429313762484182
P 4.876344777542435 1.4444900329192019 12.774708728629195 1.8678146582913446 -1.045815494126747 0.3690821159129063
P 4.188718785907807 6.375103956548734 8.255912793906603 0.18729689487987744 0.1537864218272577 0.518675582704739
P 4.94249560534374 1.74435363164792 3.848656260787329 -1.8830440736465892 -2.655709681683381 0.3044998611561465
P 0.3036113211568461 5.757174059348715 3.6024608533882274 1.285984554415308 -1.2214771187605415 0.7557829733488403
Ni 0.928236917019096 7.47887279594711 2.443656100933226 -0.2652874526227431 1.5998892538251221 -0.5400085398545602
Ni 1.9389127343821795 7.003229930655393 4.568218050898364 0.18999758164049213 0.02367780323291406 1.7414243690888525
Ni 6.100066385148853 6.022482759522314 9.532827142356153 -0.34513768928216687 0.7227862067078455 -0.1653936670488829
Ni 8.789503820995844 2.9604167304547406 10.853786161209513 0.6916650598230089 -0.5188951549147128 -0.7702410577556993
Ni 2.0693364063676607 5.762569826912069 7.426138099888641 0.6085806324970036 -0.935336476837873 -1.7442592674344863
Ni 0.7709287644424937 0.023071715803570588 9.076248101002191 0.8181800475288232 0.8880641741144706 0.059401738997084785
Ni 1.543592602529298 1.5688949964341865 11.632758192070721 -0.36754562466372187 -0.7680345370226836 -0.1604725755981817
Ni 4.126571269524475 7.247331157299008 1.9159344597146803 0.8222914985940354 0.3130968587965382 -0.2908668437537442
Ni 5.629077254869332 8.477721896970147 8.289673442805114 -0.646827591793344 -1.6395271799317184 -0.16552993551643105
Ni 6.744984281061328 1.2099069769009245 5.299203477938939 1.3336499788120708 0.9698622785288846 -2.1055614822916575
Ni 0.6090539053627824 7.752847703446569 7.052138120582772 0.42536793498882863 -0.2047659981989183 -0.9641156058530943
Ni 5.334252148771928 4.745829496600021 7.391840622502503 0.3385502658726363 0.4881784425571463 -0.009533136301415841
Ni 7.951034520875374 8.15341702853171 8.632781965743613 0.5765372309082135 -1.4464627864404442 -0.6624866384868396
Ni 5.138135693769808 0.35867838125882867 10.710697550928048 -1.810223233030121 0.05794957993159053 0.8228807954386022
Ni 8.451017886024182 7.164095259029703 4.865122680318145 -0.7438738806160803 1.5728412485683945 -0.07789388426400133
Ni 7.319390762822488 6.200231618659372 6.907373066389433 0.09083218959222421 1.255511068416799 1.3647456717756108
Ni 2.5497520983155857 5.490088145410618 2.739997335267871 -0.2611022108968019 0.46207737459472037 0.7790244603752842
Ni 3.3469515633377496 4.595883955892123 9.300025880550224 0.8201256012909681 -0.24305589491805235 -0.02147591048558882
Ni 1.0968065586714695 3.549279105619925 4.107294912806637 0.6529023372325142 1.0672628653672458 0.4224900992204014
Ni 1.1394413672280777 0.012204145242611372 0.17622906654153972 -0.790779029808051 0.13302913467524832 0.3126420306473067
Ni 1.134870080277122 3.287790498950432 8.331331699880815 -0.32798637431386096 0.9047328930194031 0.687362575792913
Ni 5.44195679943803 3.1709707570694983 5.179832426607422 0.2358856024218583 2.423315123133917 0.9721513316733774
Ni 4.178650961540873 7.121597863908495 6.015761410352142 -0.20115822624300198 1.2435778073143229 1.4714541662784593
Ni 8.05680622255019 7.9047994803113 0.49815943081627345 1.1220240202685257 0.387390684414107 0.153367074901652
P 9.140714240085497 6.098847986021645 8.345986384721384 -0.16336609509589284 -0.14484181103946023 0.03617516436897641
P 8.637854353688992 1.8600282615671917 8.713644275938783 0.8885691387753472 0.7898125521297237 -0.9090238070852732
P 1.8830862360272222 3.6412819810677153 10.620984899403581 -1.3660098832000152 -0.07174920481884417 -0.11478098709833781
P 4.115569033796824 6.560612094338015 3.9745297158819497 -0.4154887282019038 -0.43974400120484275 -0.7210262865939453
P 6.990065723544124 4.564782715013377 10.995789205351322 0.4447903053794985 -1.0495142831345732 -0.016114646173675473
P 6.7697186994332315 7.9976909626413395 10.317885672315992 -1.7100903348622611 0.23673149536192128 0.0665918289876208
P 2.6424512018360664 8.866107230783202 6.0209501416728255 -0.5780459542432561 -0.526467825055648 0.25000635809395655
P 7.14753235961622 4.276361075005587 1.6198753809673891 0.46013722014921404 -0.31171360529576636 1.3570228492100564
Ni 3.04491683232972 2.054101836829706 0.31528688271795413 -0.4370119469856603 -0.4710294415816856 1.9173351336189755
Ni 2.0235868932753314 1.283404843048253 7.294499693134229 -0.6282310597380794 0.14192103784823945 -0.8661295788249084
Ni 6.921157466139139 1.0701025477255064 9.564965396627382 0.9608721592151324 0.9928829077937739 -0.3492702233933017
Ni 3.042553321240849 2.072066353284263 9.333880886674374 0.31367895655225336 -1.3019871004911514 0.5501127181680977
Ni 6.482112379142146 2.258536385121341 2.651572705677883 2.234466567496203 0.9131635402852596 0.3611921716418683
Ni 3.9852003271855025 7.10486090747684 10.493797771866543 0.13588563028743694 0.9911679819851963 0.2855626579320114
Ni 7.432353767616543 6.690119676754167 11.852553730260878 -0.27810825853649523 -0.7215199384009122 0.4255296573776736
Ni 7.598843885946538 4.208579607770877 8.865837900449817 0.5412249287601647 -0.3724800858508618 -1.241766722247513
Ni 3.45870532990029 8.886288683995536 12.780702702681317 -0.6056459753487119 -0.22995998096604267 -0.639967374338401
Ni 8.997300418006919 5.323689636037555 10.470669258509673 1.1864170418326148 0.7228887937239808 0.8531930732688984
Ni 8.819817224844966 2.7649323772554584 6.283302620806197 1.1812516955815915 0.3464150133326937 -0.031943899896448205
Ni 3.631021777891222 2.6752472084180723 11.551439669270026 0.7798423282908892 1.260955636471138 -0.010666221464594533
Ni 1.1395329761850106 3.4652187267382244 13.100493997811668 -0.08738742557673337 0.2970732296747723 -1.0147596532622072
Ni 2.9809554585991145 8.16202827048341 8.109069132480455 0.13418587398751083 0.7025421117468289 0.32728369181988154
Ni 5.576695253295055 8.57801538302037 4.03084265779822 0.80990392356296 -0.6159280740010102 0.5776106664780504
Ni 3.320458252992732 9.006818588632255 3.9785788317783872 -0.6029182920049037 0.16401272754095625 0.18477284290644308
Ni 3.9525600558302827 2.912404476126167 7.286575518359526 -0.9025328000442908 0.21490231530197182 -0.3376940885199281
Ni 5.099348461404385 4.757280616216644 11.99908866950216 0.2653435026716591 0.575604434681299 0.2745146276479659
Ni 8.414749899974417 0.11937838004807202 2.8879540455207544 -0.3369942342394261 0.3261827454462189 0.05286239521667025
Ni 4.588784261729817 0.5112311128810402 1.9902412329517272 1.2369603019978053 1.1384055469503425 -1.1546073535211858
Ni 6.306177377352361 6.179454707226973 0.74161481431351 -1.734860856938722 0.04566690590949554 -1.3995779489634477
Ni 7.85466189818188 0.15479440279836146 11.56165590014719 0.5213515868750054 0.22178952934010837 1.4720198089739422
Ni 0.16920265954478028 5.224788606132711 5.888238994032728 0.4625530286795582 -0.6108164638060577 0.32528003112629145
Ni 7.809718543910561 6.334099787425534 2.4117725195622723 -0.48271613389099444 0.4746485263915116 1.269515610226007
P 8.759465244017521 1.9670092014735236 4.219545199915754 -0.38640826589617966 -0.8563709567762479 -1.2469243551890525
P 2.2586188331825805 3.763011963040257 1.5112976969417151 -1.8609480130784983 -1.5482723009797787 0.22597837061047535
P 5.102151695486534 1.4497025825686887 8.484530274649405 -2.2687866809343125 -0.07424446043687212 1.7291941455712476
P 8.905288381663436 1.6925762491894007 12.94321974054913 -0.7293006107875956 0.6120477651099975 0.4408362058277569
P 6.510859269827715 8.328307688212458 2.146765212856983 0.8212504589240308 -0.33157306322385477 -2.236071450089478
P 1.903615803275903 3.7248843151647515 6.239619805782276 -0.06485993389817861 -0.09152021679818433 0.6843998936201633
P 7.172019433804406 4.135127546102015 6.230515707642276 -0.5243921734735421 1.5857738974696627 -0.3330902711993296
P 2.441158840767233 9.152733335235103 10.522141583141606 1.1407367661866807 -1.4379835453248395 -0.4409909862380664
