# total energy = -381169.6282283664 ev
CRYSTAL
PRIMVEC
9.24266440802353 0.00000000000000 0.00000000000000

0.00000000000000 9.24266440802353 0.00000000000000

0.00000000000000 0.00000000000000 13.52757362397567

PRIMCOORD
 96 1
Ni 3.0204841606997497 8.80219575253656 6.21567685633304 -0.8914706286928582 -0.2788286816422875 -0.07139464969290285
Ni -0.1471228794949372 0.4274112913435417 0.1398747822641685 0.5201236280051752 -0.13844130682975514 -0.7037325325105042
Ni 3.909767092424321 9.245621808062394 0.19558124339597918 0.1350425655608513 -0.38925859086078124 0.19510739206323172
Ni 0.8407543235759473 6.163294981497974 2.399142365778407 1.0475864699842408 1.1545888415784242 -0.7688531762692372
Ni 0.7338120779643571 1.5672415901970447 2.437087199202531 -0.4847275078940684 0.6250945709916267 -0.9046354482095904
Ni 6.864443484336679 3.728564661655104 0.6708187004123245 -1.1982454019261104 -0.6400272810420591 -1.1811018002672884
Ni 8.351809970901611 7.7336790775079 7.29826086620642 -0.26022289361564216 -0.23607946360021925 0.8091613889699806
Ni 9.34414860796037 0.39343433364138825 11.147207531421675 -1.005290023208875 0.04540156806325084 -0.5138197972743345
Ni 8.711552945163252 8.646290493561036 2.1627612300006605 -0.2902235537427905 0.04790016611538847 0.3165909879927258
Ni 8.262063701951389 5.464207592765954 10.668628851313104 0.5543756072095097 -0.97755116253271 0.6184456982165413
Ni 5.502407523720771 5.146694351030941 8.94027838222097 0.20792125599844835 0.8823990054088933 0.6393335974091441
Ni 3.4338623150559466 5.299198309597229 2.697262649582281 -0.9318852850644789 0.7465586265370949 -0.7334316022368337
Ni 4.152701277088341 7.515302651505131 1.6472525609922442 1.1462376414002517 -0.22761847731705961 0.33046594620260505
Ni 6.266859033360717 1.4993911926312797 4.302350176696986 0.06186074206053862 -1.3070778847504974 -0.11467068677271863
Ni 1.9961196923420694 9.005257084033612 12.512544971673941 -0.6168896665833311 0.11599506201109701 1.5042676132640547
Ni 2.6682277444040907 3.760719890252202 5.657501276783438 -0.9255652563837221 -0.4467062914552888 0.1417307762143043
Ni 1.3364337809050841 5.641574317910624 9.230539628693395 -0.8061578262569664 -0.22031243057394959 0.5719730085762988
Ni 6.874305406990633 0.9008297920540782 12.730379777557197 0.04993390871596562 0.45593063826703417 -0.3961838572257048
Ni 4.430609702916896 1.0099551549392052 11.590316563566974 1.2137874634257677 0.14204419368966503 -0.28779411836569146
Ni 1.577242152813331 4.153459175549094 0.8796659396707396 0.742727682826779 -0.28969879158757206 1.3849162331862148
Ni 4.8433685987746715 1.0398551734823531 6.416466340980662 -0.1386991884768321 0.9890967012784644 0.5819622585785268
Ni 4.714470404461614 3.8881300156362193 7.227633972328333 -1.9322670723384594 -2.0039640837631296 -0.5131402547088065
Ni 1.158632650545103 2.0322492665260463 12.535014812502455 0.4264305719253882 1.0960731047307188 0.02471087248311873
Ni 3.1985718136485524 3.433261541885837 12.704380163287684 -0.7367478110942601 0.18308105702631694 0.21858953434557193
P 4.680041480482255 6.312055661081272 7.469885124111259 1.9148077392114315 1.2713940581956427 -0.46853649995650276
Ni 5.588697036276822 3.130795357396032 2.6292458840617163 0.7102536214584736 0.49017644682378164 1.4113528301111886
P 2.1675711124271997 6.012861379702525 4.343933846999142 -0.7241018401954755 -0.33161754330854504 0.10234636087941083
Ni 1.0639138282792047 8.866681820349712 3.891395448882369 -0.02939567955329776 -0.05749063801730099 0.12269098597403384
P 3.0196061076049747 6.833397375438245 10.372482800572854 -1.1363805461005139 0.33098428059992024 -0.7355447919250945
P 2.3911419156853784 1.5231910528317762 7.004617728919487 -0.07646692200948767 0.3189988261032699 -0.06498874616655904
P 6.5003749432502484 2.0292916139962762 10.532379041930737 0.06915007663310026 -1.1997523254889402 1.58955958976434
Ni 4.455749749419945 5.159301344939087 4.918016975826831 1.757046906117458 0.14036397777376472 -0.9631648119040508
Ni 5.997555527860963 8.147667247698362 8.169409690857837 -0.6366344533104261 0.6020921965591824 -1.4004801490627428
Ni 6.4217568419432896 4.95918842330765 6.491043549518824 1.165430669388935 1.454118246103173 -1.075571128122625
Ni 4.376041013742631 5.8563553475568915 13.311470694347609 -0.3896270299437935 -0.8704613734310428 1.6812785528368914
Ni 3.5266771485058053 0.7612091830541869 4.149380387857258 -0.6820972136289155 0.11000593430719764 0.2276110211178919
Ni 4.976795698523941 2.106717411627173 0.35692673449344997 1.8878890604437164 0.357038811595127 -1.5409737104358365
Ni 4.154568295247758 3.449482417478797 9.747185145392942 0.5724558617499883 -1.3712035115858128 0.18935197763669326
Ni 2.5957837427530257 3.082225157258708 3.241923605603663 1.1019398479241411 -0.3401479493770594 -1.0154677350728254
Ni 5.742596637130596 1.8298811348406596 8.547654630226022 -1.4550942368631972 -1.0871806873370953 0.7537284048126568
Ni 7.932830762067162 6.727088252321309 3.0340181938226967 -0.7316074045439013 -2.298746974741828 0.4941863393141231
Ni 3.3443193847171466 7.64943219373022 3.825489707854928 0.4491912626606715 0.45260697321043986 0.24852977354843
Ni 2.8618430731341884 1.7365209842056246 1.0553662124681682 -2.1760914699914196 1.348832342979464 0.6849457388213043
Ni 4.507101991468083 2.7662739257659807 4.799921607378759 0.28692251439401556 0.7435792321937968 0.26940713121807147
Ni 4.486102658506714 8.213558200463154 10.141580716106507 2.347854016681124 0.3458074616556818 -0.33721354933908376
Ni 5.660567992750243 5.447284274697173 2.0536617465751688 0.2540684439784721 0.024513411760331977 0.8997392964595536
Ni 1.2367978613084423 1.862821989890978 4.652700755643773 0.583814224185601 -0.761450970267895 0.05710240143994682
Ni 6.850570245439225 6.877974744660379 0.7766518263252509 -1.695056066236958 1.6029588938893813 0.6741558472946518
Ni 0.8945235223007584 5.13790457741903 12.492944053799302 0.5508318557223094 -0.38634707364094106 -1.5362845324902832
Ni 7.463922681464525 1.5594962376347083 1.660319839575336 -0.6553325439405617 -0.4870646406676773 0.8362163362052437
Ni 6.9734237373945644 8.883873175679001 10.572908124252745 -0.20299990743743104 2.562568641452322 -0.1426211492390576
Ni 0.6890424613277881 3.539737032957573 10.402027900812428 0.864271699680563 -0.6377204872857534 0.4023953853530553
Ni 7.128192148678958 3.641886957204519 9.277831568378009 0.8723578191228073 -0.7392942316651977 0.3050827302428101
Ni 7.849526630033346 0.7460937300942287 8.550494900921018 0.7216487506692926 -0.12255240351364055 0.1948186571782193
Ni 8.275225255708868 3.298115306603639 12.206024030419103 -0.4419806038448453 -0.05610327075147112 -0.015531262866379701
Ni 0.7940539143972876 4.484466706951184 3.9389997906154397 -0.19525060250931534 -1.272686294644505 1.1724474670264
P 9.025258209266184 2.9962221672914766 1.0120384514398622 -0.06829235661849528 -0.31003596048302734 -1.3341911960275217
Ni 6.646538434205842 6.850487061461824 9.916766774519408 0.11399705774446174 -0.5203383151191425 -0.23717166822313349
P 2.718554050730966 1.916771420566822 10.868296276532245 -1.9089793054551123 1.2606393907823 0.02491964605981515
Ni 3.457505049965799 1.058090949861219 9.021390154317094 0.6868864074874428 0.6033695206097093 -1.4792214689287042
P 8.79811973764397 7.497187029760287 9.462036940731357 -0.11017639844679092 -0.06577473240296414 -0.05402787627968115
P 9.120476135396482 3.318818874312032 8.44695487998508 0.4348092829073866 -0.0680704704156763 -0.6006503219063333
P 6.955280387657254 5.225709886896589 12.607116835579767 -0.698647661788429 0.2613608638748273 -1.4008398463950067
Ni 0.33778332849451076 2.8979449193256985 6.319730769396027 -0.11114827544175696 0.054640313052699445 3.163771493428016
Ni 8.490385234585512 5.410683324641264 0.6029008313982241 1.6355288574056026 -0.847062020670496 0.7043614243437547
Ni 2.3221176997718604 8.824960434351636 10.366003692999824 -1.8613110528448715 -0.19719975581588617 -0.9932806574528249
Ni 5.175272668599848 5.6220630538782945 11.28959816686898 0.42878647375207446 0.96200730126084 -1.0894576562967302
Ni 7.637000810441029 7.989479050676421 4.968704670322188 0.8842944226593932 -0.5275975677847171 -1.091342532024269
Ni 5.370708802168585 8.191597630429609 12.430068058082044 0.7590369615097637 -1.6183289485875483 -0.21297270237942678
Ni 3.031889608267677 6.2012361178564355 6.325736652564291 -1.600187501791831 1.206714101518754 0.4627682300141578
Ni 0.9935401833989792 1.2180537384010222 8.930065238329107 0.11346921026544973 0.7261844337561172 -0.32515661817454966
Ni 8.251480851493305 5.3689619386431895 7.9990572235408 -0.23831889445369925 0.12405521331141217 1.4094101045625211
Ni 8.182354966274076 3.08277971710804 4.637130563607363 -1.2588928404048383 -0.49844845702458673 0.38346872365188156
Ni 5.311712876863821 3.4086298419113423 11.862247758486145 2.147440896134263 -0.47023959869053855 0.015532548417960344
Ni 2.3930366618372623 7.003360726594334 13.901880989406047 -0.9801996558991507 -1.323970289630462 -1.465183245668083
Ni 5.824486641548615 7.834913978003449 3.2211451723156097 0.2255546528094954 0.4007326529386518 -0.09836732162700478
Ni 0.538795561348281 0.18967610526700937 6.63499064960992 0.37086851838936774 1.994772389961532 0.009520023675293282
Ni 7.960715879824403 4.102809375976776 2.684466181058946 0.2256335856765469 0.8399140967718052 -0.47814419824959586
Ni 8.560657210160025 5.781055362681768 5.763111654490216 -1.0025294297446026 -0.309879380300505 -2.037935298502252
Ni 7.680607699926832 7.539952836807936 12.322306912426274 0.3000451678189026 0.03434736713161827 -0.150555830705102
Ni 6.830827914803007 2.53416290082809 6.7693734408328705 0.4239687406484569 2.327351011631766 -0.7065998267559702
Ni 5.321621012838552 8.195701373314664 5.551066453433987 -0.43603107112962974 -0.8295245260073649 0.36754459622245733
Ni 1.6371253738770268 7.5452766113615235 7.989709193013893 -0.2735257813721354 0.9400341394238584 0.26275414467792807
Ni 1.9950660286283386 8.80374852011469 1.6474956430595344 -0.32943853337935525 0.5824065452047971 0.6884696928141627
Ni 0.4795500841113168 7.222356411095524 11.470029759447625 2.277942636401967 0.3545368711088797 -0.663471113887296
Ni 7.284956975420947 0.48376011763416193 6.265971737601786 0.10442406934404597 -0.5407289629603527 0.4911208130149219
Ni 2.5000759554224854 3.5541463463760485 8.148698729018118 -0.9714332225604302 -1.0077389989699999 0.15843626189444326
Ni 0.8943451388825564 7.468580984198913 5.615201300009228 0.8068278557407976 -1.8290033418511016 0.06327356324766523
P 0.20749596175887627 7.362872634252088 0.36878045127292053 0.2517775910617664 0.657662477625319 -0.026380546876057794
Ni 1.1120773511936852 5.022130966206828 6.94895193550996 -0.22306736761126744 0.8943500071231822 0.06727368554599382
P 6.114151736183008 8.929753760547067 1.0227322138678134 -0.17350498330210762 0.2773253576238837 -0.04872034802383868
Ni 2.8536540726923865 4.931867108063897 10.847355172355053 -0.5697492614521027 -1.3380270248338442 1.560739580208854
P 8.280280993001943 0.8893614943698933 4.070041358746166 1.4499564014159996 -0.6245656950713501 -0.08652867712086387
P 4.090766184582117 3.764703478503237 1.3285618038438167 -1.7034574029267762 0.8320683754751411 -0.8477225370726303
P 6.634458272154561 5.210043571152961 4.121147745927768 0.14667732158630223 0.1131863889177083 0.5981041584457119
Ni 4.884350571640303 1.0024963249656904 2.297022942323174 -0.03848787166255307 -1.9859429645953606 0.8273861395081235
