# total energy = -381169.44282060914 ev
CRYSTAL
PRIMVEC
9.25695575490445 0.00000000000000 0.00000000000000

0.00000000000000 9.25695575490445 0.00000000000000

0.00000000000000 0.00000000000000 13.54849045472713

PRIMCOORD
 96 1
Ni 5.0041343392046524 1.3425825618853544 12.638695572063558 1.3871932021458497 -1.261623094851808 -0.22790078444416884
Ni 7.102278877741467 5.154078506732622 3.2547946664354717 -0.18061948285970184 0.3379326868932954 -0.040554010162962416
Ni 5.996831748598673 6.92445275981257 10.153821346179573 0.9578097182397247 0.09220310179782185 0.019592063199314644
Ni 3.7678586559395724 2.6490722537131988 2.9942298789569395 0.8515262270894366 0.6502412454605834 -1.1807061074907663
Ni 1.6789340452245787 4.679354050420927 0.20934882898476823 -2.563366454763269 -1.5143465947666113 1.082421061164923
Ni 8.952374032830976 8.805660542822903 5.374564379053166 -0.3523048964545674 -0.05223633159689714 1.4427010054051668
Ni 2.617552319744022 5.06583194857457 2.803453280081528 0.5418641050060603 0.9548238961385234 -0.8601779892271638
Ni 7.725781125169937 0.795231734369966 7.254159600390245 -0.4208600198161461 -0.6241440341528992 1.722086845102505
Ni 4.1667131037897756 2.3797596431507095 8.563567084637203 -0.037810128869238104 -1.850942050905722 0.6034787924940639
Ni 6.1529965903196775 0.6851535720201641 1.0894964688719317 -0.11082868731880913 -0.8046185067943046 -0.7227561248008585
Ni 4.273464316280981 4.432924634211392 7.820933372238711 0.7803321234431142 1.4676414774005886 -1.5108997738685916
Ni 4.393813996613807 8.522527297483327 8.245069491649332 -0.01899376749368342 -1.5520597930466689 1.9042183937313595
Ni 3.921912911773654 4.572954602244209 0.5784023595289592 0.47274616716247614 -0.25104868331554187 1.6022310145844212
Ni 3.724350964410899 2.3806390539369273 0.48460903354878354 -1.2674728687643657 -0.33685745155124563 1.5886213942207867
Ni 2.9821652886655947 6.381337915200058 7.559271635516317 0.6230947669527785 0.7415097512592779 -0.7556356491376987
Ni 8.046414297824972 7.7039069389822235 8.649478112886174 -1.6470630832974473 1.165530685301909 -1.305072424284694
Ni 2.8904843999634706 6.686817451465213 4.778050785805941 -0.0006569168577085461 -1.1158919392288589 0.028166949352519233
Ni 2.5450518431370917 1.159905799198792 12.036654650601061 -0.1550197800137266 1.1170985579424504 1.4671460258214089
Ni 7.105139277035587 9.186852719303593 11.795586863100763 -0.225285972529141 0.26631743654915424 -1.2957596315242006
Ni 2.945109695221067 0.6229023967027123 9.860536923280348 0.21367512776309006 0.3748287885886964 -0.7944667630722835
Ni 5.035293251903698 4.176053372034974 10.10358384789742 -0.5480699767064561 0.7027210605268542 -0.4987927277378829
Ni 2.295151068560906 4.744763699004247 9.27659705288491 0.5602374653069255 -0.4959886826301846 -1.3682863379390178
Ni 3.463397384795301 6.733592848336359 1.0278321845423346 -0.8636888305938997 1.2958210808897555 -0.0683221814151662
Ni 7.77375066931921 2.983785255903364 2.9847053972944178 0.34743368440519523 -1.8822179782008681 1.0527289334171288
P 5.03365477075464 4.64307604125053 2.713695061066746 -0.6184585537323478 -0.32856281564262124 -0.20988480748272242
Ni 4.003688857936272 4.485050551445 5.230733505032758 -0.6660612432119756 -0.10764463316387267 0.3874511053383972
P 8.990475662263322 3.4404679056641263 4.782874585392237 0.8957183482256187 0.2261282659247783 -0.20089931615466047
Ni 6.184220301708234 2.0973669542626854 10.698646876195168 -0.22918016537722466 -0.8173099862190439 -1.2633719592221146
P 5.2120733338447796 6.697175984831294 6.937870717019126 -0.4288566648683775 -0.6808890522534274 0.5081649129814022
P 4.038967115897075 2.3453515390204798 10.990102124659058 2.0477013767500796 -1.7276262868634957 -1.5624041123954704
P 3.183300420907088 2.582005610069531 6.469512269104084 0.2965047587658119 1.1127024857572836 -0.4942827556826713
Ni 7.566783655021746 2.326587689929284 12.529860618856798 -0.6840831337106928 0.7719495558063737 -0.1287024822754364
Ni 6.437259184247871 3.1495125328050326 0.8961121855914934 -1.7153798653959749 -0.030899003571701625 0.9157636969122681
Ni 1.0370659977976224 8.772187391212757 11.042589063162799 0.5809232757910512 0.4245845198555849 0.5369116460967914
Ni 2.1656462590957695 3.3640887646421933 4.240298495598229 -2.4684081588178133 -0.7887126341973255 2.7957471293556626
Ni 2.6096746504906387 0.8017143804077383 4.996710260777846 0.5943886572673376 2.0862807796851746 -0.021706281328840036
Ni 8.44028850353849 7.223100662812159 10.75136338719889 0.4417188655430263 -0.44997673467644433 1.1966034954473133
Ni 8.265267243169845 4.236816028884807 6.679893248643203 0.1348481901618581 0.22313473051409313 0.09949757857670606
Ni 3.8120883900085087 8.249224939038102 6.152356008989085 -0.4244004288692368 -0.4616289742033921 -1.332746493161195
Ni 5.952648299307958 5.763871202851737 0.6240058258155246 -0.8062804678777599 -0.8036954807594029 2.0450353998821424
Ni 7.170678522997929 1.435041034861608 5.256462287550799 0.4156699909747744 0.12378833280327066 -1.2430880121620977
Ni 1.9909304782633896 1.0795369102941232 2.4222259271693884 0.24786102961617956 0.30042954774151487 -0.7282868248111005
Ni 1.5071249484645401 8.380303430962787 4.057135742740336 -0.8842088049241223 -1.0603424840983287 -0.554540157811832
Ni 8.335953356470473 4.385788216070114 1.3033182588240735 0.1799165432554063 -0.0732270749159513 -2.532632258904206
Ni 6.1973559217676355 0.07077035159699192 9.130436203128806 2.2884558772284653 1.2087522149947054 0.1395779915373596
Ni 0.7543854175890571 5.859199332077754 4.2115075121530205 -0.6711003482977796 -0.6402072582633491 -0.6574729873223323
Ni 7.462809529223861 7.423374898178722 3.889635758832765 0.01766862092435667 0.8911214728835556 -0.4832349825089419
Ni 3.730367985579758 6.320399376192982 9.986809203834461 1.6927132770363944 0.805051223456349 -0.47726230986527485
Ni 5.219043821445012 6.51569336942286 3.983445747333101 -0.9300716288945079 -0.5321386501881803 0.5564265762012675
Ni 3.468405397798921 -0.06093853900707615 0.911548159128528 0.6204226194372541 0.34936509709995317 0.05078468675203511
Ni 8.331935837720803 1.566897111060422 0.9548633059797982 1.507215897259101 -0.28786636636452356 1.2874554825338795
Ni 2.702410832136224 0.6205539070557284 7.356383235875774 -0.47687330195697225 1.416797655275844 0.5415689423631447
Ni 3.025413785436225 8.157071945598114 12.38319804210477 -0.1626803818827779 -0.7548684319543709 -0.20267003490183808
Ni 5.945964777332702 3.2317142989272925 4.5531326831228585 -0.8776969719475335 1.3319304250178028 0.21971927707464095
Ni 6.7469598922868705 5.038320276399418 8.43195724345853 -0.10836557049029724 0.7636747173920913 -0.21101506443242365
Ni 5.314557089783917 3.936122338687806 12.459517012915013 0.6056814565723375 -0.7773522148791838 -0.535263311860091
P 1.2640372932426323 6.556451745125147 1.5334452504482587 0.19057402296925244 -0.46299757241614453 1.0894409441261819
Ni 5.304966883736319 8.862822243927065 4.628611122360591 2.5434278068578133 0.7429907066801785 -0.031452304972010355
P 7.7886358539954035 0.3178403491371201 3.476082191114821 -1.5034800843657525 -0.47898829141744603 -0.8363356353919273
Ni 0.8121978826750198 0.09660558910494406 13.380014796760547 0.4561574095658595 0.6607061495476492 0.3934944833189997
P 1.3950139586552284 8.0923935965107 6.720010117319333 0.3582261470350089 -0.6750009689037665 -1.2429586856730852
P 0.30852044619433955 4.223171276264963 8.517746079892994 -0.8577056164272712 -1.163821415920286 -0.905204690449499
P 8.035102298027518 8.613569456245987 -0.015925666490623394 0.27786014708143114 -0.8938650970669638 2.035845762963074
Ni 5.31896340067065 7.913030823944832 13.347756157730945 0.29078302579068627 0.41254327242033473 -1.8747805480862165
Ni 1.6324733848453419 4.819615442344855 6.528746602577026 0.0227923153041672 -1.5056490669926132 -0.7534841500123347
Ni 0.8095300280583041 3.3459821594017494 2.330177537328182 0.8693851096477285 -0.6056264349646859 -0.5550746901590634
Ni 5.68723286707176 1.5578715793071334 3.152652492159613 1.039578769188416 -2.283865429644305 -0.519421459731828
Ni 7.982596845612488 2.4391985553433932 9.012781222584065 1.0126287229621334 -0.01398988652118881 0.44758200919202273
Ni 0.5337995701475534 0.28104857892845775 8.211143674908175 -1.2906927585242547 1.4986019303378448 0.0404863901498206
Ni 6.230856844244714 5.153597145039113 5.720185777774691 0.5732801574234965 1.1055615038371285 1.2150964120451784
Ni 8.403381021384272 6.489884977086277 5.820973659439774 0.22712533973072496 -0.45944430784724744 0.38276475560632145
Ni 6.340403657340528 2.8687027833322003 7.399019847878311 -0.16629149627280393 0.8811939293571986 -0.3183825326755097
Ni 0.30192023681988334 6.303560973875821 7.8635709099368105 0.7503672016499078 -0.35843980570771167 0.09429263733699889
Ni 0.2740040356830704 1.3608095075491753 3.9832022893996526 0.48205973125391816 1.4146412710544733 0.09206940443343499
Ni 0.2369715846276537 1.9769895030629256 11.275866196792773 0.3686825664816425 -0.04553192299352803 -0.5938402409630353
Ni 4.824095808876744 8.936581666501633 10.929363535893902 -0.47615005063770255 -0.4635727281933242 0.3031189216482199
Ni 5.268725902388499 1.0074529966911911 6.716948842087731 -0.9795008300599132 -0.5349478375022013 -0.23013507309132622
Ni 3.637529977422084 8.747573146154302 3.323282252770555 -0.8233654483845045 -0.22186383422146955 -1.4142244952320289
Ni 6.831244473429121 8.157627362936777 6.36455227753007 -1.1868525867081365 -0.7042624368720453 0.295683034195465
Ni 0.06120606502519927 8.578559649998871 2.1266661445727713 0.21733586444412895 0.4601806717926397 -0.005870599848164083
Ni 8.227184127648789 6.570420491192545 1.4532652034387357 -0.11995816042390309 1.6392407590395512 -0.19424684383514934
Ni 2.8870408124637543 5.725056787834774 12.246792172206733 1.4406078703215641 1.341444535155825 -0.7098759264040807
Ni 7.512065790207706 6.017317391439727 12.672323314832965 0.754966390984816 0.4774898524950486 -1.392592004563918
Ni 5.363452329497631 7.757763906921334 2.071523385494653 0.8875080445006843 0.5414532427208868 0.4482327554021442
Ni 0.7483471054222158 6.946021466464019 12.97081014680434 -0.3616218029801192 -0.22298560653073854 -0.31628656937842947
Ni 1.9152641228260754 8.004285892687314 8.862257569632757 1.2296303439952951 -1.2708101606677145 0.9171446364201947
Ni 1.4771786969549106 2.440670411290853 9.018240975023131 0.028624348604911993 -0.10010795846719533 -0.1257380003304738
Ni 0.4440626421307531 4.961635655841219 10.5701529262864 -0.0767703121825194 0.7430842948352493 1.0866340708050062
P 1.5074211710451608 2.211384876934743 0.33805198609110004 -0.1645742564713811 -0.11879602179500186 0.8387635281071296
Ni 7.386846951205926 4.173998327881918 10.650657892439042 -0.055799109247491 0.5482687229808235 0.19467596095276796
P 1.8683406146646189 6.852155936229817 10.660033337115689 -1.8070821162979782 -0.8889164948124368 1.258594078217497
Ni 2.6336131377870533 3.654942310989198 11.340045595970954 -2.275109023607914 0.6356273522021505 0.8882580352928315
P 8.732743503211974 4.26554961920502 12.382317705622986 0.24772913202400562 -0.6989240553782673 1.1860917972827123
P 8.59204703437276 0.1715165769616755 10.023349184849595 -1.8113059245713388 0.9083707468823066 -0.480295954485276
P 5.178535383545123 6.011466995472467 11.956217260224625 -0.12231920445691191 0.6677067492351985 -0.18163661127030653
Ni 0.24775316086668478 2.207876490745516 6.762796692003308 1.0500750407340498 0.35586433167105164 -0.8517391144311911
