# total energy = -381175.04937046586 ev
CRYSTAL
PRIMVEC
9.16302884562217 0.00000000000000 0.00000000000000
0.00000000000000 9.16302884562217 0.00000000000000
0.00000000000000 0.00000000000000 13.41101892871944
PRIMCOORD
 96 1
Ni 4.753696877617638 8.240330131855211 4.191654100374011 -3.324484210061461 1.1524483981966538 1.0252386984166602
Ni 4.427373932727312 3.380433750368793 0.19997027546425492 0.06899092534741666 0.1546783375139078 1.161688171627367
Ni 7.087007185051779 2.8074878851481637 2.7128878594456896 0.29688322515115323 -0.20265923626856067 -0.10079624278347157
Ni 6.176623620998388 5.991759514824735 2.0971075834627313 1.3529635915390184 -1.4704342096543772 -1.7604405051800391
Ni 4.65047535811101 7.939901906372407 12.89167689400573 0.13502688183156744 -0.016331647280488006 -0.1970971687997509
Ni 6.376221877493094 9.15820905347242 6.0145873684906785 -0.3488434202685282 -0.6370129196957675 0.3826657681346119
Ni 3.8229072484118936 0.11440316355935143 6.060693896839853 0.09756256633752229 0.15447136370942427 -2.3487374477273417
Ni 4.563509051707335 5.502600385011881 8.051640461154792 0.9015987182657955 2.4381467888301103 -0.18995927220338898
Ni 6.919589485725939 8.035518111969536 1.0770416482911618 -0.550385255103194 0.36071291801260463 0.12123599869506217
Ni 5.12238050468099 7.915610717006044 7.546862948741047 -0.20233707704245155 -0.44994099634250245 1.5688118156940272
Ni 0.4168151847787899 6.784911288326168 8.332641232961791 -0.5714762714455384 0.9535933661655318 -0.6504842147093248
Ni 4.587791078044891 9.007669653208383 10.489509173998446 0.8073330775119902 -0.6534571812947197 0.4759944988964448
Ni 2.0836819136552647 5.697892017967474 7.336215912111313 0.8824401430594737 -0.10900603228777356 -0.23269280651617347
Ni 7.9531791351132055 7.2338172325915195 5.7543326102047585 -0.056155978366277476 -0.8072816554487645 1.6048311712114296
Ni 3.6527223143864527 3.6549489303864626 11.369740875460758 -0.3712732100269541 0.9942790168103521 -0.4336461158372209
Ni 3.615364645941844 0.5831901314264359 8.124730276733715 1.4027764012960873 -0.09028505883950258 1.8590551669311595
Ni 7.2290066424680415 5.29042128996568 4.237747800482856 0.7955008607637526 1.0844452906838034 -0.34166772845569543
Ni 3.0635303990916776 1.587403110459664 12.214661929113861 0.12000444028080624 -1.336425484674679 0.23312655161948237
Ni 3.314029280607184 7.3634007859748065 9.035780909284227 -1.2567395415072613 -0.10401526394140151 -0.48789742098161787
Ni 1.6098616940647013 5.72790093730917 4.9798468426852995 0.42928552487568006 0.4509869211085136 -0.04535117444128964
Ni 7.890980495573838 3.7567135283128366 10.699162938305543 -0.5337131937641518 -0.21178793804270624 0.9209694094829236
Ni 7.578722799901681 8.159173185714936 8.066365448447037 0.07706110395006083 -1.3236375888813914 0.5746852653011393
Ni 2.360057188520679 8.427347549798421 11.258885636655332 -0.5315413829238136 0.06117554306805593 0.2471606611150453
Ni 6.725571513774468 7.988310187557804 3.609361029467743 2.447178817125392 -2.207976234515159 -0.7613540396787146
P 0.4348553558932726 0.869988351559386 10.803246698822875 0.10664190293097117 -0.7074750302720719 1.3600438954245675
Ni 8.8262233567796 5.0332517234789504 6.052821938792081 -0.13635048573899744 0.08677318903150216 0.5898192927291004
P 4.5024741168264075 3.872057734930628 2.5912908019702567 0.7365315813183961 0.40459393566627094 -0.4575182944691282
Ni 4.667023788135775 3.2888492774465794 8.201576017820472 -0.6729759680539377 -1.9439635348397808 -0.027535486416107417
P 3.642835406304105 1.6352890990030848 10.01791007259061 -0.45581493862477623 2.0789356521740134 0.1953390484580636
P 6.025451971746694 7.480238566288079 9.985697444820921 0.6039403055115147 -0.23611134527941918 -0.17245571610198687
P 6.77016797497631 0.8411055684580242 4.173066896439773 -0.1734749013951206 2.655569299450775 -1.3257857455726458
Ni 0.7836698712923392 7.244473835093625 12.701334212908598 0.0836932645545978 -0.481475576615674 -1.5907189001797637
Ni 1.785654401719796 3.1991615514873364 0.05714431284963431 1.2146675520378758 0.8501627710830069 -0.8649525277976716
Ni 3.502677717677973 2.7031393130983212 4.288133463284724 -0.6127131666081383 -0.7751624063167166 0.5394007310672323
Ni 4.654891937995804 7.630622195062403 2.042243032180185 0.27128249386391345 1.2250368110873417 -1.4934232143503827
Ni 1.5396362412907294 -0.027391958314523894 9.010246296908807 -0.8611385533682202 -0.362155306886086 0.08501789690329228
Ni 6.241616984323777 0.7987027363524878 8.413228238710293 -1.8628310890338242 0.07869709689158705 -1.2801188396631502
Ni 3.7081036604936926 5.689260444831634 1.0171869115205279 0.5996041400300062 -1.0854390220556402 -0.021372552138505127
Ni 8.5278751388359 5.305970949850522 2.2595021103967796 -0.6838707605895706 -0.5745675087763524 0.16551528022841172
Ni 1.5760226286818362 3.5055274196368336 5.992727130666714 0.9136391943700976 1.6943053041138627 -0.025716430929497647
Ni 1.354506407281684 3.150515031552966 10.699457987833117 0.4918795455578174 -0.6151873391802438 0.45547452456622206
Ni 2.1859321521083896 2.379024658150392 8.396263807177707 -0.8702911664017656 0.977477114761665 0.5744114428144624
Ni 7.149938866895678 3.317685329101027 8.439124790723575 -0.5021207636698515 1.347927057556375 -1.5389659359771883
Ni 2.855208939173065 4.502529094999248 9.204531829301432 -0.12553694006326122 0.4866766612006393 0.9604088464254684
Ni 8.851623272631564 2.023444162280514 9.172707713953143 1.3986796055188944 0.34352766448256966 1.935372964957293
Ni 5.94776781352413 2.237318417655941 6.5662630949424905 -0.402654552551713 0.4170802410587398 -1.1073129393105963
Ni 4.0652601973183105 6.298308643550365 10.9303690626687 -0.44669035061568874 0.22099557268390327 0.6293484611719742
Ni 1.331965356417387 1.3708165985574758 6.30473467565245 0.18106402659628815 -2.379818485402863 -0.08133993383107281
Ni 7.246269788739722 3.945068748461814 0.5781449677655084 -0.43698880705720866 0.15832570445850797 -0.9397654591435042
Ni 1.3323776927136852 5.686035058691702 1.2543471720022303 1.0762969505450561 -1.4565417679430013 -1.0300060378983162
Ni 5.454531135892329 4.573753317913142 10.072869003069863 0.18608564818059567 0.3375735037816638 -0.10127883884684492
Ni 5.6113197218024835 6.700803846910161 5.682758359590453 -0.06755110757709655 -0.15065893194186955 0.46913890942719205
Ni 4.741363440843921 5.818770693984467 3.7734717916972724 -1.3034048067742843 -1.060541230372696 0.1359995301574819
Ni 3.9092413058279116 4.53776094076072 6.09789671009763 0.2593101519933857 -0.37346070459657615 -0.9383117574161132
Ni 1.4329052817511647 0.6822406402202877 0.7481448086090553 0.7617281351886818 0.6371697569886058 0.5621064001948642
Ni 8.617214669700491 0.1823653482180869 5.080039981171337 0.6130952325379054 0.3980607625334435 -0.42418085665926303
P 3.395332835208365 2.2588881874667357 6.49922087837594 1.1318633749564508 0.30487704198990717 0.13729382348887323
Ni 8.99857992863221 2.556924862431011 12.436266115590557 -0.5702933068810306 -1.732245530803062 -0.020663441886622474
P 5.893055368519773 3.574076038139193 11.88394622821364 0.3668689103116714 1.9233746549448358 0.5627270644979986
Ni 1.7266353331763262 8.263475942620744 5.177766432302632 -0.15096077945300454 0.12357673101309685 0.03438310546556014
P 7.766271673515676 1.8261916411603039 0.6742578095239563 0.7714952418777746 0.14432656196593854 2.6611038561157585
P 4.241859251508388 0.6385357417213299 0.45396210356084643 -0.8560007179210225 -0.009406638025880574 0.6183191999410061
P 9.058194594048112 3.3477034114715294 7.355045020006045 0.1253929582862292 -0.6875929466361642 0.440286503971874
Ni 0.26968259862505567 4.611120149386557 9.209347000939312 -0.8721966109545948 -0.8246330022430184 -2.0691991416125397
Ni 7.3145160272914636 0.4749894220662888 10.324325421095661 1.8983431658975047 -1.8103913831768694 1.225237100023606
Ni 7.825345720231985 6.199155508833878 13.351138647456313 0.37110865942463184 0.038716699843907514 0.7780191590392214
Ni 0.9565835552963927 1.5886859344925914 3.773324266933486 0.7157732657251221 0.6992852953724279 0.16958867896683696
Ni 5.576793429259122 5.63030551748981 12.780245300688367 0.4888142763689323 -0.39949260988396357 0.07135479759390291
Ni 6.097830736290223 2.250696439713613 10.118278224926854 -2.341387949340806 0.4731359464017271 1.576921332175039
Ni 7.10133816210534 8.079528139327754 12.061025425113185 -1.6304054201361082 -1.0173089020466222 -0.7519360887989243
Ni 8.589716420251811 0.1678932605209038 13.129226583211716 0.4013782569424507 -0.132478661488417 -0.6863305349839728
Ni 0.3469984030895936 4.776430352086873 12.509355931169479 -0.7296577370166982 0.8402527110581465 -0.830484318817473
Ni 9.097879671809604 7.638200019885482 10.399038009076238 -0.04156753902914132 2.668285461465863 0.41931710080905854
Ni 9.048115262360826 7.076268115290415 3.801340227509741 0.8919730222505734 0.26275928688425065 -0.6856283667106257
Ni 2.6594866438635614 6.970948262187071 3.247545092494957 -0.2565698702440872 0.9147344843168053 -0.6158560831124942
Ni 5.564175938592399 1.0551502561692547 2.198065834854122 1.0800415051891528 -0.2949489842429178 -0.34651425791471935
Ni 3.3952961830931385 0.5220360771710227 2.67757721163648 -0.8220009639368101 -0.6345860554218298 0.08373311665359773
Ni 1.475238474837771 5.997184027878257 10.424626683321618 1.7361852321771 0.6203010062577252 1.7489610437855299
Ni 7.881808303738406 2.8135904623333756 5.029548027235314 0.7345063233582512 -0.5719470404343698 0.8044632121633629
Ni 6.910380641775282 5.834439473243795 8.874741594310679 0.6088678247201192 0.39190965533038313 -2.5649425410011375
Ni 8.28732730660439 1.0737878567619294 7.341956549658663 -0.8923301484796762 1.108014079142679 -2.172172337442672
Ni 2.4084471436484645 4.601159937073756 3.0250301009548823 -0.5031510047065786 0.052651050536812544 0.6904183319001012
Ni 8.375237404975147 0.18556874308888288 2.5451567845346625 0.12103725242069478 1.7592853085296734 -0.43053379546048426
Ni 2.834253092292314 2.625601763336663 1.9599535356794113 -0.10737492444225379 -0.9805488117084533 -0.1371526699253186
Ni 5.737558769671352 3.6095919377936703 4.4489849361677365 -1.5815274634884828 -0.523490230484563 0.11066285116490619
Ni 0.24458597902659127 7.575616533136235 1.4476119429857977 -0.8949439319534395 0.9821848046499795 0.5653166796020458
Ni 6.057907419779758 1.790831512995539 12.870836501287945 -0.13618233559224932 -2.624399815826506 -0.046442093512623246
Ni 0.21387883688983056 2.9957056598650413 1.8408497383422613 0.24081569273362396 0.11110122425390544 -0.07018905942057589
P 0.4333242137796856 3.9052095731529968 4.20753271299301 -0.1227084694755306 0.4801036359688119 -2.194786218187446
Ni 7.687268039144957 6.027577794429831 10.91984165887277 -0.2725001683210984 -0.24078483949568852 1.8484730205399391
P 2.43628442516299 5.367766416122398 12.517415731307786 0.584828010162096 0.172242057429284 0.1076510609217759
Ni 6.485582626300159 4.769063276926348 6.435009121407756 -0.3734805020909181 -1.0371768446151428 1.2227860673799522
P 0.5030768542672355 8.647113632696508 7.093449710605717 -0.12982554013628608 -1.4015623263833281 -0.2025093409542577
P 1.4700247114468015 8.803783099232177 2.8520009627878653 -1.3289561728808272 -0.33146044890539045 0.04292482438798414
P 3.3870402941383695 6.917436173956382 5.864504287061211 0.3141612955053105 -0.28449205057565197 0.03172741301026794
Ni 2.5909746774764284 7.696605165498908 0.7210689747883599 0.07917917873432816 1.0868114769231347 0.011694405618792762
