# total energy = -340871.6251881538 ev
CRYSTAL
PRIMVEC
9.16536499316167 0.00000000000000 0.00000000000000
0.00000000000000 9.16536499316167 0.00000000000000
0.00000000000000 0.00000000000000 13.41443811678440
PRIMCOORD
 96 1
Ni 7.069236954775755 5.597251819766051 13.19911013877372 0.169672754040211 -1.5193581890485899 -1.302380479274828
Ni 3.696685046193001 8.505321354594754 1.1442949191948357 0.85236080717559 -0.46812358078880023 -1.8422792330244013
Ni 7.32109202301814 3.3599861929977517 1.0772328591190432 -0.9063174638977036 1.1442494073256293 -0.5726983167780976
Ni 5.724421260861545 4.14473392027972 10.640372996427187 1.0275328937674755 0.5306762067100409 0.29842177328286673
Ni 0.6503394808115394 8.896059200561105 3.756511967039908 0.8693933371778447 1.645053509066586 1.5961151314946704
Ni 8.282346351858093 2.5389802812852413 5.744639139788576 -1.7377412638103107 -0.9886359595919619 -0.9151039518410821
Ni 2.4884241272612595 1.4566148176967582 8.849585300163353 0.13351970115842166 2.021644274651712 -1.1579004224501608
Ni 4.725139832122118 4.19530840503395 0.6148200248099913 -0.4025900178623647 0.3523609465034835 1.7945060794051804
Ni 9.02944275921067 1.1492176368029359 7.549029154432937 -0.29028166067423555 0.08597151906581323 0.7348809330888505
Ni 3.8078242636866197 0.03174149249743537 10.48679080611735 1.2068513984275668 -0.00458607670878565 -0.5511722697808635
Ni 0.3468284147302931 8.696959973972463 0.10318643017552454 -0.3247364999179955 -1.933982512367669 -0.5203138896391103
Ni 8.097966701658594 8.800033670156962 5.808666547471812 0.6988260963478223 0.7046807553563864 -1.2375262018036042
Ni 0.6158007188782594 2.710794215899737 3.800618453626131 -0.13777436266971754 -0.5729227740840779 -0.37034092802067187
Ni 2.8646257041409466 6.526995623309693 -0.0751312475309618 0.3880357741972737 0.5182163836801333 0.12974326483512494
Ni 1.3373367559730274 4.247963427671328 10.758687778276386 0.18040788106952801 -1.015563123000109 -0.7283385039846425
Ni 3.7593211514504135 6.199187174284724 2.0526504266851124 0.7834513857983862 -1.5275407248593822 -0.5828096941804866
Ni 1.6275763733547222 7.110774389517722 2.0808073448825515 -1.2077646542704554 0.979058857426488 -0.37510106841347657
Ni 3.0153409682399954 -0.1943479013083616 3.0951263881809243 0.2828239188446097 1.0792784017708832 2.3886473965484027
Ni 7.983949559516039 2.9307813096059756 11.234860575246097 -2.286779260856991 0.3404616239627362 -1.0153234961854771
Ni 2.8821040554324138 3.012609689433044 4.572968191504866 0.6297644656634702 -0.612596438524616 -1.0537213792373852
Ni 0.12169496850692929 1.698305496016627 12.366743756990012 0.27507152859270045 -1.3412319049243868 1.8284754943720898
Ni 6.954999843870225 8.224714535958384 7.820859219426565 0.348402990297 0.588501088138309 0.7105076464508085
Ni 6.769914460556177 4.46058156781787 7.345397654790475 0.2647935437054601 -0.7112733209722395 -0.8820717039764615
Ni 2.0003501036780333 5.08421134158505 3.5614262538390644 -1.3434667077921767 1.047274338060461 0.0830332623730957
P 8.80018948136407 4.564984241945349 5.751493916364815 3.138384420813479 1.625778719997374 2.209058926056376
P 9.061924813210126 6.285625732769164 0.9035968499178959 -0.55965073956552 -0.04575072387255347 -0.4765208037135599
P 9.122883656649847 8.28316206935413 7.791521802201156 0.6163031979522419 -2.561582623389969 0.3279138692047127
P 5.238546924908079 6.76480935218211 0.4087496215080343 -1.906064188690846 -1.6305213768886822 0.5213335891528764
P 3.1758906691170963 8.868535609093735 7.974320426916765 -0.06382609331702556 -1.7236089381739863 -1.451923038224067
P 7.074809496771148 7.318699862720777 3.881105940535558 -0.18530043327513893 -0.5080240165281638 1.4609355261353227
P 2.932898508949619 6.830405870374575 11.310008320434282 -0.5679911411104154 0.2171075504834067 -0.7270084723193092
P 5.700426334966914 6.433829686824237 7.41196020246701 0.29003277788822307 -1.2254363605186056 -1.3658000811820543
Ni 5.02896252061758 0.8427021640340427 7.6904571540518365 -0.20798553357748054 0.5652125499240137 1.6510205252832988
Ni 1.7329780722807175 4.812898203184414 1.0409471785931288 0.13452680226669736 -0.8058742335782766 0.17540142899387212
Ni 2.614035456285674 8.866840016545794 12.42185051479806 -1.0148038762365812 -0.9265787852499011 0.7388327186477469
Ni 4.1880036090301225 1.6062852301716712 12.897848253293905 -0.1833908749572519 2.0128624146940237 -2.3879722248582484
Ni 3.6737991294783736 4.581619379645408 11.970856808896999 -1.0500292750977789 -1.0795144290410892 -0.933703054999508
Ni 4.788445009033583 7.026388872821058 3.8048446034848076 0.10213398775828862 -0.49036722267834904 2.4592151794646355
Ni 2.9235040096975196 1.6106387786055711 1.3183122075851414 -2.0063199855898155 1.1216221568444167 1.0247633014421385
Ni 0.7144108822473708 6.3815962709825635 6.522905120854852 1.0174017188707447 0.07955687378872105 1.4044008242733876
Ni 7.216973475209505 4.663475255567849 4.592862533043019 -1.8482961286424426 0.2773446408975933 -2.048860687165504
Ni 7.92301821217169 0.6153259529648362 9.71830426963838 0.7342751811840516 -1.8286045637507862 0.7061210873473388
Ni 7.909572621534782 7.490642112447009 11.710697003315758 -1.475364299966143 0.20070314098345432 -0.23586889025130994
Ni 7.003979555092879 7.838870994968249 0.3035834724657258 1.2850461017614383 1.1515536542965266 2.321066464174635
Ni 8.251184110436494 8.083448763302178 2.3225621807582884 0.383613733870178 -0.7970748901190918 -1.5274895599064726
Ni 7.516350961619827 0.8366145285186821 3.6829745765040096 -0.5011005499354532 0.726874003623974 0.4002307736015688
Ni 5.095283102654841 5.33138290824907 5.6306705740811775 -0.6400074835477172 0.1391074796588443 0.41922762641904576
Ni 4.852840864394804 7.681877455759261 8.825721438989996 -0.9936195288494823 0.184984701806933 1.4177217097520098
Ni 3.400212980526986 6.361533286726129 7.196148849111266 -0.5406351176949656 1.7605924573768712 -0.9469930872401949
Ni 7.0759276713162755 6.027519885512212 9.118906804722544 -2.5767253925686786 -0.3864625161728828 0.12617868741231816
Ni 5.0798944546116465 2.967598581309082 8.753779738522185 0.009948112351647385 -0.8862960264704542 -0.25299500840863526
Ni 8.75406019869498 4.568952845044041 2.5368713307702087 1.1827763597562337 1.4822918803239116 -0.5181971004064237
Ni 3.382908771172875 2.9407074000352673 7.151424616915685 0.033099867877762354 1.222633600962488 -0.32193965389914875
Ni 0.09626474643388004 6.5754987355458985 4.117494455131194 -0.3598865654565673 -0.6118361633198237 0.3492663667385598
Ni 9.06161319079591 4.811715871083418 8.645565189039635 0.27807046332002433 -0.1673261081849054 0.5169164339217872
Ni 3.425940160430053 1.080734028596411 5.711009582075596 -0.718718207286059 -0.6442012099140905 0.85466400138747
P 3.22065431238271 3.849801635954538 2.5362545016973637 1.4369448196476802 -1.9103648729487297 -1.6813261182453754
P 5.633647484673452 0.7706257326989099 0.6858241084256161 1.3730428787873965 0.10956421878408872 1.7480621861203443
P 6.074675689075189 8.431191881471847 10.536075723998632 0.533975446286603 -0.39845516975838474 -0.24014823435295415
P 6.098734772525688 3.486853177044154 12.632256135803669 0.2596886183787269 -0.8339972170667379 -0.15182029923982243
P 0.755251749239913 0.6729742665217687 1.8034368166714645 1.0726308145473784 -0.5318566001713873 1.509837394042348
P 5.023527459099049 0.6356116555937844 4.46518349764663 0.9460692898743449 -0.8641737406501181 -1.432569830508436
P 3.83878486707549 2.3994650933677195 10.426211408793762 0.3166532086892288 0.09180818035224834 0.3083724567376754
P 7.911561505766691 5.032243721331973 10.853823351726987 0.8619415088854898 1.4307636305376326 0.45417560324914036
Ni 6.544034037075208 5.870563007763718 2.0338036863806317 -0.11348566532568198 0.6031836298511483 1.5490657434153516
Ni 5.717208118508958 8.607780971315947 2.557985582406367 0.5105791788498497 1.5888787616472313 -0.6492336301316755
Ni 5.1148969840202 8.549021815505986 12.607358421444324 -1.1574034282090842 0.06635014529045993 -2.109105233778858
Ni 5.3562302131002335 2.737263790377848 5.175639524842995 0.2525756614830295 -0.046519740828094076 -0.09736304873220653
Ni 8.859984323433043 7.076514254684212 9.794136667601329 2.549466042632093 0.7767428634299591 -2.064247454034219
Ni 0.9234838591639503 3.1272775724994024 7.260510792621528 0.8185592852451128 0.7710846367029172 -0.3110533460039482
Ni 7.38862243325177 2.68978719903553 8.928153559615815 0.47179203077932297 0.872139532464414 -1.0048984441974114
Ni 5.019815486223829 6.5291953109394525 11.30485646869808 1.120065353880258 -0.2077129966423842 -0.18168854755416453
Ni 4.928418465207305 1.9971972180753774 2.5508356810731345 0.6000096029985408 -0.21389649974527677 0.2524877297549135
Ni 5.852094797038859 1.3898909595940412 10.642317886906499 -0.9922280478185944 1.4997447856930364 -0.24155334223059688
Ni 5.062480260876047 4.407321631082309 3.4922744905150003 -0.19322611588011884 0.3037280159871285 -1.1880563772082506
Ni 2.385588730569984 4.80881045033911 5.764277767639769 -0.16122590882443846 0.3319268470188477 1.5270635281126475
Ni 7.25655868718006 0.5405319908704376 12.259468657432672 0.23907454167280115 0.45743730471954763 0.12007154607331579
Ni 4.364620194969595 5.101423897287922 8.873007390737733 0.008513436787649854 0.43051502640740696 0.5815118013046695
Ni 0.5543991883030489 2.606932298314574 1.0323528157163544 -0.1449667666530987 0.8614846238537293 1.8114779313728286
Ni 1.877699187588671 8.41774629083494 5.97979399623852 -0.2295465475777079 0.07831683073403287 0.3141232431785235
Ni 9.139537125080155 4.272224149154555 12.797951272661383 -0.6769537217547632 0.18207678413151868 0.6408454060679802
Ni 1.651488810963237 8.579964088164608 9.65159415958335 -0.15169020141986134 0.4155095541375103 -1.7623760316398551
Ni 1.8293702172898212 1.4443790552562188 11.012637132449603 1.2176831989357482 2.080590928389249 0.27884487959220366
Ni 5.036853899989343 8.330620329966198 6.25680249252721 -0.2791546975231386 -1.4405998999017642 -1.6548432414634984
Ni 7.787874903418316 1.1791608846630426 1.0900130442479483 -0.3519305438342842 -1.3849152047449502 0.5783938245009781
Ni 7.67940280717578 6.559184385625179 6.078404159607633 -2.3765251593635717 -0.582104697693662 -0.16357486867258925
Ni 0.7436218174340699 6.2675149712841405 11.95602083237078 0.7567437946002129 1.1749735758823636 0.37490129369784464
Ni 2.2448453837258464 6.4863655597150025 9.353767452952008 -0.031326578027423474 -1.5437870115149155 -0.010177454753634086
P 0.32383159709766574 2.3787513681874803 9.630010641252843 0.3096263837494345 0.2703108739792635 -0.9852007086581677
P 2.1339261349952037 4.695297403278376 8.177428584210645 0.7268475212614127 0.02303836987670226 -0.8231065382961631
P 0.5063534277865307 8.818190258467604 11.282884338886317 -1.7808540358393845 -0.25140786642717344 2.2329796985380317
P 7.563085158387103 2.975077519250265 3.226454155433177 -0.9376209019966755 -0.9435215837518266 0.12994278244044072
P 2.4858394942962914 7.19466497649769 4.20541322008316 -0.3351718363187066 -0.7400311098312223 0.5049320078664014
P 1.924644187753797 3.0903686471450564 12.885185384838584 1.0381124690555348 0.42316218558676155 -0.9907247238001906
P 1.1419220061642323 1.4951368473129283 5.617939881923943 0.407421377812737 -0.45908023963960937 -0.4201126001271604
P 6.42909119305513 2.188047616052421 6.93443276453197 0.8059397967088893 0.718314544089737 0.8998452259097987
