# total energy = -340863.4252319152 ev
CRYSTAL
PRIMVEC
9.33326097144144 0.00000000000000 0.00000000000000

0.00000000000000 9.33326097144144 0.00000000000000

0.00000000000000 0.00000000000000 13.66017085218204

PRIMCOORD
 96 1
Ni 5.700242416848412 3.5529577524475893 10.28736560794748 -0.6625506589555558 1.9305086948864558 -1.4587457175728555
Ni 6.186421309407582 3.238230862274857 5.596844819502853 1.5389883045746915 -0.4128415203870438 0.5850882058020181
Ni 7.879950829550295 9.095533393230998 2.3335942847839393 -0.2821780577304947 -0.584140240066452 0.4041817878295168
Ni 5.701147743153882 6.7192385065897815 8.036045884482915 -0.6816156460068067 0.27223200226137634 -0.7549705047498739
Ni 8.72070030298376 1.407157076526867 6.10897857724637 1.7520353118354794 0.3792534000189533 1.2675088642086236
Ni 0.3108787867114404 4.113140070533274 4.357130176487889 -0.784560816812481 -0.8097103194949152 0.5494406318017376
Ni 0.5805521599587607 8.992186195494197 7.354281043550869 0.30264352467369815 -0.5478450051798436 -0.39794789110466305
Ni 3.7192017952623546 3.2393135205370687 2.487025627061083 0.09532442103562293 1.5635953044900943 0.6547759001061433
Ni 4.273345493557946 4.643166622712014 6.893236622544593 0.7956710677930298 1.6146754109953612 1.3132647302874996
Ni 4.943053628083742 6.6791988174097146 10.881296064053258 1.5620001920888327 0.08712183062017254 0.31620198008442313
Ni 3.245305474022757 8.090910525246576 4.978899883149916 1.7394201941746303 1.7361152981711132 0.9316487435736407
Ni 7.743507888728992 4.941896303734482 9.080174579125003 2.071464026387316 -0.3003441871165602 0.5322376376598899
Ni 6.7457543007530845 8.245086661742034 11.871261979149947 -1.0991738551432295 -0.48173294404211864 -0.1779527346608161
Ni 8.012072470583632 7.634150070984741 6.986917361986803 -1.5932468088079401 -0.5329827433560305 1.2766061985242014
Ni 5.951316467811808 2.161172556591951 7.712081866016124 -0.5181312801654948 0.774329626002776 0.4944087397375744
Ni 4.706259466268482 9.2094178425026 7.351234667199266 -0.2969379896484886 -0.3762698919105971 0.05044890067917118
Ni 6.018347947460114 3.340122071314201 3.0234053299216113 1.8594506025973654 -0.18766404841130907 0.04113070860203884
Ni 5.779668466946865 6.344573415038404 5.522260865149532 0.40650297976352573 0.3462198666027521 -0.3544378836371702
Ni 1.57189846433977 7.8564683451733615 3.5655641879197377 -1.755309868821693 -0.559344778289327 -1.3899895339440642
Ni 0.6938878134905516 1.4782951909628732 10.954364296839483 1.6976055721316892 0.6848117843466013 -1.079383817000496
Ni 4.048964568714594 1.7581063521792817 0.5035564909937547 -2.232688649660174 3.5598733324628755 2.164872975567781
Ni 0.67848793303668 8.622831729384185 11.75413982167868 0.12279948652744012 -0.68966397023258 -0.15302768928436228
Ni 0.6148276272186386 0.7002633639984546 3.037884950852603 0.18330191478787142 0.5864925423487125 1.2667737858148118
Ni 5.368015662523553 4.847677035139431 1.136243312908444 -1.0214164964570924 -0.028884030024201868 0.21088368106088198
P 7.29755535056751 4.929063070022922 4.8055933618263955 0.4283820392248042 -0.2427460769871174 -0.39489599165221667
P 5.577239371695942 2.2295760255897843 11.958468235518914 0.0940866919737799 -0.7172416227405325 -0.1670502288156994
P 2.1861670292316284 3.7638987816221072 10.46278891283884 0.145211278563737 1.449329566465278 -0.818883244243435
P 3.9140429494169156 6.804488511478063 6.54293507519733 -0.25373060102307915 0.7380323342336386 1.025088288881725
P 3.8868458272092905 2.7599385751602448 6.185488916645558 -0.18615763906911167 1.2214346955583801 0.47024242690401596
P 6.647344398022403 7.662093854062857 9.66014527693087 0.18043359210114088 2.112982200235761 0.2007782171957639
P 3.1990684996176175 3.8619913534828294 0.6066096910127997 -0.9400698777578004 1.1785456095043378 -0.7699762341300869
P 6.932382185332247 8.44711442677507 0.43911405791387426 2.544783292444443 1.0729663435099261 -1.3816043952041628
Ni 7.872969550411208 6.462676498228279 10.843170626679912 1.4866285600260527 -0.6514648334550394 1.2423861009990669
Ni 8.575680095412695 5.799837643710997 3.3585851279892607 1.1448088793735252 0.6697662028673885 0.10101581499344539
Ni 5.734840814934777 8.565245509747585 3.5287911400480683 -0.08757768721066853 0.44916555162905875 1.4407662502762995
Ni 2.04540278862236 6.870176001559487 7.4397522467220325 -1.2530147843575066 -0.5916476041870907 0.1470053943496823
Ni 7.53163353346636 2.1535472824520636 10.487636853282684 0.35427384725548017 0.7842317156078364 -1.853343461258363
Ni 7.312339235803227 1.1668069423158944 4.562893112525554 -2.085983303049414 -0.7899660469884524 -1.8210966854095154
Ni 1.9739753430990383 2.978439545648482 12.600305386401468 -0.469450784240656 -0.8791180206647763 0.280493213828904
Ni 3.321707547595723 6.285092543442935 1.553216076034003 -0.2536627238996212 0.41615464392067686 0.04009918201373094
Ni 7.901669327620695 0.7792451508789661 12.230838921160883 -0.20575201626127143 -0.9388270064896347 2.5204969090932527
Ni 0.8198840354076014 4.169326301037703 8.568779082317183 -0.08625691151671595 1.060354825393503 -0.018183355777246106
Ni 6.117840508453007 6.291821824538233 2.983272308132733 -1.7377065539176333 -1.517501595455825 2.999456918375925
Ni 0.043870992771772116 3.980085103411823 10.884013909621844 2.357446802575882 1.890438052117815 -1.664986243434771
Ni 1.6965534966682003 4.71965269563291 2.6114146614544014 0.8596745672281839 1.5308404786565766 0.03309009768574946
Ni 5.44672305153416 0.9063669640582805 9.911437726198884 0.9785639200679405 -0.9761951627254479 0.5135457176773414
Ni 2.9148893723088376 3.01956189309076 8.397193614300145 1.1818620754720808 -0.6646039419401586 0.15344292244490992
Ni 4.500078400143343 4.281456097263652 4.560816461979501 -1.5487857502810876 0.6027550269541618 -0.9406746012213348
Ni 7.2482104002889525 0.12848633592013634 7.97842793175932 -0.9878705421808471 0.9456969941365907 0.32132258914044015
Ni 8.342385906427861 9.29293186086699 10.086082637132758 -0.8224794462351255 -0.9995510638425688 -0.5689841011513039
Ni 2.0212763092446275 3.7685187457582687 6.3710220097233625 -1.4307680014130069 0.8424350634214458 -0.7061072033902679
Ni 5.2416899764973985 0.39435547203230625 13.253849246407228 2.8540137263070395 -1.887752791976168 -1.6387789889117839
Ni 6.239200899690397 2.752910629716751 0.4115072055535669 -0.19091726524128408 1.96613544295113 -1.9408607275447411
Ni 8.66597939443767 4.069927072653622 6.434281918649603 -0.7842157747682366 -0.7213489600406867 1.6703966158170653
Ni 0.37206391174380493 7.4638087266431565 9.336658188095106 0.5472276833108188 -1.0874293130127917 0.6081849397204816
Ni 3.7129951767764005 5.295440225911852 9.244138506306507 -0.343756235553608 -1.47720546693994 0.43243152670382945
P 6.0935833634229395 4.616072166374081 8.056181461507874 -2.164226086012402 -2.0512073330208094 -0.2405259294073471
P 3.475417021047125 0.6299073768242874 9.053537452570247 -0.22285730848299037 0.20442866946415758 0.051148240739040944
P 2.532860337922246 0.6933632842290318 13.182529133384039 -1.5692702433876844 -0.8077315985019895 -1.130616132812911
P 8.93322798650807 2.5546441688188137 12.247558524703345 -0.8522556490562935 0.9416050834554041 4.169809707656825
P 7.581137149179897 4.632704037264262 0.49545335389675377 -0.15173699549739675 0.10997122441452029 0.08163226826051102
P 1.2377490582733972 9.43938005735287 9.438413131525584 0.7942009110054064 -1.5088164089770013 0.010656708382897775
P 0.682733633411508 6.216073079226946 11.538295097237214 -1.3782357358422457 0.09402832793201871 0.18314790570851036
P 1.1635776340510222 0.08818344878322189 5.262840078980138 -0.3232915399413529 -0.3258153348044711 -1.1097657717264628
Ni 8.896800269289004 6.898885112029856 13.261130123220601 -0.2276071644631499 0.3674546076118123 -0.023301393730101806
Ni 3.7682854142362405 8.999391472894432 11.609874674912898 -0.4007251967394841 -0.47993985669743794 -0.7003031951139811
Ni 1.5199308677536136 5.407644688224849 0.16158487898290316 0.23329033089085627 -1.1614308042009223 -1.2370204658117792
Ni 6.0134479854975185 1.1631109710069654 1.860378358262576 -1.031480565561314 -1.6996202885688727 1.915006742596115
Ni 2.67975653093042 1.1379671661931894 6.536609924298185 -1.6132129675172215 -1.2860652870545723 0.727464071799489
Ni 3.8971870802655872 4.517624930599876 12.323837399232682 0.6210936773623497 0.3099979081562403 -0.8271141167936594
Ni 4.655103863378985 1.3154951214132462 5.097893359427849 1.4670735207122605 -2.465764293437063 -2.233288230917386
Ni 0.7778610282902938 2.8169741324048574 1.9213441516642338 -0.3272831775992493 -0.34707707239672486 -0.3919317668175702
Ni 3.5592017039770685 7.597013025938707 9.122904114091014 -0.1279082685089152 1.6348634559074617 -0.20961201343730995
Ni 0.4801869390734823 9.054924375137183 0.8632146323743558 0.5716778459333832 -0.32326248647563033 -0.7103603222396668
Ni 2.67004993961404 6.544771860938737 11.221133159300594 0.269568082275968 -0.01343195713518977 -0.1733581733115982
Ni 3.2106417431102234 9.024152614012083 1.4405878836770023 -0.8638950330674348 0.6786557920475345 1.7029668364436026
Ni 7.437404931610428 4.259336268975363 11.816553203843 -1.7946811715304638 -0.37342728025547944 1.6192226640464114
Ni 8.408624058901271 8.012753798627957 4.789734284937173 -0.961823210274492 3.7303001910602918 -2.6234109695506755
Ni 0.8079383948058375 1.8662415127481045 8.320164345595968 0.3657306829421701 0.10474622857015507 -0.5211374139816702
Ni 3.6652368808476354 2.3241406248374377 10.546307597833671 0.25004363908979516 -1.1793431657049689 1.5453504993472935
Ni 2.447666332599251 5.915047416027719 4.90708884060438 -0.9636348095619339 -1.495546945561605 0.32134572906889175
Ni 5.193801014916298 7.86608160388093 1.2559367837524635 -0.8936838342940931 -1.4401730967769906 0.32446473431384765
Ni 6.362941272452478 6.008333358534657 12.988977835883249 -0.3970703735957162 1.4138282882348747 -0.39578970711107964
Ni 7.608455603778977 6.70236397091669 1.6359834335279027 1.6173789259694533 0.7623012340833323 -3.6425525539306616
Ni 2.2499878671368254 7.798312796623012 13.326944545650006 0.41104329083604046 -0.7278813618425658 0.0012742387267332892
Ni -0.15685478236834427 6.307669701514398 5.6476196253483995 2.4861161176205377 -3.277183625203285 -0.23404932054406788
Ni 8.179380505138848 1.6968988273208023 0.9317655668941115 1.099830514890622 -0.1311180336954645 -0.18346183740450342
Ni 1.904965212143931 2.6175876802011837 4.1737288001953345 1.7591408125320094 -1.3456441750594694 0.05722581439168854
P 0.831499278574173 6.727489109208705 1.682318407172294 -0.5047075505604212 0.8397670296709796 0.07419329548396254
P 6.209054467044333 8.532429764489518 5.971420311749771 0.8335426460278226 0.6873852015007322 -1.389571215459723
P 4.089974917026299 6.198862546162134 3.566219382833593 -0.6713937111684825 0.7555330621215633 -0.16196844341741784
P 8.234820074772786 2.411387947554282 3.098058350405452 0.40441884354098734 -0.09093760482183694 -0.5811716443564313
P 4.203719367384684 6.634651163224061 13.06584377252201 -0.07337877000246718 0.3634231178549161 -0.4254586949304221
P 3.467082419080272 1.3220564038126839 3.0385000127446697 0.1523707724266537 -2.4459125488184585 0.2221559115405916
P 9.254245494514688 6.047057057930484 7.739797917528741 0.5284095221630514 -1.0905755719512573 0.38910226778857504
P 8.140554139873329 2.37796554033894 8.040061986640067 -1.039208530333191 0.25714708290379584 -0.058234201051544865
