# total energy = -381170.5177170755 ev
CRYSTAL
PRIMVEC
9.21818131571530 0.00000000000000 0.00000000000000
0.00000000000000 9.21818131571530 0.00000000000000
0.00000000000000 0.00000000000000 13.49174014359678
PRIMCOORD
 96 1
Ni 8.76819572544312 2.85586629447277 5.856359399918373 0.2022218916208259 -0.3889392598481495 -0.4828567732339168
Ni 6.410258708982025 3.4886667822480124 7.5807391159241915 1.2803196428200467 0.4082739556210194 -1.9308143990523328
Ni 7.107383665469602 1.5075874513555143 8.613463944191917 1.5687786484632467 -0.24797775769970198 2.4106663240216544
Ni 6.86207864441716 1.1452023103381308 6.471137421545796 -0.2417099224131192 0.3448741512081351 -1.0530150971989802
Ni 3.5304527978216744 9.06658825227291 2.132167165098418 0.9213507040817422 -1.98088766155964 -3.138880643723607
Ni 3.5886563941887824 3.1945422733336444 4.569193411168458 -0.9814998627678129 0.5558840734342362 1.3174710550593633
Ni 1.7569576903360358 3.8857399392820935 6.389566657546288 -0.42672573456830376 0.15595566156443463 -0.43874255652352173
Ni 2.226236861045055 8.804294123189967 12.327807474172053 1.7668078421589637 0.28949310333466916 1.2561245336310818
Ni 7.948524267513614 7.9269998143116505 9.43420747659996 -0.7813415385442349 0.8282664852305476 -0.8265392181267958
Ni 1.0072522280394653 6.61868178688198 12.510903599107387 -0.07826078068511683 0.3426509183045712 1.047051166306061
Ni 8.219041014265143 7.7356027171671675 1.1818510335051744 1.843619806212696 -1.3406778321931296 -0.965834388316414
Ni 5.068921156340606 1.2140436878594432 0.33090136480068705 0.2567598747677062 -0.40211667777037197 -0.07175871790054093
Ni 7.7512736252799455 6.244690955679898 7.434664128678112 -0.5586927465276249 -0.553410415082763 1.8765201564851424
Ni 7.231183839560553 5.370917992036335 2.205035966004714 -0.48336328055669014 -0.09443224823865673 -1.5131996256463616
Ni 3.9824386605191804 3.8527296322515876 7.046803621978096 1.7749135019852336 0.8810404344984698 -1.091616611621262
Ni 4.833037116518317 5.044299394241058 11.127973612698403 -1.008514957904076 2.0635383437823367 1.6642861320439533
Ni 2.7657401364618077 0.7490942968801722 3.7588664235647893 -1.614589279039458 1.0589121794097054 2.5111445213440753
Ni 5.4227702615271465 6.602605278794518 6.866877629572167 -0.12168542752765493 -0.14707044325966287 -0.9574564486653641
Ni 0.8862562246825775 8.423113110618491 10.619267358995756 -1.4077887669090143 0.6135803997044401 -1.6320079887365377
Ni 5.579036869955277 4.129026178642359 3.6252166228158953 1.200606188848803 0.6040395500935404 1.7823370481428142
Ni 7.372719794362672 0.8829413667076627 1.2056201138397622 1.6038505524657154 -0.6060264986165821 0.3230915081154048
Ni 3.021563102312297 0.45415305710769066 10.225038932693208 0.5021752710568707 -0.24180196790629324 -1.3877431611120485
Ni 2.8736573842713953 6.515161611525213 7.45023363679722 0.39111312757101674 -0.48319693018215487 -0.0005250192655345797
Ni 8.55450906605352 6.455556851609198 3.799071521055309 -0.026517072453922076 -0.8767083827820191 -1.6272306219525525
P 7.923570650889324 4.591944804293839 9.28239785880273 -0.6844929675546019 0.5035762651694553 -0.09691696233372342
Ni 5.784547002582505 6.002354188987641 0.31225574960085334 -0.7200901479329211 -2.054081569244811 -1.3836857032132235
P 1.8855513186732484 6.06108322168559 5.544632773920859 -0.666354348972362 -0.2735165254007547 -0.27710090031790346
Ni 6.489323049501614 2.920780726784645 1.6647998451791577 0.0379134872163218 0.49121542961125725 1.0911263022484048
P 1.6975280758636337 1.4703367809533154 5.426013217688367 -0.6483869658606639 1.36250829780466 1.120388798657948
P 3.6200166467768256 6.401630491338754 12.314774809530968 -0.5044380989491184 -0.45989502223142087 0.24420260692798584
P 5.558369707608895 0.4356908837145889 2.5123102104619526 2.1299504526589836 -0.9989080309419313 -0.74377360759279
Ni 1.0136496458219761 2.2581225499639377 3.48911202040204 -1.391484373322036 0.6108280337702834 0.9325378310468133
Ni 4.566539496788653 8.377962458891204 11.886290699912008 0.5454495083644735 -0.12076214438243718 0.03070025729733423
Ni 0.25055385345209835 0.7202174223189426 12.864954582463143 -0.3384733898881139 -0.4054326295174824 1.1431841992859086
Ni 8.800717468867758 3.4474799484551335 1.6616287908316307 0.838404087885182 -1.6616427808838348 -1.0658443877531645
Ni 1.5445431399579435 4.737232558861783 9.054280136677509 -0.49739636161098855 0.8704382335025913 0.2563107030454295
Ni 0.09106733431585351 3.9008485383390608 11.152177791187652 -0.49059965040412934 -1.4977758348921237 -0.36973646166745355
Ni 0.7043372614919523 7.300956253387389 8.122378243934904 -0.1987439603745545 0.1387305559353998 0.43633060464791945
Ni 2.837411495624663 6.948812511730768 10.427603856413358 -0.28126403055665755 -0.24020711261534758 -0.9798402156772028
Ni 6.2640399181085575 8.209693778484933 0.17848519067767815 -0.6391042550071574 0.6456495123248428 -0.9730573884274146
Ni 4.371934472571671 2.144167393440309 2.799887045239552 -0.11826123233745442 0.5405587559310755 -2.463614594083912
Ni -0.04532303171652853 3.1325592226569836 8.283685353866604 0.04716791593505425 -0.754034880309482 0.0757387855942115
Ni 2.424538375940404 9.107996322415616 7.888161773099439 -0.2455136124299256 0.14523827514693052 0.12900150157309395
Ni 1.5102330693722013 8.258669975427988 1.0006151375446415 -0.23582980948325835 0.20823878723886718 -1.2668506617993345
Ni 0.3108979115037873 0.8522918358934406 6.979884235245911 0.3736399104869178 0.5267593881541379 2.5015597058691177
Ni 8.060580478701224 2.6529556889560157 13.033574475574767 -1.2369322769733473 0.5198770592120078 -0.6390803437477574
Ni 2.0532208172987363 4.709854560570634 11.610006137156851 1.538892916647408 0.6588441566382459 -0.26036764672362256
Ni 4.944872091356099 1.049831007200009 8.250616972294267 -0.506868819877798 1.1329887468101456 0.3046140181365077
Ni 5.839653290052028 6.155689415780557 9.038642414017204 0.33845719193819773 -0.3428596918812676 1.2200162179442988
Ni 3.521787707453432 3.1455015491218896 10.707665108023694 0.8119623487538855 -0.6185819666840894 -1.1523841206176217
Ni 6.732507888868209 6.949826511667477 11.285787031939078 -0.10205608333250166 0.3222844388330772 0.6016998462167702
Ni 1.6920985671116182 2.071417507072045 11.45765817757504 -0.6021739576397113 -0.7661584030458934 -0.18570101114766727
Ni 1.1712252359865862 7.954829503483697 3.1107361003827525 -0.48759480213953443 -0.235381151981614 1.616428646241042
Ni 8.490027888260057 1.61559688097753 10.72921168486064 1.090438789263077 0.5242577047782068 -1.2981787824886546
Ni 3.9774055335606056 5.784934166194702 5.036237172926095 0.22016253525964663 -0.7406049800568213 0.31813904920613595
Ni 7.068104995193985 1.6993809302934386 3.990937823625052 0.22628587454856514 0.04999767207436551 -0.9029539467421095
P 0.9285842693133168 1.2160624695516187 9.24351464850243 0.49873359236517334 -0.19400978812367878 0.2928543064974182
Ni 3.7293627126790487 3.1028766790551323 13.17873133196906 0.41925282323002633 0.4108334888180796 -0.6570731807807522
P 6.093217801498029 3.02121281142507 5.453388450525143 -0.7086153145241021 -0.3887448844491563 0.3549369347607758
Ni 2.43872515687309 1.5325410679798037 0.8750266362925851 0.19954048813392086 -1.372537657016204 -0.4793647009202583
P 8.519830268218065 7.961448157616035 12.126753410357601 -0.02775865817050703 -0.6463174849261449 0.3506617044241896
P 6.380096819955547 6.214317048484835 4.040141709644804 -0.6077604505885532 0.6071670399789285 0.5055475299632133
P 4.302936385969231 8.443854018414816 6.4818369645143274 -0.3515011696063495 0.21423922779667615 0.1589304279220424
Ni 1.2822213563312728 4.781323119746148 3.76299432512532 0.07617021670467526 0.6189524626496309 0.9913854973126409
Ni 4.944051673225488 0.7949777940162637 4.592722818790732 1.3065091567312208 3.5610100171704797 1.5842029534381168
Ni 7.954036739896814 5.452452805128997 13.281215383754137 1.3505673233926998 0.15279988954427232 0.15509871288077806
Ni 7.153529880771114 4.43295883239908 11.41888281999528 -1.392640598413666 -0.24157185417335814 -0.4169840818005076
Ni 5.771632330661325 -0.04347386455922065 10.021502412670067 1.5508254064189355 -0.09422655998575385 1.258966116844935
Ni 8.17010169004706 3.803412362602549 3.682057771995316 -0.12688445523009118 0.35430804292752527 1.284269114386098
Ni 3.3062758481777554 6.322934878068876 2.8724995807072986 -0.8781083484533393 -0.275048645774565 -1.2363625205128062
Ni 3.7683924920611105 1.4856113072726531 6.471501539704887 -1.561073566509505 0.16164088487467002 -1.3047294391229787
Ni 0.44161540879934347 5.4878506211013915 1.4987702609967657 1.002478779012325 1.6180749235952134 0.21748807375127707
Ni 4.328931657073958 8.101785748856589 4.168111267111878 -1.305423636976526 -3.870525586373663 0.09409157706978634
Ni 1.9499403146542829 8.474080434709993 5.370292999348072 0.33102593247113316 -1.1088784840255033 0.9265055088098043
Ni 5.5582867439777095 7.31814816140523 2.147911818661139 0.4339587619816333 0.23147564627962072 2.6700965465326725
Ni 2.7210872665216312 2.543102623085438 8.430448939251521 -1.35457464477988 -0.9581280208110918 0.6244384254648665
Ni -0.043519033647310426 6.0834280930181635 10.4197923696282 -0.33598481913830525 0.6642979806639656 -0.45856267657324257
Ni 4.368929345486515 4.236842026458277 1.8018216566266723 0.44503276040760775 1.138586295502581 -1.3459856175592886
Ni 7.143804699559948 0.42505402437850937 12.016229260892546 -0.7170922416468618 -1.1608062832430461 0.9823344428539664
Ni 6.421661599179382 8.381004458701332 5.2842965865338885 1.2940213086768553 -1.7075451998429045 0.9137091283760844
Ni 5.658294792280966 3.7539660384161113 9.604944785943056 0.10885176609809641 -0.0376895441309738 -1.8784901357273196
Ni 8.739794509034018 0.29336308714371234 4.967280568139247 0.4433671997797268 -0.6349249268184871 -1.1623947107760884
Ni 3.8789553578873845 7.30463430770327 0.6834995627925782 -1.5026159365932443 0.35994852904275426 -0.7872206230328314
Ni 2.7083200855003384 5.064846720231283 0.4202983646753432 -0.379582758333914 2.7159089768810967 -0.7161982690776827
Ni -0.15453174671823394 7.035435760869463 5.762902713024384 1.6710550753366706 0.48516125299737745 0.636578146151194
Ni 5.985420390044598 2.1620967559575766 10.979361781974303 0.09188094257171273 -0.8510426025847988 1.3308914422303273
Ni 7.358367086167615 4.761172175549363 5.656776557830274 -0.5746166168467329 1.5045738316505635 -0.44806769057918966
Ni 4.394122634823116 8.103491112386509 8.709727567274342 -0.509036259842762 -1.5812197024400767 -0.4345855969323548
P 8.024362244598219 8.429114146607562 7.063492217300081 -0.32949895430364545 0.08237737395665168 0.5974611255450744
Ni 2.160409828790142 3.590629084974744 1.958326094130868 0.09108312926076571 -0.33274960003045917 1.3488734806300446
P 5.928452029964025 3.7477068933522424 13.369180800081782 -0.08657187165397348 0.9385030474913127 -1.3402530859508854
Ni 7.537162929553175 8.51735979564499 3.1396092876714854 -0.5283812400282771 0.661721478186041 0.6623418853788593
P 0.5143616078951102 1.1875598531488472 1.7111165968336612 -1.015019077571181 -0.8372162382246678 -0.8246728543420184
P 4.105759489185505 1.3571190789291114 11.845612709723731 -0.2826513978224874 -0.6321316803440661 0.39504074476019707
P 3.6003727025483956 4.590267095307648 8.996265513025877 1.2588627584978513 0.8581450179575351 0.5884931177185091
Ni 1.2091672699819962 3.2654116507283746 13.378504068590763 -1.1823192176141575 0.7201793652126177 -0.46761475947318176
