# total energy = -340891.100635183 ev
CRYSTAL
PRIMVEC
9.08390520217859 0.00000000000000 0.00000000000000

0.00000000000000 9.08390520217859 0.00000000000000

0.00000000000000 0.00000000000000 13.29521347859861

PRIMCOORD
 96 1
Ni 6.405542983805802 2.0942398339913817 11.416865492038255 0.6586035013823496 0.3178549423068139 0.3771700351273633
Ni 4.679982525128348 0.1682566335498012 5.974815994214 -0.6873206668113839 -0.5945367528094277 0.9414050516294561
Ni 2.869133280790261 1.6167534425263121 5.08188265004708 -0.26965575689376786 -0.31093584658947737 -0.2548755132607997
Ni 3.177304763752982 4.222816829533215 4.544675940809222 1.3872765058882752 0.5735794338314701 0.5917162526414971
Ni 5.123113587232621 4.260551371618024 2.592167737265177 0.3908058807432431 0.6671501054007801 -0.2878285711480527
Ni 7.551359530496112 6.286516574336074 2.6400708027996087 -1.0516981781597692 -0.2474365404842513 0.07028958955418217
Ni 4.73811043432447 4.542679298452399 11.318068939386741 1.0372825169550717 1.4416026301346658 -0.12454706534616616
Ni 5.917155906134239 7.768074256186359 12.533863349570149 -1.396235514853776 0.20261167086007686 -0.6035109312835799
Ni 1.8622732315172164 6.649554844538141 0.1970762310987335 0.3636226354602318 0.2095194537235037 0.31308400328073177
Ni 2.946718914864973 1.5577625623388422 0.40985853423998864 -1.0034969358641943 -0.06721043640822619 0.13282216087076482
Ni 0.613615977592785 9.181193796470215 4.839271527492274 -0.17892435454546604 -0.2248897655319869 -0.34588356630925593
Ni 8.789686567458856 2.328213979508576 1.4371991561139983 -0.6704213199528841 -0.2963121831390316 -0.23805741326219648
Ni 6.73863161865553 0.8026102582599214 4.893223565480793 0.44560457375067775 -0.46102013697479954 -0.04574249634243736
Ni 0.7603546565709696 7.481676893921107 2.3403700614098497 0.10504113410275458 -0.5822011140622102 0.9146010440627345
Ni 7.522127523652367 3.766405098067365 3.7058545113618497 1.0965235620045761 0.07286634914242289 -0.5619423638131742
Ni 7.777030986686028 3.9756891893268533 12.589237927108615 0.47993522871174765 -0.4456775930804583 -1.5164024488543755
Ni 8.382863874327377 9.034688573854952 7.074662530390496 -2.332550039334202 1.461524051648941 0.01387135866545353
Ni 7.162686479898442 0.5135113425964936 0.3354459082418833 -0.8925870016854885 0.9809990118719945 -0.4595456093118021
Ni 1.7286035669100994 6.630687573495736 9.203492058496112 1.2149606577982626 -0.9276054267422024 0.436785432797151
Ni 0.024501109030126804 4.757295642047898 1.4117387866977003 0.5328007092522113 0.6048180801307778 0.2772464247568322
Ni 6.149186095944609 2.004472683080914 6.958089683707746 0.6537937386985321 0.4237687088225089 0.580460991442652
Ni 3.3105474848170116 4.393021960742427 0.32676714524048067 0.16359003818124085 -0.4441953521079769 0.028253595529054563
Ni 6.117592273756125 5.683708627117025 4.5457660094298715 -0.41423171586635105 -0.5013671733332784 0.8543061038274191
Ni 5.110741308388252 2.898074602668499 9.373391062101026 -0.30032721783569566 0.7774041511630418 -0.3711551963918511
P 0.22337958691500046 5.623763936886487 12.515023330243261 1.4405723890979383 -0.6650862808932159 -0.9982781106674162
P 4.049023555781033 6.198884141141043 12.65461025067947 0.20206711121051654 0.40881234462299276 -0.17269225759282517
P 2.4266471759532053 8.589431877940413 1.4056362192030987 1.3941835174207537 -0.7184780662507949 -0.04469477180421335
P 6.621603668323659 8.00115817899669 6.172076628587726 -1.149549479382304 -0.3817563689464651 -0.5329619174204241
P 5.112939613439895 0.917002059310856 12.763338236855613 -0.9979243268724233 -0.7293965129355116 -0.33630877813662724
P 3.8343163731338143 6.242505053777358 8.172580553498959 0.1792395717930397 -0.8174205436549793 -0.1712814932882276
P 4.661787463068677 1.0896053414854963 3.9205989380202735 1.6921579187535567 -0.8198029278442268 0.25754303279063384
P 9.271578652932384 5.663869378221209 3.713299680040884 0.889820751794261 -0.45063390864446906 -0.7001419869457683
Ni 1.249818177005423 0.9764380508517576 2.4826549016821646 0.5739800117039986 0.395180612772171 1.3417543530867602
Ni 1.8928224046109123 6.680567296795613 4.776677970513559 -0.08572186494885235 -0.006460668023679196 -0.37302207439726076
Ni 5.906682163470834 5.823428172568746 9.228181204363302 0.4511165047078425 -1.1803705785282188 1.1596775689552414
Ni 8.805547065889304 2.215010353254149 10.376063431089744 0.5305995878358345 1.408098070619317 0.33904546034149996
Ni 2.277425865691492 5.265939828253192 6.660582705417043 -0.1048902103471871 -0.7732227660918425 1.5342379343738997
Ni 0.6740303057207193 0.1453215897713405 9.290243352889451 0.18575680408626719 0.1426921116863091 0.05035351275188747
Ni 1.6112304281816892 0.9001650410744109 11.664236580903227 -0.13679940035095794 1.0229997817838126 -0.6254025891503486
Ni 4.515227737022382 6.660337439977397 1.5904264685565979 -0.672086880580765 0.5634917105781649 0.25587335839769476
Ni 5.703366197909401 7.968601462859964 8.322298753373586 -0.485796315478215 0.32289121917914065 -1.7545588495882813
Ni 5.3561702583274355 3.0158110976037924 4.875155678093531 -0.8677632577735894 -0.03946771907731913 -0.6302735440894048
Ni 0.7736716615532349 7.428699558957553 7.149501191541172 1.5255519765641277 -0.0002727940454124334 -1.5925212434958251
Ni 5.246046075926342 4.672015940292437 7.189240551497457 -0.22411843458360112 -0.4852808092943771 -0.4004822274907425
Ni 8.489826857728586 7.326351199383758 9.109428220439254 -2.120940792961205 0.09358172731290336 1.1365870056843652
Ni 4.66748307161157 0.1927586509704452 10.350549466632929 0.025918519637974716 0.2979497187424546 1.1222996425274154
Ni 8.318495322278038 7.13596163088219 5.092771527176849 -0.30525113749987426 0.9442515199393158 -0.5003449027163512
Ni 7.354920081149941 6.092375352998438 7.2604229408163725 -1.2981116766961451 1.240741109196476 -0.9792889711594231
Ni 2.3822450474720913 5.437961740496819 2.2963894261287203 -0.4757595000675032 -0.48993604867820134 1.4007645130723811
Ni 2.380691699687666 5.3500658740518 11.392747723806389 -1.3757803323232178 -0.34333046087009905 0.1440663663260164
Ni 1.3186832621149407 3.2241413788202125 3.746205218136217 -2.361218096692856 -0.15138012637861026 -0.6124331734738744
Ni 3.5293060891709764 2.4290544108238055 2.7617079266157925 -0.2639347952495906 1.0410399271149748 -0.4700873893833904
Ni 0.8374597520620786 3.4835595427243953 8.32548902087002 1.306963727770136 -0.9156387412986295 -1.0587280884233574
Ni 3.695859490501013 2.8006951392238304 7.207175813869208 -1.1381211829407045 0.40652149170628693 -0.5920042161955611
Ni 4.35149034629569 6.722344176681997 6.05402855570503 -0.3120079966077336 0.6219699093197159 -0.1536324127478967
Ni 0.6591872046695451 7.640781493010041 11.248468057958284 0.2740204616203668 -1.1155967765859431 1.195866874391605
P 0.2041489596657129 5.640423818972077 8.01965936866066 0.16393662288738217 -2.3458449566708954 0.15391754808848332
P 8.49098051368544 1.7711344109257654 8.346203049833907 -0.5042249544970477 -0.6402987895358909 -2.0329486439209377
P 1.863526810430963 3.1488812244695525 10.709667123362728 0.37589425373873325 -0.04121401234446451 -0.4015862591881987
P 3.9082230256138355 6.129492189531546 3.788351812963104 1.0089908690992302 0.5158910779810664 -0.15134104561055872
P 6.744281807672563 4.078173807478229 10.412611615159078 0.5357847315811999 0.3772777643498212 -0.11554794717134938
P 6.559560595998371 7.792101185366503 10.304282412419987 -0.6505135252853635 0.36694295808271643 -0.44247245587959927
P 2.3504241276543043 8.502008374564342 5.976105000357918 1.5667845008513532 -0.34988471704884905 -0.7816379867387313
P 7.143628446847424 3.737845300206354 1.328707351472328 -2.5831678057599126 0.1941537699007108 1.7910291766001734
Ni 5.051768596011127 2.794999530680938 0.5254457772115687 1.3702833137643886 0.39370608510917354 0.6210877638250787
Ni 1.4841647626346723 0.9806893184722897 7.090842782283 -0.26908625754354304 2.057042451645348 0.493334532836789
Ni 6.579390760989017 0.9874477439203152 9.176861682093651 1.4846408401720625 -0.2961437758819674 0.09065684035662451
Ni 2.7597903142339666 1.5291300932364549 9.404901312361929 -0.6775517603500782 1.2551871094184772 0.5633266457552105
Ni 6.406088018116126 1.7944618794076597 2.492400115150769 0.18813995960646307 0.8794175541830661 0.33782984276684397
Ni 4.002641135972406 6.9494508898891 10.276800874102902 0.8987671623542713 -0.9607127508191325 0.7401758629392027
Ni 8.192837662032693 6.9851960567412235 0.39190601244841233 0.6002042355078502 1.309586252994648 0.4856957853446087
Ni 7.618280659898805 3.850240458900466 8.092237954204522 -1.12086085319836 -0.494136202802478 0.30440550167012737
Ni 3.3578292112376733 8.401958242999083 12.533783411204634 0.6622567818642208 -0.06307841651772363 -0.039779079670150846
Ni 8.962916639090372 4.819820161347305 10.084086734267801 -0.009549591361648069 0.14857325305743446 1.0828046697565867
Ni 8.63331622382672 2.4215692729620137 5.698900550126807 0.018117792646633313 -0.2680598731615577 0.9211838394865749
Ni 3.967867946973695 2.5264338742684735 11.658332950931893 -1.6421445629499072 -1.4689064601559412 -0.637011891254503
Ni 1.1416016146904666 3.282959664809413 12.82037516904057 0.13139699838846403 0.2750087936755651 -0.8180946869038684
Ni 3.095159009281887 8.521956630322224 8.290017279563575 0.40023411603567843 -1.2445597116116178 -1.583743497303195
Ni 5.4828907354779135 7.924898795077102 3.7563228717168764 0.11338436386112731 -0.12417914048378616 -0.312416802010378
Ni 3.0215975451984054 8.65115701358468 3.617840554149593 -0.19768440876178855 -0.7297040168736013 0.35480040918291156
Ni 2.919957730228033 4.289447273970402 9.186274424632957 1.2198046161541252 0.5220779235180686 -0.2706723710837403
Ni 7.521155545798955 6.260100578095673 11.513548219956224 -0.7119040125777031 -0.7365063845074155 -1.3648359174965718
Ni 0.6535442827766507 -0.006303321798904416 0.3960373725206731 -1.3069421305035815 0.07057138246065911 -1.238569298356138
Ni 4.513492711134516 0.3914372829415332 1.817907438656791 0.6371427604054123 -1.2743788518555794 -1.0291524316487697
Ni 6.103766570084223 5.366834762999454 0.2595544224817638 -0.6385206145895455 0.4124244874542833 0.23724288778070104
Ni 7.947281537421099 9.108159198886714 11.39317375895896 0.05975320879923257 -0.3581017056420026 -0.5156954170304926
Ni 8.893751785110174 4.92759161230883 5.820192485546452 1.5018394634385361 -0.7671050832298788 -0.34703490630487976
Ni 7.867642940777498 8.912764398635332 2.4151287841950113 0.7577233849046627 -0.6796700922446618 1.375549190149018
P 8.42630310886025 1.5005702953754438 3.721516072269028 0.23720406412296566 0.9363011547439876 -1.1304071021258983
P 1.8052353909417431 3.151224872003948 1.6133606039445412 0.39813378186322407 0.41602068944597387 -0.26411888623593865
P 4.47817448782548 1.0776963418049028 8.182260362850325 1.8704340981920626 0.06951877282642865 -0.23419433076236443
P 8.534655929752788 1.847893409629818 12.454809756419628 0.07488955022003876 -1.1975059526569245 1.4192507448020266
P 6.394833059607922 7.733001298316969 1.3566703367635335 -0.5296349099297201 -0.1196974505633487 1.3068660258500073
P 1.6459581976545405 3.1743070750461966 5.923536441127106 0.5300917949614806 0.7034129443875563 1.6839244751001707
P 6.959824709595613 4.01363266123062 5.8975973499082395 -0.8126681165716585 0.11890349390714361 0.6014298803848352
P 2.4796154270115873 8.381891896473965 10.359643364100696 -0.7799451724173407 1.680671772490828 1.1852988690677717
