# total energy = -340872.13671917655 ev
CRYSTAL
PRIMVEC
9.20365839094143 0.00000000000000 0.00000000000000
0.00000000000000 9.20365839094143 0.00000000000000
0.00000000000000 0.00000000000000 13.47048437519124
PRIMCOORD
 96 1
Ni 1.2101246310163323 1.8945270846539624 12.0248992017792 -0.35781245653635796 -0.00860522517050776 -0.07889121518026414
Ni 7.591499661738449 2.97473287223482 12.453678323774634 -0.9231831293047906 -0.21939557518663505 -1.1308989541606522
Ni 4.937808805422886 6.033752849044737 7.1654623096112084 -1.4932144407736863 -0.38963371481201287 0.7135880851483453
Ni 3.5569931238005523 8.100710475761863 8.563321326050332 0.9476854853215291 -1.2050408275813893 0.13038629773576255
Ni 2.347706025708039 4.474726727819038 1.1122529264900614 -1.7303909940928264 0.6103150986896069 0.4330712171703574
Ni 0.05745291784227887 8.358210433372923 0.29666152454347283 0.7007366831069738 -1.3310997015863915 -1.0233625644398698
Ni 4.5134281118262765 3.380982358579525 6.467421874803084 0.7887378310083062 0.5661941971109926 -1.2711891412736882
Ni 3.5535509555202416 5.729884859893019 12.927556292803093 0.9247846694639557 -0.24298004737479442 0.15607933162649248
Ni 5.834521253419367 5.007232001514823 2.9811533444068647 1.7614275516836568 1.3322538697954927 1.251148163462413
Ni 1.0467412852621136 2.504186627584629 7.274277164098145 0.14919314602962047 -0.2207109515639489 0.3579520674380158
Ni 3.5076799215387733 5.825648926621987 4.821059476940077 1.514054003226857 -1.2134159390189618 0.6292651574295485
Ni 3.8882972189512177 0.17937010057480662 3.871565888157696 -0.26116828824804694 -0.11714974444083051 0.6376693223328438
Ni 4.986983952807113 2.9641762759312993 3.1764476149244354 0.14715863209809496 -1.6044573328117788 -0.4426431771295087
Ni 0.111826291549285 6.649974600488402 2.826619316303766 2.494630325739136 0.7114314438166586 -0.8946431128835689
Ni 1.217736056598731 4.605087346862681 8.678278702222508 -4.3685138159323795 -0.5191401810459833 -1.5486096297145393
Ni 6.806169888951384 4.501260875284642 6.934295859710376 1.206120176688497 2.0249250022855123 1.1626639052770749
Ni 1.4227383461057985 1.1521047678102376 2.9102851739298767 0.9781355742812704 2.039762581518977 -1.7658984429708167
Ni 6.942181554316179 3.0449843975920725 1.509637448964191 -0.252012847001024 1.4129921654868247 0.4051312962269797
Ni 1.0733030437032287 7.457834929292048 9.312523057747738 -1.3896766306893356 0.3555378015695683 0.8180049554035397
Ni 7.177758397371891 4.616150144383894 10.21309275902304 0.07731949981777006 -1.3028265656733111 0.6182145560423417
Ni 5.312775056514179 5.731385056229091 11.139053513377807 -0.671002903487967 0.11853711170666037 -0.21109579707168807
Ni 3.2695812760531022 2.4321127778436824 4.624915708742632 -0.6585070850138014 0.5412493542401969 0.01504172482447087
Ni 5.5044872631421855 7.354523862590205 4.05885941833817 0.19993129581443633 -1.2330817928790054 -0.1380561555761945
Ni 6.814858142578693 6.950694938431922 5.992291287852297 -0.041084428745135695 0.032205123977634864 0.3306469518651596
P 3.4124312596860014 0.7196046066818355 1.8484738182341245 0.5227847197771062 -1.3847642809893828 -0.1431428260704825
P 1.1734204409043547 2.136113916712462 5.019937652078912 -0.930151590202824 0.5543604377008582 -0.3880668845455252
P 1.6318546709639328 8.622235784862967 11.96271928492952 0.7624081919748418 -0.34831762967204527 0.970086992945181
P 1.4061809644579932 6.687562341816717 1.0404726734553764 0.9530853161808617 -0.6783644860593607 -0.20606209130252257
P 8.628862418985491 4.604875662717101 2.188940155425029 -0.22022012797045945 -0.4221304018881375 -0.30772813828545714
P 8.6606610591151 2.2801419686338096 10.482542746835048 -0.1364399601290102 -0.7904884951508256 -0.1866366355880592
P 6.051828834345621 4.645095650377416 12.823564155371992 -0.5990482675265361 -0.5690645766802522 0.5638233828859709
P 2.4442063851172877 7.549126017988312 4.749531404148387 -1.4013029020743544 2.115419091812028 -0.21205918942622187
Ni 7.659846029785476 8.684756237077275 9.43003997134974 -0.09729054362305825 0.2591972805646052 0.6419157563140235
Ni 1.8566540299120395 7.238281655690938 7.044739761752435 0.2655072819430331 -0.19181175203109546 -1.5428233620500655
Ni 7.946613621437682 5.5493735056637785 13.344872258132414 0.47483081760564677 0.2156638760583447 0.3744912027436196
Ni 7.930129869057903 0.41703709447666354 12.029829601639527 0.18558145485066746 1.1233879904955877 -1.3739898160816981
Ni 3.4135449023649254 0.6474414814534046 12.626679492665016 0.7390571759537272 0.8668759700726297 -1.3273345781170043
Ni 8.903186664340957 7.911464849612797 6.256299152391185 0.6934915715087863 1.0604193600828513 -0.7576871323500887
Ni 6.685841257676562 3.2563832297590762 4.924028167545588 0.4037621837935949 -1.0000105199774907 -0.7421607545797154
Ni 4.621129323634291 3.2359327005642884 10.596112211304897 -0.054971728250189186 0.6603048003441725 0.2065210332168121
Ni 5.353372394173139 8.571965402116824 2.154509268963417 -0.05818303609863528 1.0954007612540424 -1.7872036322064964
Ni 6.313452030966251 0.3075853468212828 4.974394268340169 0.008389509615275874 0.2527217001425906 0.5276569602677429
Ni 1.4547670776979957 3.564871455479553 3.2527183329429805 -1.6633463938385031 0.47978661894902536 0.30396635725017973
Ni 2.0865798266465987 8.147520282910689 2.5053352441658663 0.5036922219220292 -0.5035919488987392 0.41647500337457305
Ni 7.172797625438501 6.868791581409231 2.113855788987586 -0.03079821632777922 0.5030916122235529 0.2726019840062854
Ni 0.35035474788707 4.077395586564229 11.382222454333059 -0.3128559464303257 -0.34379248810818214 -0.37524839262461823
Ni 7.196727137547614 0.7890655377736372 0.8350608211449028 -0.9449413469174888 0.2925833122242187 -0.285957579377585
Ni 3.4491906717489997 4.168106844774774 8.359365492515112 0.19393394058042085 1.0985542192813598 -0.05857050134504106
Ni 3.296722864979938 7.952237056783322 0.27451476108648903 -0.6070536543295159 -0.9219289451827155 1.44703357134225
Ni 5.667704943043341 0.14131297266281395 8.409448120627784 -0.3310038209839461 -1.154776017888566 -0.9021345361646076
Ni 8.970649481171648 4.017884730680566 6.078974104735858 -0.33001060383274133 -0.7159594135939992 -0.2216478615559215
Ni 4.103451143787652 3.0311881134953187 13.033137902057751 0.17493785909389228 -0.4235205973674448 -0.4854967819599251
Ni 8.383216773526946 3.3396211172647745 8.49008229314284 -0.1055602398310182 -0.7401452668115833 0.6405299317100904
Ni 0.7686113271154479 0.3336363022154534 10.271540592349545 -1.4425444252226447 1.3056820328442353 0.506486753948031
Ni 6.562162494706463 2.2663548881955595 7.2436317423790255 -0.1907293176001941 -2.3302658712857163 -0.166843512121532
Ni 3.9567632345587906 6.324809345559575 2.3865390220318776 -0.857213250171885 1.5622516459780063 -0.8320557770696508
P 7.097281607417243 8.05989225029882 13.252276090660352 -0.9977327796869074 -1.601940479927196 0.7026917499508157
P 0.18182747739524244 1.27563627224428 0.6897074423990502 -0.10192187174748253 -0.03278850728493062 0.5329408343745016
P 9.123448619646837 5.88956833492883 10.36902666358452 -0.5051914321753751 0.2161235893035826 -0.08789856088519701
P 2.3981512779657495 0.615697142908966 8.911897006748674 -0.23880329028928546 0.45589438571246 -1.3069981805524973
P 5.637829867540964 3.906152316448017 8.631334521659532 0.07846595471738746 -0.019017678753083377 0.9212514594997165
P 3.4087221853090885 4.395289951275288 3.1943100753480373 -0.6227890627869016 -0.22298560653073854 -0.31280041060204195
P 2.490509991048421 6.085919185442603 8.795728429117435 4.49362909507719 2.1596304962219195 -0.9339036010460884
P 7.7394300648652825 7.9012948069664235 4.06455740331769 -0.22729811786316337 -0.939387506978795 0.9044511001129263
Ni 0.9932128074057293 5.596192516471108 4.93303946958637 -0.004148989171367048 2.799893547423868 -1.062402451951151
Ni 8.372199994298251 2.011487176916502 3.4494815073577105 0.17770822275017784 0.998251628304855 -0.8932899412897842
Ni 4.22497625066793 0.6307570893182511 10.279649935856984 -0.05755234449317185 -0.7491292154777486 1.100740171189085
Ni 6.458584521908018 1.8897595895491468 9.766519283676928 1.3357032617966738 0.5895135885632234 1.1355097134597862
Ni 8.55186461194517 9.027344017553238 2.4536889144734486 0.4873294642932898 0.06488615915042373 0.10196660894248889
Ni 8.000307765147129 5.444635871893893 4.107352574627287 -1.9896795488196573 -1.0699941482554798 1.4291921722854548
Ni 7.5695765471831 6.411406568419053 8.747705579777847 0.036009071104757345 -0.03453017256638569 -0.716182842458715
Ni 1.9275774223400484 2.605721388195295 9.50587811741862 0.04314825325269988 -0.8828569188819183 1.2711958261419074
Ni 2.250156449229391 1.902469841942487 0.6149599298628353 -0.5478465478417404 1.8753824433362734 1.203281164577805
Ni 4.2148154116800605 8.064365228331523 5.974267763404884 -0.208154455055177 0.6693427421767246 0.7923312047865192
Ni 4.306465443057962 2.066129297451811 8.48162321061227 -0.6201760506440867 -1.0704656885752597 -1.042911433106075
Ni 4.936317812745319 8.088451202635195 11.992516129334618 2.217790392392103 0.6256681841069095 1.131630433010038
Ni 2.343877303770581 0.8589691648394574 6.3182637036318825 0.132594618240991 -2.1354361583639028 0.8096694389546507
Ni 1.1679810787287834 6.126452097492038 12.353175293282211 -0.5290481841883147 0.9108184370918506 0.39455557759366244
Ni 0.11485061373353671 3.407387654826081 0.4398612471995053 0.8981274718877436 0.576982288865432 0.9465125480593506
Ni 0.7040172906402996 9.043514845543896 4.449745237542975 0.10087054766483272 -1.301506818420623 1.5711823728087329
Ni 4.627737550439807 4.323952394214621 1.2552363631712613 1.4727214630266572 0.34691020780155735 -1.006257529328467
Ni 3.1888375800018536 7.059307312431782 11.046430655296083 -1.3019493052746804 1.3910259456283784 -1.3076540689689413
Ni 2.2302305285693027 4.247101845710355 6.023084888473325 0.8884557531259344 -1.945957425341358 1.78731496097338
Ni 7.567441298410286 7.113838989065049 11.30864656752434 -0.6158823083647393 0.08823280429616417 -0.10453128434587158
Ni 8.439036962350702 1.473091561778474 5.651339917858259 -0.42062682075941754 -0.5255424850279014 1.9421912734307067
Ni 0.17038272804613414 0.20394478914501502 8.045219777912532 0.7705197653383827 0.9278761639050858 -1.4580805731850308
Ni 5.65638444308403 6.568402575171839 0.5011649757596506 -1.0959820876788093 -0.11670211538045061 -0.9381901442365843
Ni 2.5341813506475517 4.856034299619245 10.545423062096843 1.3871029564248885 -0.5077334818709384 0.5916748578806004
P 7.297093033528334 9.119325380637266 7.069862988369452 0.5910225690085822 0.7686955676454503 0.26938142018645866
P 4.445357853534354 1.1633700458185274 5.995914768205128 0.9320488072255367 0.133022449807029 0.48305989038365843
P 8.766236225808806 5.98436601751493 6.920043994517699 0.12797871673553443 -1.6662985344882915 0.07582825998422425
P 5.737901246449573 1.7971983959793982 12.57861706759386 0.4112914022911046 -1.6316074108640093 -0.7358764642329004
P 5.677856578372707 5.107082492619348 5.231936562780344 -0.7013126102151018 1.4021613934199078 -0.5622444684346253
P 5.488518915638604 7.648856861532291 9.98498284411122 0.15984008422050536 0.5187984814358484 -1.1085995193325036
P 2.3508812878917484 3.9801313234991893 12.414385144525621 -2.026803450255148 -1.2429154911399753 0.6855466056300967
P 6.3340866333311086 1.3685011865446441 3.0105857239352227 0.7593966588420277 -0.8869501151146854 -0.9285924732458202
