# total energy = -381170.37567950215 ev
CRYSTAL
PRIMVEC
9.23522744985820 0.00000000000000 0.00000000000000

0.00000000000000 9.23522744985820 0.00000000000000

0.00000000000000 0.00000000000000 13.51668888396020

PRIMCOORD
 96 1
Ni 7.322150225037105 5.642382377422393 10.86161955423826 -0.12317409625803949 1.015628943241038 1.1842835404293799
Ni 0.7410457471618179 7.28364856105504 13.223822700395031 -1.29256323607409 -0.27216669624107964 2.1540339759707483
Ni 6.53589065045303 4.31313759443691 5.468338971631942 -0.09885685966891361 -1.8767201883110904 1.5912922561847305
Ni 8.536619599059025 0.6551987652209024 9.556082524097189 -0.34065805624425843 0.06751434080189019 -0.5478987412359144
Ni 7.708801500147944 3.892519152109465 1.7433957954048835 1.2214326386758512 0.016003060296475666 -1.3882807787830735
Ni 8.918025264877032 4.9315746125609055 12.885473512825326 0.1837793686449222 0.01472059403962626 -0.015292150272380114
Ni 5.694081181685189 3.5737468000660697 7.859968323580523 -0.6350491111011772 -1.137992113562008 0.6468851845041569
Ni 0.7327645185475897 6.870686122431392 4.181996438593371 0.11888883861912428 -0.30674237733342014 -0.38494710796962095
Ni 2.296237762253895 5.207541684547484 13.033859609219048 0.011927090454889136 0.9581172221778143 0.5863218210988032
Ni 4.296911299494122 4.014396451119132 4.885715242727435 -0.9167980517140533 -0.012609718344210541 -0.19949729360081125
Ni 2.3090562582018697 5.692742073679097 2.2076266766838524 -0.5734166830013608 1.7412274225866977 -0.9911551264693897
Ni 6.473571334417776 0.5338035450934283 2.97780771996719 -0.7553481998042668 -0.8036574284326159 0.2657021715626586
Ni 6.865228102903112 7.558895285286618 12.842436428555041 -1.1066452238196103 -2.4316359842947866 -4.797155536576474
Ni 2.0215451516800114 2.6634858241178363 4.63258873571098 0.5978475623502155 0.2911656059410856 0.15514653539957796
Ni 4.961709160311799 5.418908339274638 6.863802183757315 -1.3924642207368019 0.35831510720438936 -0.37375381035696276
Ni 1.0618757079207812 5.913307015123961 6.36149445896718 -1.304899646152256 1.2564220102668426 0.7373347939459818
Ni 6.977334531082119 9.183122473945192 5.505847848643972 -0.37866358895375435 0.7684230307103541 -0.6851007763419298
Ni 8.987815880063518 2.589474709905252 0.16448586871800258 0.8986725457579362 0.3387014467385199 1.5833138659649442
Ni 6.631798489372132 3.5558212232396875 13.097455233712521 0.287975124028246 0.015887874874850057 -0.4995170074984171
Ni 0.5371457739720825 3.915191635936754 3.338649304425432 -0.07743185702591826 -0.03762372389004488 -2.3930087588408915
Ni 5.879035085395624 5.007756005266121 2.7839649096645904 -1.1879527617508507 -0.36406357965239233 1.4362439369259137
Ni 3.4003923422566844 2.4139130326927205 0.6478290535735799 -0.6948848523118871 -0.15258854486441464 0.809977971334005
Ni 3.5368058895531753 7.303550476593863 0.7905733494092184 -0.06577370396169963 -1.1545006527399924 -0.23456534094853798
Ni 5.342828534073332 7.426683766560968 2.760730000474742 0.5554644693983143 0.37466809464111606 -1.4431275514196245
P 2.9554575455841263 0.9483008785488869 3.855026898507165 1.1370374629582223 -0.41684729911232726 -0.47978713316965754
Ni 8.705393383964813 1.9429533645638282 11.645816902492953 -1.1860748280018476 -0.19674312789444182 -1.1941637756575691
P 0.09946986621530825 3.803750144146979 10.948748385773973 -0.6091930692700218 2.4941996659596204 -0.3610379054521911
Ni 1.9724506816083744 3.864213179428959 6.78398580545763 0.9074556912672048 -0.6597489278407025 0.9705575048236962
P 1.9171501385705714 5.029726611793666 4.6043381743962435 0.926520935428772 -0.47097699107719526 -0.03900389206702315
P 5.187371947407444 1.8117761913325399 13.326306944908191 1.5388890599926657 0.13810680630847183 -0.5629592351134627
P 2.1669907515969054 0.5794948337840649 11.471694997267662 -0.4099752545828424 1.6752169200238438 0.045501841086540984
Ni 8.046432187008172 5.501157276531597 3.975014669944098 0.10799636007633659 0.6028367880346909 -0.7466455298239464
Ni 2.5005948792112274 7.6804493513292975 11.954659537790482 1.5009087240941508 -0.17853406108558287 -0.8350711668572068
Ni 3.706189199482425 8.199921670189248 8.578961270688904 0.8851963656483723 0.110030616897546 -0.16563972162141796
Ni 2.3267509543375455 4.75073038514503 10.501656239927463 0.568622346936511 -0.08371023383546228 -0.024194080747700266
Ni 7.422509443673011 8.018661857530102 1.1607406667264408 1.8303328592958024 1.2160610899512927 4.640299474684957
Ni 6.309673749699692 6.07297486558832 8.669536689175471 0.17915575382998178 0.8022782886969022 -0.2201031427766209
Ni 4.768480492646476 8.535151197866137 4.765700689130381 -0.9772200044455364 0.27002882396247047 -0.0800150443720622
Ni 8.861847375214548 7.228006314594993 8.290799080619257 0.43939201718206267 -1.5791427653063903 1.5769282741535746
Ni 8.332678067344963 1.6552575534894058 2.3274796137974127 -0.4897907813495887 0.9738063507782971 -0.08683695238990205
Ni 3.4288553138068694 7.306561160800664 6.336312763793303 -0.5025563085453733 -0.32885694984427233 -0.824862087534689
Ni 1.9658105529436818 8.750978467537724 5.089155301581285 -0.5562226877205775 0.17188493120018142 0.04555429159103122
Ni 7.177074034225339 1.071286404873941 0.4671732248013205 -0.5049302080941884 0.08379353757788795 -0.6363197502834849
Ni 7.575010757497868 4.104033570478671 9.184522534453631 0.08540099127432389 -1.4551279183146102 1.4447799994213828
Ni 6.633774828084571 8.54434024935622 8.424060644726236 1.0254071056737244 -1.5648973111309694 0.1142366845590936
Ni 5.390334544992915 0.8599262148061265 7.28131851312444 -0.4936312381416015 -0.011963085899147139 -0.9645645204650549
Ni 0.1339015653816144 8.931333227889303 11.559999473280447 0.1808367410768305 -0.29853464471164715 1.3857646972294393
Ni 5.266647141368114 7.71287423553199 10.81720365048308 0.19900158491131534 -0.3917348203154157 -0.37372501400155633
Ni 6.64194800453555 0.3423979113619167 11.70230324875822 0.46324722653310546 0.8638523527549573 -0.705405806447869
Ni 5.969097025226061 6.272732839186797 4.8129416490170325 -0.8751754910772604 2.3454253526349738 0.027040291947243753
Ni 6.334414924515703 2.4851351081615816 10.609966066028505 0.0040379175147994975 0.2696495862461808 -0.03860151442228191
Ni 3.7943856233319604 2.5477407162533092 10.419893999166508 0.6847549629667369 -0.8991096332953548 -1.7981850709186644
Ni 2.6875712977722435 1.467819373546979 8.35861243357054 0.17071790747527374 -0.5644977832451762 -0.060371301999205707
Ni 2.014868082104806 2.9776590328023755 12.318042656892011 -1.0733700067062482 -0.999259500744079 0.16766960756725316
Ni 2.309998251419948 8.018098508644782 2.673073837441458 0.2380687261161061 0.8343705412457565 0.5418713040949119
Ni 3.671575566331843 2.005161857867543 6.362981330615324 -1.7861286539747627 1.2105517300972894 0.2870700957154734
P 1.45580434240266 3.736175983591267 0.9754940063001915 -0.3404924772006716 0.48458943965430734 0.10266209234761674
Ni 3.701359175432864 6.245064097212639 4.012645451960821 -0.5323430528895025 0.059819543260793744 0.22558396338553408
P 3.2964498553010273 6.637330390721438 10.126500976168236 -0.7749528614090718 2.285367725221445 0.37482981702996093
Ni 5.2084190311721645 1.6176424713596511 4.947689161249392 1.657091671178043 0.46904583549275347 -1.7995243585553784
P 7.463689323667261 7.732249743096003 3.507459106718969 -0.9423396476285835 -0.7979063848814517 0.9700756800912712
P 3.588957219969754 3.807407294287756 8.61145541909881 -0.5484330164728297 -0.23396267436753257 -0.7084672189820121
P 5.3332146621123515 5.483878165639191 12.547109548891418 1.5601865359188614 0.7435496645074421 1.2736946813043613
Ni 9.232180003106315 1.346976420031673 4.468847226339812 -1.11217875204333 -0.02942858967376222 -0.4455732062921101
Ni 7.99112240874274 7.202424734064813 5.833505413188482 0.7389561315994887 -1.6718598306261527 -0.040615459528517146
Ni 2.27000971578974 9.299320107963501 0.5072448774801829 -0.591700311801897 -0.40412445222902016 -2.037922957207077
Ni 1.5355228272894865 2.518686690134918 10.07571830648616 -0.9046652730062613 -1.6723421695792104 0.09008605545481904
Ni 6.862882355085544 5.763474682083662 0.9248212358268911 -0.5353643562143297 0.7281353868349009 -1.6616972882708543
Ni 5.14621053786845 0.5928526670255274 9.48095764143264 -0.7158483419374316 1.540820472687424 1.8986743239846786
Ni 8.604396934622558 -0.25221406652678735 7.201069926171753 1.3060509861478797 3.023705249400328 -1.298767565112589
Ni 9.308093574210314 5.873900298834332 1.7486949690179585 -0.89312153403272 -0.017760409307214575 -0.25079928630889714
Ni 4.4779494666901885 4.767353794875833 0.9249403702632953 -0.300521850345005 0.5916419477601359 -0.3406945659091487
Ni 4.005355163271101 0.44983500845209345 1.9760182500411574 -0.47410036719752535 0.8051597240097552 2.8986537336139175
Ni 4.325272683540396 3.5440093671031896 12.239727003081912 0.6324504971360656 0.9060464696245041 0.9522304243797343
Ni 0.467326529579949 5.204429412836772 8.983705280246197 0.2362671541309931 -0.7245638674335586 -0.6104809348435098
Ni 1.0571010952369895 1.4954696450658804 6.404072552424343 0.6993310610086988 -0.5077455660557966 2.200085518913172
Ni 8.989201164207753 3.750462880732129 5.443224693619751 0.2606738651101317 -0.6387155042091709 1.511634852262403
Ni 4.878684463934069 5.349256252502576 10.50668482137103 0.38060657161273803 -2.2968345882104635 -0.7377988780665938
Ni 5.066759874582843 8.940457632785987 0.3020889133330091 2.3289456098123953 -1.3608761615178757 -0.5849812479105087
Ni 7.859520415040554 4.974666184674197 7.1720629997142655 1.0075708488232518 1.1045307485797689 -0.025110679024698688
Ni 0.18956320581968103 2.965948764169788 8.325604806504506 0.20628937682198023 -0.5147713625543264 -1.5306101078133254
Ni 4.930383268196865 2.6716035892030443 2.748388965795147 1.2549138011524323 -0.4945426942122773 -0.447750416449087
Ni 1.2789866742326905 1.5607627043974217 2.0406149732095304 1.8877196247453876 0.5788923614039515 0.7206871580869717
Ni 2.7345509007170166 6.005880936869275 8.10690445751778 -0.20554349979489117 -1.7373957075454336 1.0285873031739188
Ni 1.7080276441570756 8.664545972165179 9.72378409907534 -0.7557917150995886 -0.43080196152020644 -0.7309222055514186
Ni 0.4701358858244547 6.438006472821487 10.96640059986256 -0.1472452782746303 0.518451896729707 0.21566850404403504
Ni 7.435503408945921 1.9055783983524073 7.7467527445633655 0.007955507401650816 -0.12842377469275304 0.05150099609276937
Ni 4.244399795200041 0.431511393314935 11.851176041647948 -0.5186663267333583 0.7764983515193208 -0.805841066347496
P 0.03988417755800939 9.28971547123015 0.6429565474769291 -0.24402468658922488 0.031764694006106584 0.06985661578182163
Ni 2.9979303574463265 3.725601647956951 2.58030874648424 -0.2245475517012197 -1.608232740693811 1.273666142059271
P 1.8191828438903752 8.522951462169253 7.379395707013412 -0.7009241165274316 0.7104896487286796 0.07980421391283676
Ni 9.189134607131166 8.732184779314288 2.866686690576115 0.737553080604375 0.03790603101715407 -0.2599480426877007
P 5.532122994769032 7.491616652015009 6.742678479322111 0.8946515975240011 1.0130807228978875 0.21543993297299668
P 7.707083747809094 7.974526704694822 10.546626257340332 -0.7170809287929522 -1.107576477384628 -0.6103426094934327
P 7.411667286437477 2.1076821197684534 5.578824617362196 -0.06391325371419315 -0.236099003984245 0.1882183782528823
Ni 7.210893437799895 3.256461319670819 3.709114919595046 -0.09353390479410344 -2.4244343243400244 0.33918969922884806
