# total energy = -381167.0881613309 ev
CRYSTAL
PRIMVEC
9.26432881844212 0.00000000000000 0.00000000000000

0.00000000000000 9.26432881844212 0.00000000000000

0.00000000000000 0.00000000000000 13.55928167849487

PRIMCOORD
 96 1
Ni 7.643219382373885 2.9962506499372097 6.1195745376496795 0.3996828715178988 1.0169062672915647 0.4312742731709347
Ni 6.6673798505301525 6.430546552398958 12.450863999106382 0.9706194684098832 -0.46751088690546583 -0.4654084958504824
Ni 4.497312767094345 0.01026302330111633 6.854040323880832 -0.939873445476278 1.091616611621262 -0.07862304912054201
Ni 3.1344651693715435 6.751648184116499 3.2158004165008274 -1.8476597806100243 -1.1436868499539399 4.077357723072991
Ni 0.8813498644352867 8.331253279741647 8.950508801060042 -1.2694009390250138 -0.20072653802222204 0.14047942030570643
Ni 8.432920022571084 7.241184575391357 0.550418779998406 -0.8608948127885303 -0.1684849043796969 -0.20481150672487308
Ni 7.959503563182796 4.843029720089253 4.467552964106282 1.948744244057876 -0.3010011039742687 0.31917340400792127
Ni 1.0823237255817995 5.730997094493836 0.559503380692642 0.6133220038367309 0.312146836178443 -1.5046874744102923
Ni 2.4279582006349187 0.4418325100850152 12.107760513229406 -0.05939119747412352 -0.43291155166404155 0.3567490482688501
Ni 2.9388581338238176 0.46728532667418915 9.270467214619652 -1.036545638789047 -1.0341683968061222 0.09542366561764858
Ni 0.49831434269010266 2.3595689263897115 3.0289537301438725 -1.0064485622933506 -0.3559707753419289 1.6648779999916812
Ni 5.510487543479961 7.725838665456892 4.863781816311044 -1.0144488068900077 0.6553556838690133 0.5719290427122409
Ni 2.034437311700528 5.794355838270993 11.672615922011584 0.7248636580621645 1.835448840366129 -0.4501232875566377
Ni 8.654689522284139 4.794225236653361 1.8949637699998816 -0.8983028211233433 0.14809991296544173 0.673366261513821
Ni 3.9346715582810243 2.4053625030077095 5.79066770902729 1.7148959837810207 0.0655747005770161 -0.1592093926150419
Ni 2.500840674285291 8.025808363477154 7.3132388180585925 2.8075358944604742 -0.13747637181332453 0.2884327803909549
Ni 0.7384679762167843 6.578127308119109 4.226577584626532 0.22518904193996053 -0.21538182604155168 0.7737871232357447
Ni 6.247501946528353 7.878848317777923 6.923287474960922 -0.7498033587266378 -1.7902609309755815 2.138287511769769
Ni 5.216094971319307 6.003284978446815 8.387229280001328 0.7719811803752575 -0.09582347215922853 0.09070337732384379
Ni 0.7027984579698462 8.416661125754457 6.201865863497753 -0.07716471940746066 -0.20881317168509844 -1.5992181959000265
Ni 8.721086965865203 8.190694885153691 11.705510773821725 -0.3325040596785564 -1.269781205182568 -1.4996493977657528
Ni 5.94582761203273 3.4456076477683584 4.465925221558885 -0.42744590056378 -0.12441233954051477 0.372346645596791
Ni 4.958778242497763 3.3850189382636637 1.7739605203694966 -0.15704735196671663 1.0061426010171577 -0.33523045747078395
Ni 9.144744715964542 1.7291035673800803 7.541645282831152 -0.4827040497061365 -1.205784647725949 2.7625369611522808
P 2.743130662003377 7.683046731328118 5.142845630253585 0.1122736472954518 0.08826288620315122 0.19022486715994982
Ni 6.7189543682385064 0.9304443213585633 5.938870101201228 -0.649176808751811 -0.9118155108977973 -2.0500724480854178
P 8.721577975284735 5.404494359161427 11.641876879483055 -1.6725691979883517 0.5129574492740391 0.28881124677629616
Ni 8.223027392213536 2.3662855646757825 1.236597032333478 -1.0065413791174729 0.2658194138668132 -0.4157826052932388
P 3.082714629418451 4.7852481021717015 1.4020162529085662 -0.11698108007345015 -1.0240259090554815 0.487060012681987
P 6.396935567982592 9.294900955055077 3.7529647214704314 0.4274749540295025 -0.1336647113767182 -0.6254812649070841
P 5.5600146445521474 3.6393154959386433 12.27902737806128 -1.1142520896325907 0.6521330631666576 -1.9218096244505611
Ni 1.7680971267539731 5.789732938264442 7.7366010360733455 0.20363882657301058 0.5798547253172207 -0.73386817555362
Ni 3.7147919816167394 4.071227762883349 7.836261125312765 -2.3687822821933593 -0.06754390848824497 1.226853038360474
Ni 0.9791098398643984 3.942194193161424 11.849252391740844 0.49829007706985146 -2.400729267413601 0.994236593608191
Ni 4.564544000255747 2.0114988339125124 9.058915342997226 0.9535617415966481 0.24361279586278692 -1.0111284842675232
Ni 7.116134666997723 -0.19525221175964744 1.36490427868764 0.9950462339936799 -0.297134679040327 1.527318838656563
Ni 6.419920367413961 5.218679719018359 6.176849396788956 -0.6969972706691996 0.7583335076848359 0.6873314654446614
Ni 1.3525827215559514 1.7224795723807138 10.636144138318405 -0.7700273990829964 0.6822203694703413 0.9237091770115898
Ni 5.544533951343837 6.4924044749315035 1.1033815446497155 1.552389922692578 -0.3979646032752114 -0.2520200460898756
Ni 9.296846464075868 1.2152112560306285 5.471048369897019 -1.707879957474504 0.3184455247029612 -3.5082851759729383
Ni 2.1506119932278787 4.2982871942672265 5.800958525314418 0.2852870356731216 0.34067014042911653 -0.12817669167895343
Ni 3.611105615137146 1.73997988923918 0.16128177139086847 1.246167165308054 0.10376920936886645 0.2090394287632916
Ni 1.163627473993604 3.5697959735956415 1.0637978475395153 0.7040410648898584 -1.3183953666458454 -0.7251958445906026
Ni 6.697081288247592 4.356902601765117 0.33455621624562487 0.50648084041076 0.2698367625563224 0.6029064649303617
Ni 6.461804397333032 2.048648791880987 10.722937001467448 1.0270770371769795 2.4076511913444145 -0.6860906510590249
Ni 3.320622589675417 2.637054098726809 11.696778217616965 -0.0602165215888963 2.342602281363882 -0.9046673298887904
Ni 8.114940469615481 3.146064108866937 12.10201107085653 -0.8239256917633488 0.1395085717520049 0.4981826049577098
Ni 4.737240351001468 4.120013717661899 10.108810212501009 -0.8382279673186338 0.37341031097461497 0.9419881778264356
Ni 0.43028452439730847 3.908101463654195 7.599448208704644 0.6558778749210704 -3.177802260489469 2.5125118340052475
Ni 7.862015032583728 7.304256124979731 5.254086130331058 0.20159120001536246 -0.8239691434067745 0.7553751963874603
Ni 7.931293682381298 5.452520638989002 8.106931457479885 -1.0222045395760266 0.6416342205178627 -1.8799330388214333
Ni 6.119839497449654 1.8474461018163144 13.152679511804294 0.2309477988006087 0.15977709219305386 1.8072991174047905
Ni 8.593313344842457 0.921586696716753 9.946560318764078 -0.32808639022683495 -0.8169811421247155 -0.46108801409825756
Ni 6.611256547444611 8.937177432103276 12.720938634939992 -1.9097007570021691 -1.9901156079158115 -1.3080207082797408
Ni 7.443925144015323 1.8539126032282833 3.8721373397555365 1.0839282418380687 -0.1823817169664472 -1.2950150400486922
Ni 2.645614338418298 9.206713810441133 1.2256604923380205 2.2239150172326023 -0.3435207225040342 -0.42576259932408606
P 6.778848253092919 9.264884530162842 10.511683441228213 -0.7934761170242399 -1.8161678806493304 -0.22434340611021364
Ni 7.314817459664036 7.134820817926006 10.040132817634152 0.3038527144904509 1.0805405563127584 -0.7931716984099437
P 0.22901420473334147 5.255505425483369 6.27004205818354 -1.7031750957996667 3.177910246822243 -3.8689299597517692
Ni 4.650285362100694 0.8775042416041859 11.228725804528864 -0.29034490981200317 -2.355691767557988 0.2072957065993075
P 8.197003892978262 8.324277240252805 7.199232915872993 0.32932591906089087 0.9962965614610133 1.5586677852814899
P 1.9039399780486734 2.2857692842009656 8.732909175681554 0.1361208862266946 0.5141620111051015 -1.946081095403416
P 1.5625216735568517 7.797331489806698 10.918285562245268 0.3925837985792723 0.650222476407506 0.12985356516074412
Ni 2.2572351518960025 4.209664626205773 9.716500171323846 0.09492898536941716 -0.6813963309071491 0.33040655371957933
Ni 0.27432325696187515 5.467473265463096 9.634859201348437 0.19550514172228267 1.48869881229152 1.4730675335121661
Ni 7.036470704760586 2.9553023172138535 8.472964156816206 -1.1620134161772697 0.8519278334032295 -0.5527301011862868
Ni 3.287567464979278 6.887231634208427 1.1824998379281626 -0.33719966538201285 0.3958619551099118 -4.428212774454909
Ni 2.765531808728507 2.1348255771734443 2.267477793674044 0.08093395664190577 0.09729774271190986 1.0206371950889066
Ni 8.539237458393083 0.7569391947199129 12.985140612829408 0.8073960695394417 1.05017197132323 0.5675476258150935
Ni 1.7814099670533994 -0.04899810790510395 3.4093461389193793 1.9100056898370978 0.2252846869775604 2.360687935220999
Ni 7.679563343748032 6.6892436661923975 2.979760144903822 -0.3778336368532912 1.40529325418067 -1.1782586743915386
Ni 1.4957999784723237 4.462386248006776 3.301657582454154 0.2902158404333066 0.9040363811730108 -0.24582085925769923
Ni 6.834702890647017 4.9274462829343255 10.098844574150213 1.2654686938501434 -1.1772829407418306 1.1283993276672502
Ni 1.1392067036183173 7.548852930536757 1.8684010868359884 -1.2997057606561424 -0.271637563210487 1.907633332950179
Ni 8.891504291757993 8.705189377866722 3.703758166170242 -1.5057269714184003 0.98942374560058 -0.6301174781275147
Ni 4.152374017707755 5.342293656468076 12.787609376216833 0.6101821726561685 -1.0717491832733734 0.5105550104801335
Ni 4.893909413147323 8.017711340219186 2.6861068661710683 0.5914344597350201 1.6194820883553849 -1.122766554861505
Ni 2.002623607046228 1.4909547345776824 6.389011787670762 0.7019818683679846 -0.9279149875628213 2.4226800606530787
Ni 3.977732157941242 5.868368560019159 6.41032622864285 -0.273167112481136 1.5237082384871694 -1.445848292784897
Ni 8.935324566369188 3.1873552217511003 9.701449342965844 0.2450518423021586 0.6355283647304409 0.9354696599816278
Ni 5.046289091118763 6.603817291522246 10.61341874008981 0.34989114480675226 -0.9076253840758498 0.46705451609433757
Ni 4.150715702875746 0.9905605501010654 3.8907002751125024 -0.4309405439805997 -0.420461755936463 1.4005467406346204
Ni 3.628198301534112 7.562063863220808 12.084193913957536 -0.9349626384382221 0.4280521666892112 -0.7780343285478729
Ni 4.9153655983480675 8.496167594404197 9.23978283163028 1.194741245427594 0.08527552144005314 -0.38161804359638796
Ni 0.5189321061461727 0.6002201051992373 1.626598402805968 -1.2471197590293102 -0.31409547526438164 -1.7340378468167945
Ni 2.9960283060491193 6.689067643947659 9.374223063564274 0.21117498704905566 0.565247259816691 1.1570347320157557
Ni 3.776575789519921 3.836043515255492 3.8133171905940295 -1.135483488207541 -0.06365254385363876 -0.353169815558024
Ni 5.119773746132714 5.716025939362401 3.974346972245062 -0.45090644557956533 0.374218151587891 0.49421436433858107
P 5.354893143459877 3.4547330115087447 6.9464066071580115 3.417158852179063 -0.4979576334310973 -0.5153051235706092
Ni 6.822714849347465 0.709742072308343 8.07738566048411 -0.10868850104735475 -1.2153571219057326 2.251019329648562
P 1.011609104840311 1.986902041292487 13.212828165697143 0.6852624987307746 0.027586908479333136 -0.8297520686371387
Ni 1.2083556528145007 8.076373069360429 13.178564046109512 0.25564992953297905 -0.7436152276380548 0.07455504969875548
P 4.606094514342683 8.499521281382895 0.0705033940478024 0.7205840568502041 0.8861846977035706 1.8393101230937483
P 6.55323405698163 4.85867717121363 2.8212928765630343 0.3982808489640495 -1.4730019703815536 -2.6056425898236606
P 2.0133702283039416 2.544179203805622 4.566467274887731 0.08569538258629113 -0.3556696991617423 -1.3599060842951225
Ni 5.369540047087847 1.1363440260591504 2.020102615948752 -0.06230271469396367 0.3473141281081954 -1.0231023687999474
