# total energy = -381171.6739230615 ev
CRYSTAL
PRIMVEC
9.20559584723402 0.00000000000000 0.00000000000000
0.00000000000000 9.20559584723402 0.00000000000000
0.00000000000000 0.00000000000000 13.47332003831061
PRIMCOORD
 96 1
Ni 4.942604069182674 2.3780815685073007 11.354438722071249 -1.4485921740786212 1.1890495943594555 1.3664132892860208
Ni 2.779638863826687 8.610002977224662 5.5081360400683375 -1.5503613222983235 -0.14777698240838422 -0.5878719391947423
Ni 3.2880455098434918 7.673186312877842 8.046684031574431 -0.7816786101686796 0.9049717485030867 -1.4708823529353894
Ni 4.3985349449542905 8.917607961592221 11.971313983090434 -0.3492064600349018 1.2590100827089932 1.884674924381793
Ni 3.59630409151436 4.633516983887892 12.45834799728901 0.6507577800856857 -0.4713875962520526 -2.584066663425098
Ni 2.3788548385562867 1.1696445938582458 6.988853366240012 -0.19820300026941992 -0.05775160498817151 0.5720221166466793
Ni 4.536858227764614 8.664030619099663 1.3729179579855015 -1.8977937211519382 -0.6126550596766933 -1.4275016719569091
Ni 3.950489390737518 3.1436005058120275 7.229756444405851 -0.241303688113636 0.496569494834319 0.3263634939984573
Ni 0.2752740112836951 5.955873206825097 7.961277275223484 3.4493310660362337 -1.4130623566031277 1.8263275947911515
Ni 6.655516900432855 3.7740917636104445 4.983282676557261 -1.5907793211040537 -1.8342041693257507 -1.7103608149148284
Ni 7.004998140191346 5.4581634631526015 8.986543145340178 0.322793774369328 0.32354813603684923 1.7285631968554682
Ni 1.2121284185733823 5.142742927932789 12.342423770230987 -1.0396399614436547 -0.0006409760181085736 1.0056710606973776
Ni 2.9467756615575675 7.253705722494454 13.360898672310334 0.832611906683437 -1.3046368794091723 0.945289731395843
Ni 7.203406346927063 2.1823890125388563 0.9467375349633967 -0.761078931640457 0.4247729817173072 1.2851869982146769
Ni 1.0582016508460157 7.964175196788018 7.077548361418315 0.22301080334171913 1.2119180143171968 -0.03959781689728019
Ni 5.53632817727096 5.176214474338908 11.077830819953054 -1.5169274681199099 0.4223720855852984 -1.438657945684045
Ni 7.91069068506647 2.0167711381184836 3.5934420717735285 0.9381919440087971 -0.8785163825250354 0.14246251217400627
Ni 1.059923097264592 4.934521556051605 4.214468135948521 0.11386413171102326 -2.3011265307175983 0.7430341583236042
Ni 0.7792159433271866 4.701196524365829 1.6719847522288371 0.2700411652576446 -0.27440946952866935 0.7252120425405187
Ni 7.315070224239004 8.542102502447014 3.513586289702804 0.9922936109492072 0.33444344279311433 0.20983184275759992
Ni 2.285786264803301 5.647080700596596 6.2651075816530195 -0.18368526626921913 0.3266877101070954 1.0814039327543183
Ni 7.520934963589946 5.122324916401225 12.11533092691621 0.9246923668604655 1.0371429060534139 -0.745584949769916
Ni 8.857725560774893 6.242001536141645 3.113212834006033 -1.5651140551274656 1.2256682740237534 -0.9638687799496108
Ni 6.38463303779632 2.3787351658106104 7.207997177563128 -0.1684900465860195 0.08921316593156249 -0.5540202807526201
P 5.404669745835234 2.3282977063059014 9.203705912442558 0.14078563869221558 0.40954510902395913 -0.5308631259098663
Ni 5.485458054762653 6.677435424083286 13.163810548015388 -0.5501543700393106 -0.6664685059527232 -1.4605236354088846
P 7.9260548244921605 8.302434815240387 12.082415398497696 0.3264817647438764 0.37948582774473355 0.8366097149889206
Ni 3.573115195640594 1.1838580338062783 9.04862752467795 -0.3142834229054717 -0.8359000905164056 0.8662177676633405
P 2.4861828802364117 5.158134684145944 0.6119649962081216 0.3907678284164561 0.8454535385327956 2.1593983256064555
P 5.215688069220491 7.937212006627534 3.3898741285799923 -0.8867896782774212 -0.442897973452792 0.03279956302852416
P 2.817943348038969 2.4684436970888344 12.397852503789986 1.1537259793574968 0.05968661722735527 0.050471012166358235
Ni 1.360154399379318 2.275218240800489 9.330638190983649 -0.46116000498677356 -0.325231180166227 -1.227190624205551
Ni 4.323003031240814 5.774615025104397 8.820874640142788 0.06892561932712 -1.0538301369011076 -0.0722773094081723
Ni 4.552609002214797 2.037087888096015 0.4148906803069057 -0.30045217344933417 -0.7505008990142946 -1.0514765490672666
Ni 7.690492833021819 2.3108715134162474 9.3551462487386 -0.3507151833699444 -0.6823054729849798 0.9481783657975476
Ni 4.705228575335544 0.7178146191993513 7.076429881526031 0.163966190573737 -0.17874026355911798 -0.6329089248297229
Ni 6.14121867309044 1.4389174772260585 4.749049052563928 0.23095139834503453 -1.4643345245145427 1.3573653201511395
Ni 8.916788663564128 1.139192482881502 13.096215699019005 0.5570948059128856 -1.0303060856372386 -0.6556431332024449
Ni 6.560441506790833 7.47248591278263 10.553005073229441 0.5712680120894742 -0.3318610267779188 0.42178638828515747
Ni 2.2959860649732624 0.1439911681574755 0.8041750752773815 1.0699663803413377 1.8550979820556244 -0.9389882146578473
Ni 6.339433562313911 0.4699401433180684 13.288937609215926 0.2925694282671477 -1.6840993101151382 -1.8590801066318239
Ni 7.759028493911135 4.060671167122234 2.6460656684601362 0.7416922995837291 0.3077746752526764 -0.10726848077137656
Ni 4.502714672863543 4.283704342679835 1.0979541752809827 0.16360263658673113 0.9943445799409649 1.4594494285080994
Ni 8.280718814698025 4.905441078852229 5.729893320045111 2.136495709976669 -0.8263924081362864 0.24725116394632254
Ni 3.756205290929727 6.44373296296884 2.4373775728708127 0.7858309417741564 0.2572697245245892 -1.3585943074622342
Ni 0.4744913898921016 0.9012784616788276 5.609037655305638 -0.19070746322332316 -0.45988242382593053 -3.0256901410408408
Ni 1.1786384609756213 3.231753291396458 6.4128288572372725 0.4315038726832374 0.5372908838130811 -0.02876318817562143
Ni 5.48260432005806 3.0510566510208537 3.0232916534643377 0.11435084153945467 -0.5971101699635587 -0.23187365304898777
Ni 5.953581013465602 3.760090052366301 12.921749405895234 0.31193857682237885 -0.21375483196108994 1.2195161383794288
Ni 1.151362280557214 7.721322373427234 1.83409621520089 0.0002825642374253198 -2.2330761149065803 0.47394995766259024
Ni 8.39765749841555 7.984050078166128 8.6513535930942 -0.21058286199101156 0.07016591949212432 0.46760344661927206
Ni 5.845369234586636 5.304117022679559 3.267333839805228 -0.30463972916812054 1.067627447795516 -0.9489298992515917
Ni 8.9272093980338 6.716080515340955 10.741523708374375 0.11104928797004746 -0.47138862469331716 0.15520129989691336
Ni 2.161989412198934 5.304163050658665 10.406078240564565 0.37496634260782524 0.8791203346576214 -1.4956683016308177
Ni 4.580060088953808 8.285514930120904 9.809399136217651 -0.3709821611490966 -0.4854466454482801 -0.5842006609907422
Ni 8.621325860084816 3.4627124849561675 0.13655857009138642 2.2169915506398916 2.3886813351101313 -0.2971817302281785
P 7.101389934035809 5.179316760130674 0.9723171240719449 -0.7963446968212866 0.3176849923878529 -0.5100600731215861
Ni 6.152826929421054 0.7545550726816007 10.655604200336182 1.9389267437468223 -1.5670683506403593 0.5299262159178938
P 4.461676126692344 6.282487746563567 6.469457079931781 -0.5721910381243759 -0.21934415312340932 0.6944459650022556
Ni 7.635949677780825 2.5972852162032547 11.684602018998818 -0.5718791633109119 -0.6478478055277423 -0.14383650970339742
P 3.9539506947663137 6.907888309872825 11.52122478660134 0.3194991627784562 -1.2791647032799969 -1.9797769449939646
P 2.4968153434099727 3.0666601359378975 4.571793463906313 -0.7470183397823329 -0.7117078374064969 1.884871099552999
P 0.35915724152622297 9.012029757930932 3.601242893672468 0.6824080600011151 -1.8798620763741818 2.726720208563988
Ni 3.5835911636851936 1.850379993649125 2.4430362526221443 -0.9637834193246563 -0.752093183202079 0.20177503389139442
Ni 3.951189016019934 1.477617802058655 4.728151429490076 -1.2169784595592394 -0.2974954048138554 0.8526143179472928
Ni 6.013601498220249 0.7974807659961578 2.070862298604653 0.48327072084288375 0.3369045027390972 2.912649019451745
Ni 6.589052498603324 0.3187925449691417 8.47257631944733 0.4432260462161722 0.7611745766780568 0.0965850329156014
Ni 6.822920660442553 6.610621209612547 4.980452876401804 -0.90823370708381 -0.7547691873723453 -0.4148588079273888
Ni 6.333182962751272 7.219285999718745 1.6109507313742704 1.2699737808093483 -0.6753264705639853 1.7258391130560857
Ni 0.8642627608815223 2.8820695285298985 11.506539099587677 -0.5310793556857305 0.4338731442463625 0.47795059418155106
Ni 0.031069806456350366 6.855020573071303 5.336404729463062 0.9145791896858636 1.6637623983299992 -0.4139877181763451
Ni 7.377364491161502 8.514586976537252 6.055664627206353 1.0864592357900387 1.7083759232743159 0.9922835836468781
Ni 0.1567574884424053 0.8715950179531596 1.9731946091793633 -0.5484594988353909 1.2730318509093816 -2.2042242236718943
Ni 8.876394509100418 6.218214276539498 0.14238847392499332 -0.2382826418991251 0.8060017602950763 0.9299816402838629
Ni 1.7281480923343728 2.410549704968901 0.8643299617310175 0.17650777468417342 0.9193760968538747 -1.2219702563468762
Ni 3.1339346301997 4.154872029161236 3.004078654425776 -0.46019249886718167 1.0956876963668423 -2.418365749548441
Ni 8.32086441807456 8.25156469273208 1.1152229524820931 -1.7186449093004919 0.6979930589235656 -1.2765090108247048
Ni 1.0277679510609146 8.202526483792202 12.815067597041763 -2.473836014701604 -0.30437721953535324 -1.3005205432479536
Ni 4.1569340826252 4.760480561454774 4.937338468372911 0.7863292215668135 -0.2532798866389057 0.8395389728205734
Ni 9.051227184937877 0.984096604484835 7.703195634695582 -1.0675356594126582 0.28215646046393983 1.6041107481056374
Ni 2.7258229506555733 8.808742585409945 3.0085654618290603 0.701340892349876 0.9176349457930518 1.5060699565801159
Ni 8.984523437616993 0.4542022567020343 10.672553543362294 -0.4488567621393883 -0.1449369418564278 -0.8132802962343606
Ni 2.315336227389561 6.751660143190143 4.059511262048756 -0.6903568825345465 0.46197170225479145 0.9829283676842232
Ni 2.0388093345145917 0.7282602087777403 11.398455278490626 0.6930272302778581 0.23052768054405456 -0.17715363579828847
Ni 0.9553659399266681 2.6614113966941844 2.990645849003387 0.5353581855667424 1.1575777490034194 1.6067553848173362
Ni 6.058128965207706 4.770836856753697 6.922227866483609 -1.0399412947341575 1.2711395189826753 0.5532111545877634
Ni 4.915686907001297 8.196561257700022 5.55316337090889 1.3787335014142705 0.14662358553023136 -1.1575399537869484
Ni 5.91680465815965 7.591882490584432 7.685693955920193 -0.6804817895126797 -1.9153178460786306 0.30199457823578957
P 8.449135190248061 4.231508614373264 10.403558668988286 0.3891580607271749 0.047460764585124715 -0.7660365327560484
Ni 8.400483616332679 3.809026999752144 7.900121740504076 0.7323604806598418 0.2818510134083791 -0.08095966767351863
P 8.249263293776762 2.5929769973589027 6.093794205098031 0.24354106208458703 -0.5144402044671527 -1.0849813656929312
Ni 3.3829091747816236 3.3867202914516272 9.87727751756533 0.5322790324207866 0.6426096970572546 -0.40143225010883765
P 7.755944619311011 6.401497689340878 7.176927371106777 -2.693795175701193 1.692808664963678 -1.7399264443870872
P 2.1679270215036497 4.609223416515574 8.311893564946738 0.584777873650451 -0.8651602729331036 -0.2921284840749872
P 1.5681364257691504 0.018471948574949673 8.798980971601075 -0.13802401678667842 0.06252357245551814 0.8857188138107456
Ni 1.9077952947863528 7.721442046172911 10.485665219237308 0.7746844382390335 0.3062232716051565 -0.41714117620366226
