# total energy = -340884.3775109522 ev
CRYSTAL
PRIMVEC
9.14665935680043 0.00000000000000 0.00000000000000

0.00000000000000 9.14665935680043 0.00000000000000

0.00000000000000 0.00000000000000 13.38706052717967

PRIMCOORD
 96 1
Ni 6.643456418325315 1.8337771241623857 11.495709752581448 -0.16377541471916957 1.907456955273315 -0.4460735429672963
Ni 5.136855295137005 0.7768495504705278 5.7215225590079655 -0.40529584682930203 -1.694423831969598 0.5923076063685928
Ni 3.010257022101707 1.491088389119201 4.681682774106149 0.05162440904451109 0.7890345363131185 0.542393238036653
Ni 3.55059591663745 4.539770526683365 5.03574355058101 -0.37770611013649147 0.1706996526428286 -0.5820465907622169
Ni 3.5869264471342075 2.9764601162141138 2.6851362754586034 0.014202259642311024 -1.6526976558754054 0.35546401090883945
Ni 5.0824692593027345 4.642780203031423 2.6505975755067386 0.5469520610519291 0.3897712688311416 -0.09860309178689469
Ni 5.488873622603828 3.3361433441231028 0.0816430803660777 0.655752919307432 -0.3202972331997193 -0.9644161678126486
Ni 5.994418625394942 8.256853934786571 12.548468278992233 -2.099763387552642 0.929031874776084 -0.8541145566419033
Ni 1.9262498490672755 6.559819366245165 0.38529661777557334 1.0300754576836713 0.5421564394354985 -0.12300491767002687
Ni 0.6964568184224025 0.18396309860752572 0.32195600254645745 0.7993793698825523 -0.039739998902099304 0.02161732115945954
Ni 8.277068051704456 0.6411899593034297 6.997670858675389 0.5648878195947433 -1.1714372805943307 -0.66018807226065
Ni 8.765627708289003 2.5446280402289845 1.5531804853622122 0.1867775320412977 0.5703303307665532 0.26627038536130276
Ni 7.000121248685479 1.669713497394927 4.4836749802373514 0.947699112168284 -2.0592201760229565 0.2602290642632293
Ni 0.9651097495884707 7.734387612403564 2.5684011222567094 0.18191274774982863 -1.3942274832848118 -0.2077021980091068
Ni 7.832156253007755 4.1834898560112315 3.4960708515827483 -0.29433346214610595 -0.23377549805739095 0.3874742452668488
Ni 7.953367781241147 4.126972648574307 12.62410474823615 0.12042353009609581 -0.5510334302101542 -0.5810122359604316
Ni 8.278504077204957 7.643908859212747 8.452817450315484 -0.42532499756603526 -0.19168062576986988 1.4532191313276712
Ni 7.215872646811746 1.030810202901213 0.31799092576641097 -1.6609462690374428 0.19799885467841383 0.8662077403610113
Ni 2.0409672492410764 6.386224920550813 9.314609281139546 0.5888317320048505 0.9466606436014406 0.2674533499258103
Ni 0.40658363782217566 5.1603439160624 1.5952423125380408 -1.1048894174707682 -1.0695542325045837 -0.9395098914892724
Ni 6.650417026006089 2.2488525204219205 6.915835698465295 0.29815437855409294 0.2058263211426326 0.6537801118517772
Ni 3.543534695705049 4.469725410232164 0.36352573945523514 0.07978801596292066 0.5510920513622316 -0.0382047932044955
Ni 6.2185940966801985 5.809948801865583 4.732701010008671 0.5972749776761972 -0.06910662498967453 -0.3091864679985385
Ni 5.470680917377733 3.3629430556929676 8.922489255571783 1.8559952970589133 -0.6947917783774487 1.0821330976108587
P 0.19340885360349797 6.033319367137819 12.652980751453235 -0.1844501694597017 -0.16104875981662586 -0.11899682495189828
P 4.657451444450557 6.506631542771185 12.545884347757253 -0.7571731688281476 0.2863548148160036 0.896486850960527
P 2.6848829129976868 8.420213268792638 1.4095239700225775 -0.47380571877524214 0.5698346220770573 -1.2049240994978667
P 6.778031215706684 8.10277845990795 5.661374127853213 -0.4749411179312659 -0.395562421591622 0.8905221487366599
P 4.869791138680727 1.334589049542281 12.652726474326395 0.4939708808692074 -0.7427775622281079 0.32276652067581835
P 4.330558989912886 6.236192269055767 8.131059930274509 -0.015969893065695077 0.6492143468579658 0.8635718454000613
P 5.003817136507764 1.380926025246353 3.5541841510568553 -1.2239973140792342 -1.098575045216966 0.4659458564111911
P 0.35687611818858284 5.665422439232333 3.6690991190702156 0.4932206329667441 0.8334313172609388 -0.18965305381687983
Ni 0.9783906988032977 0.03390026313699236 4.559230958879967 -0.10979356118607544 -0.44579380694334836 1.3017397603670355
Ni 2.144992204764648 6.65851181943248 4.652820490877922 -0.05768989851230064 0.21199979694319618 -0.8379916829381117
Ni 6.3273570216895 5.81407394518231 9.205023156798745 0.6331706631315418 0.006021266493415437 -1.0196012976252247
Ni 8.925401551873435 2.4087910038726523 10.450394777459248 0.359140174208846 1.437758573798227 1.0588250190125377
Ni 2.6249631483239053 5.981960875511612 6.837682068598843 -0.09658606135686591 -0.17931207690218795 1.1580546886398377
Ni 0.6291063077829698 0.17292673956991542 9.192372412405478 1.1016374861923737 0.45976955239715006 -0.0704579968112464
Ni 1.553377138535848 1.1013400922920737 11.57592503944034 0.30596976083345373 1.2633519046174564 -0.08122783373324075
Ni 4.693361228622327 6.9395978045019335 1.4189880183370276 -0.4527157308741622 0.44902182696234283 -0.46300194329151867
Ni 5.916672021864619 7.975639896487775 7.883305286137392 0.7911261287348247 0.06923338037552593 -0.8468774154635158
Ni 5.478473871049243 3.15267050645078 4.701000518418625 -1.73984725440972 2.4861847660749437 0.46360178165904675
Ni 0.8273317921416522 7.92505887089687 6.782152700359714 0.35369097816881667 -0.7354609739620366 -0.29099771290465365
Ni 5.457070688430306 4.84694278390205 6.876290117246078 -0.1788240815221759 0.8072112072221453 0.09877561280901698
Ni 0.6156890733454838 7.739875607946881 11.097873064989395 1.18707550135222 -0.6529879549677852 0.47188304783123247
Ni 4.865309275653685 0.6516766041207844 10.327166410863688 -0.7598859397736203 -0.3948998483069586 -0.42923384570213824
Ni 8.452583295838968 7.476579875097014 4.4172080368803925 -0.4383625474762837 -0.3199694175466554 0.5992878943411679
Ni 7.636820198302628 5.9431881869980785 6.892354394867289 -0.5044188156754087 1.8947734462683754 -1.21897080739892
Ni 2.6076576690439794 5.133342977989281 2.4364852587160772 0.16093717393942605 1.375013372250206 1.2511774740384516
Ni 3.2205295713438935 5.377330113185912 11.481840673177562 -2.2568544482731 -0.08775406488753273 -0.5780089303577336
Ni 1.0647717486551056 3.420027356002702 3.598147568688443 1.1125605608627807 0.2942704701186545 -0.4738975071581
Ni 1.611211464903169 1.0876383967522594 2.5398598867677658 0.26713556157507545 0.942832270994286 -1.1950418073871483
Ni 1.5055401107166022 3.8788237834239943 7.87232746571891 -0.6314613937499188 -0.6538726715655835 0.39095294784406864
Ni 4.193002381619648 3.005317826112721 6.913452993733571 -2.248306044482457 -1.0781198626864077 -0.9138927051418004
Ni 4.451706491531606 7.262438288996789 5.670464077804793 0.486893919417768 0.45284557158380717 0.39191993974302824
Ni 8.02701668143246 7.66620841443709 13.203336152521457 2.512943779336343 0.023591157056378726 2.4716595758755755
P 0.48164020887034925 5.852060021001302 7.960736329923974 -0.39947949725784104 0.9135312080373235 -0.12970804072181533
P 9.173550417023748 2.174115167781183 8.360661199820258 0.41287288784561155 -0.972054915304829 -1.6688940631296096
P 2.1289123778227297 3.4963928139879568 10.702820620469653 -0.021553300690743526 -0.31954672818693997 -0.4986220064879735
P 4.418668758360838 6.3632668058612705 3.5489367126515203 -1.8255657769244624 0.8549445087423663 1.482522251167163
P 7.1403944147726595 3.827355531886921 10.337019192195788 -0.03413010891448961 0.8230998534279437 0.21759580297373493
P 6.506878502570634 8.308907572514933 10.047939026951571 1.951059008233982 -0.7329981142438409 0.6730047644093442
P 2.7635441824518954 8.627074114138729 5.917161368133899 -0.31649457162417755 0.331373545618539 0.15763202082559302
P 6.851048996410515 4.429717922721383 1.4787477164741292 1.7948871168936829 -0.4359968754575846 0.3591265473620912
Ni 2.995695540593439 1.8293044077945826 0.2938794173468482 -0.2627405178311733 -0.45746070175831544 -1.0142148365023307
Ni 1.6448620242429404 1.2463695211834616 6.9051524004743055 -0.05115132606283449 -0.46118957267312827 0.4323039999870297
Ni 7.4505667762216925 1.0013213735151234 9.278464427825337 -1.692542298676169 -0.41503132894951106 -0.4956444119168883
Ni 3.019486001273718 1.838990719928537 8.810224989405844 -0.030277310827302697 -0.1692516073423924 1.3439580456062985
Ni 6.188355241236522 2.573833323178669 2.2146613935211326 0.8760234408998525 -1.3493288229999083 0.19814335067607813
Ni 4.656244085431027 7.210412091246145 10.305934270772518 -1.1760354414879748 0.45806439678058536 0.13716629677207343
Ni 7.749040560504221 6.536943571488773 11.213738370897675 -2.291743546840802 0.09260547944256309 -1.4686794317467997
Ni 8.094079986971792 4.162909872723794 8.218356560716128 0.1244316228142244 -1.413404570433895 1.0996004011576868
Ni 3.212196964777291 8.353808522718504 12.487570736445818 0.6380004804200173 0.3546057766736022 0.1201661626696511
Ni 0.2872261374165003 5.057453146284448 10.662766484996755 0.8917848174991674 -0.8073919557743837 -1.1255191779059777
Ni 9.046603933447589 2.662217491403788 5.443499790117608 -0.8260777051093451 -0.256599437930442 1.836776043817985
Ni 4.258437581814463 2.909277904104676 11.246161448567591 -0.9507839217411949 0.2453002108675388 -0.2676811496659003
Ni 1.3613430278159506 4.183938042313936 12.767226184010312 -0.0908509586453016 -1.1233270553506656 0.23480985285917627
Ni 3.6902013766001924 8.482730684690257 8.294729336028773 -1.6883318601392472 0.46661742855691896 -0.23499162985267916
Ni 5.917861087565671 8.030839984994303 3.4863113661748835 -0.26046303465090626 0.8362878128731275 0.5430354996063422
Ni 3.154472398320836 8.57516682295819 3.5047857885055356 1.9318721508928858 -0.5675959625545257 0.02458051755284154
Ni 3.4727578465147384 4.328967471205324 9.071393209316751 -0.3874523908899779 0.9737071061962713 0.6531540482320042
Ni 5.453658984534211 5.0585141587561555 11.243310434882838 1.6416267427732243 -1.6863271710043926 -0.030694857980695524
Ni 8.298763927419035 0.043350591462584055 2.18337616026053 0.18654407587425292 -0.13349116191333138 0.8158583413741819
Ni 4.614791425760507 0.6447260577651736 1.55043557292463 0.4353322452903922 -1.2732054003727686 -0.20732784538882357
Ni 6.6278522176638175 5.803052220799482 13.379711182624423 -1.522939735752261 1.4711029535866276 -0.4384821037732835
Ni 8.258811319863687 0.21891522755698717 11.77888574928698 0.5259343211496813 0.29016390414944865 -2.2675001009124047
Ni 0.4994304610899348 5.115369792584919 5.80017102313924 0.17894800869454988 -0.715991038162883 -0.3670303755902002
Ni 7.5788669653652025 6.498051976405133 2.208663929058211 0.2837600575056339 -0.7140213160310219 0.8197296514041301
P 8.832352587436498 1.4666576622922018 3.6653105728134787 1.6027732602411364 0.9970285545310312 -1.241530952087623
P 1.8776627951904432 3.1999678813749335 1.423660131876238 -1.213973868404961 1.1339289992362278 0.3440670819258074
P 5.0634716480636195 1.3692000081021327 8.0590501114188 -0.6786226248167538 -1.2234671526073766 0.7696805572665391
P 8.8466396691676 2.188859582474228 12.720398032705113 0.6266004661131919 -1.8147545452415714 0.18207421302835738
P 6.599241467564658 8.202495338930017 1.4077293954799128 -1.0489195869733676 0.7489296978724327 -0.9737536431634908
P 2.0392476773041706 3.0949367933350866 5.932943928650553 0.8602067855825701 1.398261029924237 -1.5144828632341594
P 7.212835955944443 3.9637413677975846 5.888673183268541 1.0037347629066133 1.6811890784468788 -1.263312823849405
P 2.4513869959480306 8.704134718226138 10.392990344076155 1.1616498621902638 -0.6529583872814304 -1.3457958701459856
