# total energy = -340874.1583362868 ev
CRYSTAL
PRIMVEC
9.17856101037326 0.00000000000000 0.00000000000000

0.00000000000000 9.17856101037326 0.00000000000000

0.00000000000000 0.00000000000000 13.43375182184484

PRIMCOORD
 96 1
Ni 0.9656764255400206 3.1772048577398144 4.400534510887658 0.6643689431112171 0.385810998631813 -1.8189734684189252
Ni 1.253176498510176 5.736031689232292 13.42945305414618 -0.26413559840648704 -1.4082939886802068 1.2093265994409366
Ni 5.20690599224977 3.8282310262326207 0.9724639715592854 0.34082312106721296 -0.2614680788766529 -0.7983722687742767
Ni 8.31191228746418 5.907074177493278 11.939367794232561 0.646641443924467 -1.1741199696328164 -0.2758287184736991
Ni 4.365296178667021 3.5729568816919963 5.681590889091569 1.058503631117377 -0.9193110479438941 -0.04185241725941179
Ni 3.4248240822262574 4.2441758848601 10.439422923860668 1.143101152653799 -0.9015478104232021 0.021555357573272555
Ni 1.8727936305216788 8.882001903153908 5.4545600952688345 -1.314685007673794 -1.011259867639065 -1.0788780810086709
Ni 7.947449978697493 4.257861119633223 2.920309779288437 -0.08859764383475065 -0.3735715191428276 0.1460988233750129
Ni 6.496218486267512 9.264380763414312 5.760755979579951 1.4561530171450148 -0.3727500516827968 0.15814984100227603
Ni 3.431120575220464 2.2695644747688415 1.9177217698180942 0.2991979893272589 -0.6623125748028207 0.17782829326780986
Ni 5.309265306931096 7.729027757439287 4.440244638132752 -1.7339455442133043 0.08866217852409891 -1.0538501915057656
Ni 5.38629179265614 4.521405147829502 11.804869747453257 -0.4414170180318914 1.0406434630075045 0.141494234723466
Ni 1.9858459690196963 2.249738782542186 10.733151568472033 0.4304926578099038 0.3647978867152556 -0.1409177933947057
Ni 3.492800506592282 5.672405902882674 7.49479821805481 -0.011974655863372926 -0.36375504727303803 1.3427252016404618
Ni 4.586343468433015 6.040833350094691 0.5752305278268338 1.1169808014176634 0.46641508273812576 -0.5952957424626393
Ni 7.101535419904418 6.7044983973819905 9.620675988410966 1.2182156744004504 0.7042863481314452 -0.2637134232674039
Ni 3.390946012777838 0.6143137593408721 3.888224855909051 2.0120136935404833 0.29021121244761633 0.6392348670477507
Ni 2.70224185049317 6.852300768643952 3.9560112840579027 0.7216983729603055 0.8774488604924695 -0.7122174300530637
Ni 1.0220052557228845 7.141553946806372 11.426762589582797 -0.20273225559834115 1.3018037808357517 -1.1076435831771376
Ni 4.855036669471496 6.041485027941031 9.607591031541372 -0.626628748247966 -0.007423546157580763 0.4555017782597317
Ni 6.7789732430889735 6.532106660622246 2.8552365338350474 -0.6315416121685511 -0.2917273919818266 0.062352079874660356
Ni 1.2621714885018998 0.611685019408597 12.164813450533286 -1.0042728947982702 -0.09314052601042669 -0.027128223675359733
Ni 1.149109971442666 3.68184215339793 9.06216696340752 1.6136492837236918 0.5425475042263301 -0.6487759737689666
Ni 5.959768297434588 3.688808681360907 9.301933010917516 -0.701768723915914 -0.930847587828584 0.24624971926500172
P 1.9377594868088404 0.15821177753707721 9.77943572605264 -0.48779072020042435 0.17476173852734417 -0.3502030196202162
P 0.45994320967270946 6.500358017375949 5.762515509765067 0.4947105872487093 1.3236064785331398 -1.2840752532077369
P 6.634622010844245 5.585824534931728 -0.1320638923448102 0.36157963688827405 -0.39934579989345415 0.343836196861924
P 3.754095787290631 7.153247433795612 5.822792956983073 -1.3901846806740057 -0.9066445082198192 0.7307358005722254
P 0.37468171882463075 3.2679349353604126 1.9989557080045723 0.5331480652893011 -0.31218925938060427 0.025435666464285227
P 3.0894761696368627 3.7932515294382756 3.9399047448359883 -1.2027679723868125 -0.7675257157070652 -1.399820146881241
P 4.812429788306619 7.277240617263154 2.2196321838974393 -0.48525664092466114 0.8324440136470049 0.8023875605812568
P 1.3709190817895924 1.1071455895629114 3.7352678046681587 -1.0128596080260168 -0.1942851532722525 0.5021768137187674
Ni 3.1021425841150045 8.571381034480536 1.9772741107000327 0.3038036064200703 0.5662111663918571 -0.5835907953208853
Ni 8.306038008285912 8.469756004696494 1.8253918689775397 0.8728848952708709 1.126373298376157 -1.0285813896366478
Ni 0.9893846491610632 5.3881825762666455 3.2765591114790076 0.23873027095950503 -1.471843174186762 -0.29255811541323806
Ni 0.21816613940027857 7.562390978562003 3.8404137305346757 -0.8446120164681067 0.739636959716597 1.8162722674376786
Ni 7.743144384589564 1.3774633959366323 7.446369375510595 0.6139514098906136 -0.08334796540003711 0.8870938397814012
Ni 6.014573486455588 9.306143216947316 9.215405796477745 0.7175622393047448 0.7198510353389215 -0.1856840418668028
Ni 5.332670638032009 5.454029574430547 6.0416153635102985 2.0215360312086217 2.189823731975848 0.10637039443713939
Ni 5.576012652991777 0.22902254160661573 2.46389756211554 0.45801194627609504 0.31993907852935227 -0.21600737544069248
Ni 2.044451082384139 7.843282487456607 7.755734617009611 0.8400303106346952 -1.3101578092274018 -0.6351761235973448
Ni -0.1812536376138348 8.420494666649985 6.680994855676066 0.17544822307140753 -0.36861211825502327 -0.5983214166628404
Ni 2.95457885544466 4.668968876499846 1.6469239246927743 -1.6095709998892602 0.03367913742000006 1.2171545801257877
Ni 1.9046707736250006 7.812011129393543 0.0030904215614421153 0.0633866917867618 2.562264222838026 1.0645264402726893
Ni 4.545434621093106 8.3814307101145 13.25093187420636 0.1933986369022411 -0.34463966659982587 0.15846043026415935
Ni 8.636190855227026 6.20381706160799 1.5700296102492417 0.23818699686152525 -1.0129583383874103 -1.33643936863175
Ni 5.201536533938385 7.467952762210123 7.491237854159106 1.5534625869314664 -0.4140774496766739 0.25126054221603183
Ni 6.030608432900017 0.7013164232516345 11.569268013166981 -1.0592862749196723 0.6210723372061111 -0.3928280533795944
Ni 4.497045246362121 5.174716778065103 3.192490833589014 2.1281974745236187 0.8956427577926768 0.9997323266154394
Ni 4.32011930036165 2.4029014335543173 12.507293105187545 -0.4335234742164275 0.7428423540277722 0.32332085051739157
Ni 7.007592845858205 2.873220088825643 12.072389010512206 -0.07699631215039643 -0.19869922317954813 -0.28090716143787103
Ni 7.873681882204145 8.935650593461688 10.45096221102148 0.6204082212595509 0.823752142299962 2.129214345823907
Ni 1.1227124293853226 1.0638044235007504 1.5351960525782318 0.7064800133486543 -0.4438184283845324 0.8429801372916385
Ni 1.585890164030566 0.9176964146392708 7.470589762847492 -0.22849085261968388 0.45388661125381186 0.8233819034447367
Ni 5.429320887636956 1.6035956086163157 7.412354545500056 -1.4249249123686685 1.683006848381908 0.8507667232155929
Ni 5.783218672443976 2.8049683076231378 3.1277397556343085 -0.6127249936826802 0.11652008127663159 1.6611519572903457
P 6.586608957123118 2.209738612762665 1.263565711950617 0.6072408306396574 -1.5507343893670262 -0.8053263314946066
P 4.995202477801708 1.4945267656860612 5.268166463374015 -0.19076942680951017 1.1346468512388588 -1.5363601229232249
P 8.735218352186928 8.511417494056118 12.717195785925018 -0.26776625318053887 -0.1727323668021412 0.008951295656016841
P 7.30071019829258 1.9332619918129788 10.083024898978397 -0.9255955954010253 -0.1477481860529778 -0.6081114061700689
P 6.495722843961846 4.735990730499402 4.370482983610207 -0.12788358591856686 0.3067806867705233 0.07546881976227647
P 7.41997642273386 8.533372612484897 3.7167831002351677 -1.1290747564677202 0.6391921867352733 1.1631246469635774
P 3.7014383815941847 3.3925797966742937 7.892772371677396 0.3042062411751277 -0.08415914844742281 0.8656909486255929
P 3.212129283166863 4.437953669253227 13.01534482561803 1.4962822810657328 0.06685948082671066 -1.7123521343132446
Ni 3.875610759229841 8.81310762266628 8.905556844802643 -1.7778329896248737 0.43673169674108014 0.2876619636632014
Ni 1.699603358936139 3.1283290192643785 13.752937676363837 -0.6458904246910554 -0.9540764764495376 -1.1452940465400598
Ni 2.647721196869867 2.2159066058998467 5.841075733069311 -1.0826264923075095 -0.9931500454122315 0.3776536596320012
Ni 8.226542489593752 3.856684566002358 7.9605459498405455 -2.018856941714562 -0.1258408444569252 -1.4513679370515455
Ni 0.17856890845814183 8.063769884988423 9.182695240016006 1.2237327475639377 -1.0078644688042706 -1.3085637252674045
Ni 3.621997934269321 0.4218430020649096 11.387173619345756 -1.7403702167927253 -1.1116349637247178 -0.38898091171936233
Ni 8.863690673527898 4.549913758966536 5.697952592315289 -1.492930076764048 -0.2286777718195094 -0.6489086426920888
Ni 8.965535988781127 1.4520116701333439 5.39081682333565 0.7618896004672104 -0.2863051925249908 1.6330058338734328
Ni 7.3114582934765675 6.879047096027505 5.2253402145960735 1.5806610017231293 -0.7396518721149326 1.1039872173714729
Ni 6.736962968403139 3.0266305609906077 5.726915542232517 0.8523024431338289 -0.6673964170836312 -0.25507143132168975
Ni 4.211472671247335 2.0696095186773165 10.005284321190748 1.2586187608078452 0.5446612081352232 -2.1138399202503657
Ni 1.3460910737001928 4.5935761746712584 11.399653709031211 -0.24221874372873767 0.67763532120282 0.049373665337121425
Ni 3.9271116662130656 0.011593440671985554 6.402069394593939 -0.02994872384329036 0.3726001563684938 0.5400563623733602
Ni 3.272625180141811 6.40408408878086 12.12217444440415 0.25501923792751563 -0.10634545473647491 -2.100299976782402
Ni 2.3533739172325423 5.99595936430945 9.55489048660721 -0.7705701589603439 1.258032292176756 -0.277412003800419
Ni 7.888780615404538 1.469845614576118 3.455039905749475 -0.32568909363925197 0.11636890041074799 -1.7586299343338616
Ni 9.877967580706875 5.576847902062436 7.608904255380429 1.1223124980432218 0.527215244744634 0.9313548664823058
Ni 8.548085846114216 1.7883692244565033 0.1626468583166698 -0.13317774443797065 -1.2633117954081403 0.32400862061303554
Ni 6.773374320747187 7.524859841749597 12.049592218019916 -1.7354583813134048 -0.2722042343472344 -0.27516588807871967
Ni 6.79230051397467 9.223352594778595 0.17005671078638238 0.23722951804426243 1.1950616048814902 1.6291108696944008
Ni 2.4561370886073743 5.035331147438255 5.585512463850383 -1.668822843572042 0.3869703090472368 -0.5493892097385119
Ni 0.14412911106330042 1.5025580067500999 9.275978793366907 -0.28850451416915474 0.15895691028460368 0.7345667442825414
Ni 8.333683834668637 4.110536033554495 13.630019302414693 0.14701465032106295 1.1448896120127896 0.8797350854234849
Ni 8.224789384401488 4.066616618135723 10.163452959490108 -0.21098421119448824 -0.19732342587794405 2.346589033925772
P 0.14516812419295663 5.901585397886083 9.731396972360107 0.07984535156341732 -0.04333311556999634 0.5012625294346142
P 7.260755921319139 8.307423971029534 7.805923907595063 -0.1218072978174999 0.02727657632776593 0.2912990461951564
P 3.0676495510651094 0.8311609394944051 -0.007405263189104541 -0.5038909681963967 -0.05150973784351774 1.9651365693729705
P 1.2788672913538843 7.365859625804062 2.0715783200581583 0.6072482868388251 -0.683609536508384 -0.9869279757619196
P 0.2517211234938933 2.8985804534655735 11.894378158575998 -1.4863791630194079 -0.9728051632072923 0.408263156987742
P 4.8430494685233425 8.009974337701188 10.719045955595215 1.0106654285881755 -1.5756303812777572 0.5613124435386592
P 0.7482326389074448 2.9539455347207526 7.0193368149341335 -0.0670775103747877 -0.6210026603104402 -0.979926604743422
P 6.433694127263819 5.356241183234811 8.049464179477097 -0.5262102005188872 -0.1250988240845781 -0.7648206580710764
