# total energy = -340859.9624886227 ev
CRYSTAL
PRIMVEC
9.33509083803241 0.00000000000000 0.00000000000000

0.00000000000000 9.33509083803241 0.00000000000000

0.00000000000000 0.00000000000000 13.66284904690599

PRIMCOORD
 96 1
Ni 4.0891524985751495 8.291959727347134 11.888673118365372 -0.16236799284868164 0.21543196255319672 0.4807752081145397
Ni 5.4229035931848415 4.4871167534434315 10.939816218028595 0.7675200592801105 0.3538277608569971 0.25510125611836065
Ni 0.5235987070578578 9.300980354225644 6.261000574974396 -0.9946441134592547 0.17802138311522245 -1.3885718276609311
Ni 3.476751873493189 7.723107300734846 5.622139635088089 0.07390430348863401 -0.20725559738999147 1.0529024828805156
Ni 5.917271330496059 2.3256138246420597 1.5966953970222884 -2.413512021000566 1.3664217739264533 -0.5754830786120863
Ni 7.840281360154203 3.7619108914252433 10.058043147025739 -1.7208995096626234 1.508037621829448 0.4124594544572767
Ni 2.1868010248041165 0.7811258562931865 13.058705390946965 0.511029893234023 -0.3826403142133152 0.06255725390693097
Ni 1.0713230227170056 0.7782898557154618 2.4831677527217417 -0.8276018550633554 0.11169797729763989 0.6660656140873497
Ni 9.481091595656263 4.221001320694255 12.77306934987626 -1.012207833374631 0.8122066035542078 -0.8717739215948792
Ni 6.96812249914147 5.313944413648294 0.29755788550063256 -0.2836687833434082 -1.6677105843444697 -1.5453281307497904
Ni 5.952866031624645 3.0462548272708223 6.440530240249673 -1.170385699401365 -1.4750290281139113 -2.15357760515962
Ni 2.7517887238351753 3.735585935437147 0.9693436905536134 0.15101477261939153 -0.0741354456628336 -1.0483431456446073
Ni 5.519587128351055 3.072001007630812 3.8889932161941645 -1.9235736583295195 -0.45639266550511715 0.007211173036458548
Ni 8.937882663405427 7.380565479803206 9.65568579843831 0.20537072166245277 0.5816930640775401 0.913150170548821
Ni 0.23294785522232914 2.4575186573058216 9.727088040765173 0.9150993238553916 -2.1611842138622848 -0.1368132843080289
Ni 2.9350458908572774 5.390510828192396 10.589923946619994 2.5143812831138184 1.5883977082457548 1.1358658112476243
Ni 6.167311736929099 9.116472285039569 8.204445118341031 -0.6498815481283194 -0.8286984305616438 1.7472417471015782
Ni 6.368706985328815 8.516113927058546 3.0792917135268065 0.46705091654991177 0.41916591994317487 0.02660500418203805
Ni 7.175081461643636 2.0359739631375633 8.023015762092854 0.011748913005812024 0.03279159260872417 2.6489011434019796
Ni 1.3311652744647626 2.0057562742959076 7.035151251439815 0.41716225924958483 0.5772072603920447 0.9349469547089382
Ni 5.273476795134677 6.629837479603649 4.187868283003279 1.2900646380219525 0.37067645698321966 -1.262365115224155
Ni 1.9421376306580072 0.47612510291691235 10.695318988498297 -0.30578284163362823 -0.6287871893518655 -0.6145003404155481
Ni 0.6865175118064615 3.260980585298554 2.729345298591706 2.293214732069689 -1.9700358064468007 -0.07773190476484032
Ni 6.762759837161987 8.207533166369707 10.869479109559263 -0.8358723226022636 -0.4145785576828086 -0.5906631287866344
P 8.022763714641904 0.3475706343326286 9.335564998532275 2.3783141329431943 -2.287515624802383 -1.8445425751372813
P 0.06301466326469858 1.1238329083315604 12.016188591346296 1.522735847271571 1.0006098441243865 -0.8937285714890996
P 3.3810018474045687 7.428902579840923 3.3721960562756426 -1.0044976092145668 -1.712744484655657 0.1978106499270077
P 4.974688544669777 4.567174491937728 1.0964446855040861 -0.4170056790670625 -0.42656066974534923 -0.4159492127780901
P 4.235050632312016 8.990299198112222 7.301644755365415 1.2734401420913941 -0.9395996229896011 -1.8971609726639456
P 8.845455929633035 4.764032886220348 3.3142382116842604 -1.485809663669183 1.9755958170330816 0.6048278503227906
P 0.1879144438102093 9.15415804650196 0.7176752442892524 0.04028198744849837 0.6520749562352125 -0.8460037546093107
P 8.353991405553128 5.590916556969865 8.520043066766132 0.2553300842997151 0.1401696023747715 0.2238278999263758
Ni 8.491179899596062 3.734736442176538 1.098886745251067 -1.7503962335701597 -0.31100269527167085 0.9104700526134966
Ni 3.4045262761598893 3.199396991449804 6.67181551580481 -0.5131420544810196 0.9904550150785716 -0.39011425399285715
Ni 8.992474274263012 6.441137954659186 0.14173748377803919 0.17255187536021893 1.5500512472570722 -0.6696538456592404
Ni 6.833165091793982 7.41391975914557 13.158580593649464 -0.9058001579416529 1.6381313280254561 -0.23071794217798977
Ni 4.162124903170522 5.2731967424113995 12.749678412919037 0.3025522505114725 -0.31419009186071695 0.9361283766115491
Ni 3.6518501711771365 5.480137034732013 5.27974810911794 -1.7832767863482641 -1.9569059539330618 0.9773752990764781
Ni 2.2475724657553617 0.06773075112469379 4.864288027117427 -0.18752263773743832 0.49059527952875515 -1.6207630119503378
Ni 0.3095469425841477 7.987178348604095 4.480853841041866 -1.0905915127908572 -0.4003755267095491 -1.5528653196670998
Ni 3.691748349153422 4.731612115955574 2.8881893362166204 0.283796310060208 0.8901508814401701 0.6137297807981107
Ni 8.514769673986814 7.704213077004382 7.4473319160507465 -0.5082556729229957 -1.4381190424614394 -0.6569572240281782
Ni 8.073434587373603 1.0693159782001826 4.032808691178923 -0.33853123970924276 -0.8157251582304273 1.2897108542269595
Ni 6.453824343023663 4.545871814787077 7.933715350221319 1.6641647759747407 -1.995554005322563 1.575627810174596
Ni 1.0383701522780049 4.316359272970287 5.991746684706355 2.620967650216506 -1.260885188244519 -1.8931420813125395
Ni 8.337692337058371 5.519512447624847 5.76621369208734 -1.4522390268025893 0.4043666501468133 -0.4093121670775467
Ni 7.6646416272052535 1.1756053217748175 1.8332129909573296 3.074741647151853 -1.0147717374470653 -0.1709485354288411
Ni 1.4043897265110858 5.931843407197271 3.8372796138227954 0.7311505195121408 -0.05275800842832203 0.16675275217993862
Ni 8.860485425782267 3.724971937224925 7.408105864610326 -0.8920781803698701 0.030402780661573446 2.037276324762014
Ni 7.422386686479331 0.1720746617816268 6.539231088532562 0.7602929454040519 -0.12254674708668574 -2.2145754849992314
Ni 0.8307465313125939 7.630559210782366 1.9491828236665945 0.9945649234818872 -0.11637352839643829 0.9778560953676385
Ni 6.735949456453542 1.3100212938573021 10.473202639103269 -1.9384911988713 1.6325054971982464 1.8050596865513104
Ni 2.1548750143504676 3.3573373922876093 12.240313852276302 1.6130347900681448 -0.9904845827649265 -1.4743919087505448
Ni 5.662236650497901 8.82741119916318 5.1816082997906845 -0.664094863514224 0.44728016168088774 1.2352934558183435
Ni 4.602843873792522 8.397100854756332 0.8146939092143204 -0.844388587603391 0.8576696209830132 -1.3534287041008948
Ni 7.81145459983816 6.648227608432214 2.5912139603804047 1.4243168464710243 0.15021130288148968 0.06610717604171841
P 6.667663267427681 8.822837004682977 1.0669700698881937 0.17442158157910606 -0.11439557873446106 -1.5744430458378755
P 3.803330689198004 1.2934421726392666 11.612424444578934 0.6773463292074915 0.03803355773395385 -0.22414980204216878
P 5.548675271208823 2.9807785005685137 9.537297243709004 2.8849695512586053 -2.5013033668839375 -0.6045182895021718
P 2.8532051500247793 0.669835704589891 8.43064743696868 -2.101778618210458 2.0925720120105256 0.3641561393661986
P 8.40865769713692 1.9419695990240404 6.256013769481899 1.1794881759232654 0.8878834255622322 -1.8450092303610546
P 1.9751931870955428 5.458918373398345 13.017265989483576 -0.5358942605758705 0.09731188377929692 0.7296798485038852
P 5.230143303752851 1.012885354459741 3.437641577178391 0.07523382093333494 -0.7813513087362479 0.484038966467476
P 3.695221002922065 1.6689181938283553 0.7322575895903184 0.28353508597902133 -0.3719964613462239 -0.1656168388032825
Ni 5.594855965277304 6.607199884472042 1.5953838167682715 0.012558296280984824 0.013462810373125201 1.1328275386419329
Ni 4.05038386658275 1.4293330890643465 5.28250849546038 0.4695549139186881 0.00942360730674506 -0.02839577753387368
Ni 1.889637080134228 5.399313818794091 8.273784305606418 -0.18365312747970305 -0.7364503344584994 -1.1333530721280998
Ni 0.7732601088053956 2.2310773603543095 0.47305852559702233 -0.4690442928308567 -0.2930653940669598 -0.07921748817143132
Ni 4.15901631794214 4.131655166877916 8.753432471782162 -2.53130839788646 1.5409878515032234 -1.0124592872638047
Ni 8.04358096707221 6.148781581738896 11.623859930779439 -0.7264767681855554 -1.5829994200483188 -0.6446190141777994
Ni 5.478466053483122 0.727432281168245 13.063418678279726 -0.007914626861386368 -1.8386233814393689 0.09824519422684369
Ni 0.8166160044050825 9.327006587308912 8.361991578348093 -0.6830405513787914 0.2112804022786684 3.13087705669284
Ni 9.055430126455821 8.310340521084923 11.988671544266115 0.6912896787614611 0.12712176805187783 0.6531784737120364
Ni 0.7141531145394976 5.319732169929365 10.462695060925892 -2.894317568132409 0.8326558725474951 0.3915239898561902
Ni 6.607311905561353 4.609359767154115 2.57517347390014 0.19319783374534472 -0.11935883627700733 0.5900278091954806
Ni 6.31816680386798 6.645968516464441 8.463888761712658 0.08621731652803216 2.7790048769003173 1.0758932873487344
Ni 4.388780907209881 -0.09916106825814174 9.717127498907265 -0.05708414660750169 0.5304329803509832 0.9279432696975954
Ni 0.7999061919161842 2.0261441125505186 4.684717287442736 0.6553533698761681 0.35030432108477094 0.5435643755266187
Ni 0.916686310504799 5.336992752774043 1.574028863109275 1.4383378433404648 -0.5743134837840175 -0.06505533773843634
Ni 2.1243305973316544 7.745483513324728 13.047610635559783 -1.3692098781945516 -0.7809826125429196 -0.29395602420202926
Ni 3.3185034146597783 6.4979979925753195 0.9444535380177755 -1.352381493783303 -0.8784299934588162 1.5032494564121854
Ni 3.291898405948404 -0.05301864806184252 2.4251006875682815 -0.0034074830196521963 -0.39333996001900645 -0.27732818583736113
Ni 7.736120417276479 1.6679286742061077 13.194473084173802 -0.22247781365638458 0.5803244658647877 -0.2964651637771281
Ni 5.539284169888247 2.8750959378943133 12.8187310128976 -1.5377202364955453 1.7931405665162214 0.3479250222193169
Ni 2.5730404056578426 7.686065660535991 8.201015405989958 0.031121146884836724 -0.21869469246486853 0.2522671291036752
Ni 1.0192238810965912 6.487486680361633 6.231188029072415 1.2565773048977842 2.2961213641935228 0.7797708516230054
Ni 3.384026416815967 2.152447890748728 2.820558470563229 -0.33771697133806355 0.8998886775532243 0.3386952760909328
Ni 7.610218047981634 3.4397662438389904 4.56173866857891 2.2547813677941555 0.038775578106300966 0.8376828934484412
P 1.8816649126115916 3.775297411597914 9.756831506995411 1.159702508655906 -1.6963997247490459 -0.7982264872250316
P 5.827570443230234 4.817009526373698 5.178916993119986 1.2062988683582063 -0.6763505409531254 -0.5227875479905835
P 7.557633481640872 7.572317579431395 5.304177108169448 0.3338099229741735 0.5276374198837172 -0.4978437335610523
P 7.335383640447748 3.745210414027121 12.344738978222987 1.287962761187601 1.1046796154528074 -0.9963819220859679
P 4.986796157406147 6.539688507980582 11.149636385853581 1.327975811245429 1.0678794159053222 -0.69503474762619
P 1.6716160350625964 7.447432735031126 10.647499052489563 -0.2597184431753979 0.07958027082748875 -0.18374722985540612
P 2.83375082084776 3.4041995479827323 4.452271660104151 -1.0339732500761805 0.3675461388843541 1.8017077393599423
P 4.8844368870481745 5.62761279881001 7.108602546191992 -2.0258937939566852 0.7487186103028912 0.7931231045601954
