# total energy = -381170.6533003806 ev
CRYSTAL
PRIMVEC
9.22408523357506 0.00000000000000 0.00000000000000

0.00000000000000 9.22408523357506 0.00000000000000

0.00000000000000 0.00000000000000 13.50038112416049

PRIMCOORD
 96 1
Ni 2.0425998910069554 3.305893713645608 1.024449048215654 -1.831416065057652 1.6342373922876887 -1.3515944791056336
Ni 0.8157319811110814 5.171142117110044 13.393202093117406 2.6625259332742663 -1.8072764916969715 0.00907188039428115
Ni 6.938891939239666 1.6578263979321812 5.928435828383038 -1.3342140788456571 0.8594495957015714 -0.10999770677708152
Ni 0.4715481528712844 2.9787707535266126 10.167892755641647 0.2637180512530942 -2.2032186652255152 -0.40111908974379307
Ni 5.480010612473921 0.45489037727691 8.211323140749679 1.3356042743249643 -1.0394728397381712 0.15210337769788
Ni 5.405876639135427 4.95255896839755 0.14180001808361434 -0.3343717090149144 -0.14222031425621312 -0.3773243013170405
Ni 3.0177517378899914 1.4774955308465063 1.5980266531078116 2.3094453349959387 -1.729654115926802 1.8451071893914996
Ni 1.6192143769797191 5.04389586077005 4.787640625394406 1.1436577964882175 -0.6093879588896473 0.0975967620095674
Ni 7.614823683954303 4.533508774448589 12.847947964464291 -0.31107751437366427 -0.18571155267062855 0.43613725769019074
Ni 4.581944446216715 0.8387682116716831 6.03435968920614 -0.7563023361874202 0.1338976533231307 -1.0599293078203103
Ni 6.895732444247653 6.247020975173416 11.416071069743559 0.1249800391185267 0.2419176675485511 0.2254512944624117
Ni 0.2086912396658085 5.089416721591933 9.587187700059102 -0.6654153820978604 0.9334413166976891 0.23758150206704243
Ni -0.19445201922999486 1.1158837158920458 6.759006595472674 1.440635895346022 0.39392411465725063 -0.6748194490205798
Ni 3.3139278919183255 4.439423104664758 12.527517078210801 0.5612257973621237 1.7016046659887532 0.9281836678431756
Ni 1.334420744178174 8.720883749030685 2.030376133203276 0.515192766362461 -2.861738862865439 -0.8063012938133662
Ni 2.334671327088838 2.507964217111271 11.751527990906643 -1.9513785963569292 -0.9115923391433978 0.36160380525799013
Ni 0.0639773330444773 3.9880701640900154 2.925330093089397 0.4532741744807935 0.6039217935687534 0.3972791471724126
Ni 4.24037656856032 2.234433192427967 8.11899465921034 -0.6367532382764776 2.3185257000306523 -1.3638218744097608
Ni 7.404865054971995 3.816400713075617 10.418676263633394 -0.21410373066007643 0.3077656763916119 -0.11547132829714309
Ni 2.8761804771211454 3.4812435746839037 3.2971843323309127 0.3842976473110801 -0.7497696772752249 0.32934983032029086
Ni 3.700214134977859 8.67879424793033 0.5395517991373933 0.8984118358973818 -0.6499172864622613 -0.8721230774041819
Ni 1.8630161748283876 9.201034283827498 6.930933398466188 1.5005282008262801 -0.0005777268803409405 0.8953766486154837
Ni 4.412866963164009 8.558613640909396 10.252041318360956 -1.0607572030382442 -1.556588791265274 -0.8912564557995231
Ni 5.689111401525848 7.74185778633302 5.9886478898191084 0.39769026656790213 1.66742699166578 0.7317364739225978
P 5.390223366427274 3.8836166224594177 9.374219252052237 0.3925246632065627 0.5668899376264366 -0.15450247405767586
Ni 6.557125497963866 8.35777763226201 9.831260686014796 1.3537768314689331 -0.5508696509387803 0.8985126231413041
P 3.4861600121343725 5.993580008214541 3.9566916708085804 -0.08581596732455542 0.6643578873676236 0.3657018865867637
Ni 2.460275696250251 6.584963787317552 6.593936977471053 0.46972203562417164 -0.07721948390479605 1.151450810170075
P 1.2911413360776118 4.702383327625291 7.487796960843805 -2.7852655130980484 0.31916851891191483 -0.03744606066160003
P 2.282582917552633 6.952986341536694 0.9465562601284429 -0.6973826790330764 2.725321014223616 -2.621149427210008
P 8.10507459212497 8.932179870377567 12.208907948798716 -0.47838073974043416 -0.3508450240795893 1.8060174224788896
Ni 8.824783845544907 4.592109388187478 5.586430729084706 -1.2187337516874495 0.6906438176473461 0.6382164530855654
Ni 7.9017204081980745 6.682526937249275 4.627890537369679 -0.20864990663435676 0.12199036036258347 -1.1974969537958602
Ni 3.301724427102246 3.5863704745394247 9.927208698615228 -0.013086915090945204 0.5975508570454031 -0.6807486700208212
Ni 4.740847763213386 6.018152971381612 10.377149431734688 -0.31453179147085186 -0.6175044173491946 -0.36893479170176463
Ni 7.232965001825773 6.124995551097896 9.065991830614829 -0.2984693386913505 -0.13796693829649787 0.5288113855871602
Ni 2.4018872364726387 5.922028778752465 9.083812763362118 1.070768050307027 -2.8841236583185426 -0.7528938247265033
Ni 8.88557056749348 6.366814170612886 2.1742229758089517 1.3671244564204326 0.45073443877807534 0.5303756447504865
Ni 4.789338779493152 1.5904260068429215 10.193287584806537 1.4429563159490828 0.6886627826615753 1.993150280977077
Ni 0.4964660968275627 7.675306011088869 6.002215596847053 -2.134175289373608 0.7814508104285897 -1.2116891861358423
Ni 8.562847496049669 3.3720673013935687 7.67079543339041 0.9060593251403106 -0.25331485364189926 0.7936517233701557
Ni 6.166411693973328 7.593534495144393 -0.15933315937038928 0.8189871168111508 0.585097975994031 0.634092660725179
Ni 1.2998212003194343 0.5834612122620959 4.612877416179468 1.5171113019959421 0.1854027631809581 0.8203999379982775
Ni 9.124382135209496 2.7341756843444722 12.497477922110996 1.4635853050533438 0.29054211342447384 -0.02157438373666607
Ni 5.424195672487455 1.3566784619417407 1.2524029451569108 0.9062328746036974 -0.5470729029005095 0.7805090153406107
Ni 4.515798530724574 3.2635736104134305 5.870883993139681 1.1131958804539344 -1.5241761792625232 -0.9835446611119836
Ni 5.317556022647175 3.4341546193656236 11.682109369959669 0.9059649656542913 0.5201364835209816 -0.9885333725758266
Ni 7.4289214693637815 1.275607976478007 10.93090724460091 0.8166073037250646 0.7352447441861725 -1.8776995215052243
Ni 5.501087647322554 7.18649406022078 3.7054635619066807 0.1452120498946854 -1.2104740827818186 0.07548733170503774
Ni 1.8503146094075704 2.1176654969580153 7.993697452088515 -0.7644925853076963 1.3530702923202116 -0.1768337905650245
Ni 7.615644627543594 8.698247843770927 7.686684842681549 0.0875216371617525 -2.1532716438834267 -0.06880040660316539
Ni 5.666484720351364 0.30144402912770113 12.09847443268568 -0.38541582007592334 0.18996904239540185 0.35931629477539406
Ni 5.886165535211335 0.28402434408978317 3.6552015212545146 0.3089874646138549 0.49395699691213635 1.8783281562281586
Ni 7.0014773578164595 2.2676583475810412 13.016405588986657 -1.2223770048669915 -0.4243423219377918 0.9651345340359121
Ni 0.7911830005657201 0.694158537213936 11.347070299859448 -0.5713284330137645 -0.04147266532248987 -0.08589798551540045
Ni 5.497711632112664 2.5442056481485915 3.952479953472963 0.09217070589798965 -0.7846140386479197 -1.087735531399301
P 7.694150817301455 8.92623033537653 5.520062513137487 -0.22288481928681617 -1.1324213043424498 -0.9188343654177917
Ni 8.262077747555418 8.603230541374531 1.0222066730858062 -0.5620218109008579 0.4723970113531735 -0.19620139645835888
P 4.183150343527096 3.5042299951840317 1.2274250446463586 0.7999247008630611 -0.07326152769831254 0.5648798491749433
Ni 2.1931738590021754 8.01323037506246 9.246087483526043 0.019907280446888297 3.1701167189197537 -1.1362021115411207
P 3.862106055602958 8.475015756080882 7.525490262903084 -0.45915454452097054 -1.44996102940169 -0.3197842981190428
P 7.551786285199137 1.5000668675093527 8.476335722683437 0.38029649657148695 0.5775654150624117 0.5206818145014904
P 5.937857309080804 8.43173634798032 1.916797204012174 0.20225428752065813 -0.7892083428868215 -1.4907448961872714
Ni 0.2632526264636844 6.865007016203541 8.08597243393327 -0.20736975437035257 0.2584819996651355 0.47991234589361226
Ni 4.046569312890902 2.0330252904936597 12.998531156544782 0.8880189226988319 -0.7102875600202025 0.4901584491016526
Ni 1.9488462882929503 5.591179288183207 2.2769608375787853 -0.4013530601314701 -2.7037669422019244 1.7718901417778774
Ni 6.693918682561336 3.423602265813398 1.9205781565655458 -0.006205357479763507 0.6703053632003101 -1.2684933396090798
Ni 1.095101851772147 7.973834306861799 12.721301273667036 0.14204265102776828 0.31687740888489296 1.984180730488615
Ni 5.2178528849321335 5.5029232402918655 5.618669829522105 -1.8723529124813303 1.315521130421844 -1.494025623821072
Ni 3.665430109413661 8.519143780026551 2.7680373013813786 -0.19322045945316402 1.1108289228836548 1.509094859449369
Ni 1.1881175276643179 0.9621089903071208 0.22364717152732833 -0.34162556236385033 0.7240172509014693 -0.9704513182631352
Ni 8.994977442915637 2.5130651362671985 4.845056866584252 0.3602609180768505 -0.963319078093728 -0.546470236319504
Ni 1.391379470738483 7.225327459219792 3.952006757898462 -0.2065863392371087 -0.451133731099023 -0.8705685884328683
Ni 0.33342577758598513 0.42929538546159896 8.922253832215373 -0.1844609680929791 -0.12561818692315785 0.947665430716871
Ni 6.39946743247904 4.072811835492373 6.964374397214648 0.19451963788056176 -0.8527721836813958 2.526151022055237
Ni 2.2080984289737673 6.894173573836528 11.162830265435106 1.064710017038405 -1.6098021420634598 0.9257159230289734
Ni 7.396065277621625 6.133989034238998 6.808269667689782 0.2755826639011641 0.8253318280822559 0.272705342353369
Ni 4.86074242359086 6.2497328562436545 7.788788087384605 -0.1945234945353037 0.5424222915023755 1.1389832738306835
Ni 5.09953554313633 4.70765028031613 3.1156986097690678 0.005426313221893881 0.7523623777030655 0.037590556659264286
Ni 3.1073913985722723 9.14855846270983 11.977646294878587 -0.8181121704053653 0.8251086563278565 -0.575878257167976
Ni 2.335197099949395 2.6183765178281777 5.660440177272016 -0.9348749638204221 -0.6275995968016675 -0.5628947004241144
Ni 8.908796814210703 7.861263570191028 10.630240805861717 0.22666305538232578 -1.4261924662271825 -1.3049371842584105
Ni 4.3263727155597955 6.522295351973303 1.6756943735143632 -0.03286306927660792 -0.4199385364431412 -0.5153136082110416
Ni 3.14580048964873 8.164099513786415 5.05751245544994 1.4298159219123827 0.572905033472265 0.3141553819680396
Ni 7.7967041973658295 1.668212717949494 2.8639170557507923 0.3111495052621802 -0.4220039036126022 -0.12891871205130054
Ni 8.570789433469656 6.590599703419309 13.19893086595876 -3.092512855092345 2.3231886527239607 -0.26535790084936234
Ni 2.6081285590899586 1.119914641156314 9.946230607265052 -0.627436588861242 -0.4524838173690143 -1.3018377193974806
Ni 8.831867943034512 8.75439485082722 3.6598181759336135 -1.9997451605857752 -0.35876864980204015 -0.6695620572763824
P 1.6944460164656916 4.524598308074944 11.187549891558017 -1.2113724262263719 1.2115536889992424 -0.39100976922393305
Ni 1.0031469456863622 1.5348508930735512 2.5363301241425686 -2.0720836622491863 3.0681179711877484 0.7724054123968698
P 4.470637409228335 6.778983196948246 12.439467649829574 -0.9151636014344239 -0.6624269888934978 -0.9509644131831172
Ni 6.806268041185557 6.083127428044093 1.5888062574689958 -0.40830326619705815 0.2978782420745708 0.7566815739037097
P 8.822413255629765 3.0092840276094464 1.1427008990060195 -0.37461358725409677 -0.7114854369830456 -0.6569623662345009
P 3.4619929087193104 1.2442645347206096 3.988525833902498 -0.22060862165812975 0.0552694619962661 0.4139452949741838
P 6.594095631737747 4.139714125976895 4.869033953842691 1.73891214418996 -0.3966571973176975 -0.9656397558071046
Ni 3.230735866841819 4.381984725670257 7.115267518560311 0.6241646029781895 0.49694976099187316 1.5477601372300505
