# total energy = -340889.1295508371 ev
CRYSTAL
PRIMVEC
9.11821135336452 0.00000000000000 0.00000000000000
0.00000000000000 9.11821135336452 0.00000000000000
0.00000000000000 0.00000000000000 13.34542399857684
PRIMCOORD
 96 1
Ni 6.6036273890630515 1.8450973912202242 11.323805278772015 0.33735033202726417 0.30617930574109853 0.695930519967582
Ni 4.489506294559152 0.4189854519850251 6.087528428678393 0.7104456828646217 -0.18601751394682156 -1.3138090328267438
Ni 2.5343794487726283 1.2706865583820195 4.6757430228827035 0.5462524638817431 1.326969995688734 -0.08055703291846125
Ni 3.6517068129596866 4.5368936381724 4.91577355000955 0.11454136028370596 0.1449564822404536 -0.5168485567983292
Ni 5.269569262831874 4.559132955292413 2.9740677992902453 -0.5814984315682308 -0.23879634831075 -0.24066039810268233
Ni 7.117976564718177 6.062488908898455 2.752253634501392 0.7647545807198313 -0.11361319204248176 -0.045774378021637294
Ni 4.833344920749639 4.741488061107564 11.462785053902499 0.5774828826509345 -0.5748063642600358 0.06391711036893509
Ni 5.731060168152962 7.801049120442484 12.69388672199624 -1.048922415186845 1.378599804049884 -0.42115543956937795
Ni 1.5584937767404088 6.725683764203889 0.6402361113216368 1.497058239999809 0.4969597882942022 -0.8926345670939724
Ni 2.921584287436581 1.7116523702889408 0.27896620077759177 0.018814304493025662 -1.2046736740499577 0.5572668127143757
Ni 0.4542975485043679 9.034597204601537 4.7318738192168945 -0.9932503184355217 -0.07366364823273766 0.13827855599964572
Ni 8.6239767995726 2.745037482156669 1.455238241275568 -0.21223685265466674 -1.2056787182757043 0.8276021121736714
Ni 6.893969470135407 0.838668447126951 5.029155770834573 0.011917834483508506 0.4362544999943454 -0.5055272182482391
Ni 0.7200706094947732 7.545374478357537 2.817552792198508 -0.09577873496422215 -0.058198976938235246 -0.727137798808322
Ni 7.477954424734995 3.8235759758933225 4.128580140577397 0.4856052825133314 -0.005385432681629434 -0.7030658454607828
Ni 7.876438490654977 3.914785442540103 12.751018697920335 -0.5918764323684451 0.9256441892507735 -0.7437720649308933
Ni 8.039791244326583 9.058277199091357 6.955461774655973 0.06414465299870888 0.25073166629575533 0.44446814615338937
Ni 6.86609509849298 0.483965472290095 0.43799145141305157 0.3103141538450785 0.9906789581639196 -0.13252134180089437
Ni 1.876819647989608 6.730835553532634 9.186909628150588 0.44898171775302675 -0.6298331141178765 -0.8845494760929926
Ni 0.20742015658645307 5.014678786910242 1.48099536427705 -0.45887249450417744 -0.48896417168323525 -0.7148983193193365
Ni 6.524444842990809 2.054597411781698 7.146915031607798 0.10990488995295909 -1.037657383795987 -0.13427534837752358
Ni 3.524845140515755 4.269265021202527 0.5232366961130499 0.0709876440624713 0.13115325780877413 -0.5722735705358531
Ni 6.142510330401217 5.727422001883636 5.265677610291152 -1.1759716781295746 -1.3947422181377012 -0.7101826590112221
Ni 5.502211303422293 2.828660597083953 9.043833040727352 -0.10167530295431522 -0.256953478835751 1.6727810568888417
P 0.09809827520937561 5.753436258440995 12.667556063510194 0.10988380690703657 0.38562227965977464 -0.9724053566657124
P 3.626312594764017 6.1541086950492945 12.652275765179027 0.44145918412373647 -0.02818134753022243 0.5573146352331756
P 2.5264921960834883 8.48523409793335 1.5257821940556817 -1.0013253821341723 1.0580107506413585 -0.8095467973338574
P 6.495877487297081 7.7423734313620045 6.025231897929871 -0.368027706506463 0.893107650075649 0.9544960804854595
P 4.904184303572675 0.9763507008034867 12.46309111917409 -0.879593160528982 -1.0740456926170343 0.8976518178029058
P 3.964598230332901 6.273894635601003 8.306605605036179 -0.071512920438322 -1.2256962990482116 -1.1127621353506256
P 4.734631166284173 1.2186762816897037 3.8846260471706247 -0.11085465546073811 -1.0980857642853734 0.2713403436850424
P 0.14134321547386466 5.527058428945883 3.5131565055767857 0.13849427155487762 0.25488399790123195 1.5254357627012374
Ni 1.2089927413939043 0.9484763291610587 2.552406152317633 0.1289058565354941 0.5669902106497268 -0.748764375939162
Ni 1.9058520324546036 6.484443250450629 4.663665040325438 0.11513502800364687 0.09421190469773452 -0.11997667236666433
Ni 5.816014541915639 5.138312612588907 9.401397310239181 0.682796039468153 2.0749540418184456 -0.5894644804928428
Ni 8.803368486747322 2.5146202850993733 10.2377816454602 0.5101305213482054 -0.8871738010897173 0.8207598924408575
Ni 2.354331250391411 5.3210324468521115 6.68548339465952 -0.07733672620895067 0.33521811617560976 2.205847875318246
Ni 0.755999097091325 8.827249081883574 8.755892696485422 -0.44831760180646657 1.0971547678306717 1.30001737835929
Ni 1.59151081950038 1.160000592609225 11.44623641239323 0.12466507898126918 -0.00875512048481073 -0.9490805658968428
Ni 4.203057689669759 6.828145103473095 1.6277684745212992 -0.2185859348011461 0.44632885351121193 -0.5717346673132475
Ni 5.949003652286855 7.8560866432536365 8.163355771600118 -1.3470228005745513 0.1810282882623463 -0.10520774158760589
Ni 5.380829675910352 2.877123889618956 5.134638885295896 -0.4427177391211859 0.27572253191313806 -0.08524672508464673
Ni 0.7079926269375079 7.480662533461787 6.9066301063884366 0.632001325413789 -0.8473767236974374 -0.8488723344063573
Ni 4.9095822846038555 4.4089651350179135 7.27599151755253 0.5694857233780708 1.0926136854272086 -1.3093687376672032
Ni 8.226678101108789 7.2053837372940075 9.39531181608342 -0.02716267645772096 0.3241703430018804 0.29404061349603555
Ni 4.645455060735287 0.7212495942031035 10.250326480430974 -0.5713672566714998 -1.3831835667658243 0.3967937228955618
Ni 8.1921565535006 6.785371574727715 5.171124495596849 1.8065568399221275 1.384452406175919 -2.2463118968705635
Ni 7.561641367140688 6.1575462606721905 7.339048507115243 -1.35108334379717 -0.8036718266103191 -0.2999641780693221
Ni 2.4886698560204232 5.0872141570167235 2.5606134542199395 -0.3470644739912345 0.16775034020651755 0.5139141567603536
Ni 2.391433251769572 5.298364573805635 10.992932748909805 -0.8364071120598111 -0.30173078305144163 1.4627630662623647
Ni 1.1503079341022242 3.1930790259558135 3.8584285145681188 -1.1350338022646322 0.5129417655447553 -1.5771586449968258
Ni 3.520851364009577 2.798506672641196 3.0080322241940327 0.14336136983919182 0.20645264187272186 -0.8094344401257092
Ni 1.2534166663667239 3.4996059319105073 7.883755855144035 -0.919258597439404 -0.1710853181170215 0.615713643997359
Ni 3.4708015027255454 2.536011608577664 7.157497627528048 0.6659041488088209 0.4270846605696193 -0.7324453270641643
Ni 4.126364415255477 6.96637718528507 6.051349190273805 0.4282719960095011 0.20508712898376294 -0.03232468027463466
Ni 1.1607574041389341 7.467988219891955 11.410777512673544 -0.9906830719289776 0.030494311934115226 0.684335358930815
P 0.33352501750067576 5.64260440128898 8.048091551983143 0.8991165752738901 -0.6016060009513833 0.6125848685603902
P 8.965025253135483 1.6604809690271463 8.221328446596976 -0.6674604375523472 -0.30710027489347114 -0.6780803791600387
P 1.7044307470174973 3.3706744255238763 10.28545165362069 0.7410268980855883 -0.6874942162747708 0.2682048833798542
P 4.229318137929554 6.410011292414273 3.7761539830775095 -0.5090694270735425 -1.4371625920854412 0.8448246466995449
P 7.024824919085516 3.8276518163003117 10.617312597577126 -1.1800872429598452 0.882890600333331 -0.4035554670994276
P 6.215282773998934 7.885210209830645 10.329077735113394 1.2232136418356738 0.3907863403592173 0.9113362572685337
P 2.3686559601886805 8.410245929013715 5.6762624542964035 0.022083976383232937 -0.0809162160300929 0.8919527105355993
P 6.679928580395678 4.082250509463502 1.313983472450356 0.6085479794868551 0.12626044849284707 1.9177333974986581
Ni 5.565373152413819 2.762881821477648 0.021495271085986156 -0.5959760563591155 0.8095028314697995 0.5755481275220669
Ni 1.4634820160226791 1.0331662747988968 6.738317957644434 -0.28376545682227255 0.2296043973988368 1.0490561125512319
Ni 7.087157010857723 0.7698396298738049 9.264633260430617 0.15567489709922222 -0.682635859741205 -0.5025365110510313
Ni 2.3933389579106477 1.5408591562770604 9.026004202365415 0.36946289629109275 0.023419921585837087 1.2980538268750161
Ni 6.224838659337915 2.0883986207049823 2.5563962815393295 1.21512752239343 0.6343135184867333 -0.032433695048673175
Ni 4.127321827431615 6.863733481791838 10.39477718228225 0.7729301745520882 1.5171807217812967 0.3706183500517746
Ni 8.04379413904396 7.290766666983147 13.965852565409802 0.5870358164466922 0.0884714026695315 0.009361386610241941
Ni 7.894474312411184 3.923475097814958 8.459076685460133 0.00822598745421809 -0.3467171179541448 -0.7279592662683527
Ni 3.2871972019758138 8.356913511697208 12.630789612304241 -0.38613547185076724 0.48754363718662486 0.10303104565126128
Ni -0.2716451890040538 5.029167624509136 10.465761544663385 1.5294572251558047 0.07793193659078836 0.20649840750899276
Ni 8.674993191243972 2.476095842773806 6.001129730261428 0.49158952512122434 -1.191072281216439 -0.10519617162338012
Ni 3.60494862591933 2.765161374277977 11.61198634378966 -0.09578130606738343 -0.3431671958193574 -1.005376155164778
Ni 1.2793032679672647 3.3827560553656224 12.48669907979542 -0.7581427318302685 0.500050511404384 0.9214131818885615
Ni 3.2607087984359855 8.50183836053095 7.88234070876559 -0.4781853359001764 -0.7098373598566613 0.7562300881885878
Ni 5.789480547319803 8.074905475662858 4.063228097255313 -1.2972423867173142 -0.3480494636123232 -1.0473026201952351
Ni 3.2158289629031005 8.448505943214444 3.5896655921248013 0.7316765672189399 -0.90069986060061 -0.37281844302688694
Ni 3.5048944944072717 4.0767522281091075 9.238129355931747 -0.5591102936810178 0.35189197728686494 -0.44411539079966095
Ni 7.328689307369426 6.44867250790786 11.654398791371468 0.05276572173780591 -0.5906965531277311 -0.3801430017127582
Ni 0.6628711588077876 0.19821805784208332 -0.040117393822437133 -0.19906560538003135 -0.7664386532904737 1.4005009749983495
Ni 4.6712778348574195 0.45458112487272884 1.6794286119034842 -0.46661562878470614 -1.0090021819531396 -0.054941903453518286
Ni 5.8372599740147075 5.634735385022243 0.05452052023603844 0.058667431934221546 -0.8614735681101356 1.401075873665213
Ni 8.027791678385649 8.936321124273736 11.479973793838102 0.14107128825343446 -0.15871342681522987 0.13197626793070175
Ni 0.17534776050693848 4.7280022267408155 5.645621617375495 0.26659254458741183 0.5915064506235361 0.5154390780453123
Ni 7.746640754204221 8.943670402501997 2.852477364741795 0.6840221985657704 0.08914117504304647 -0.3391431622616288
P 8.472568902574722 1.7575169726315685 3.680481152047685 -0.36144928195799686 -0.20665858723594085 0.009231545900597006
P 1.8003452106441573 3.0603908165542393 1.533215359826996 0.008817855401946104 0.8142488307952171 0.23506284941024677
P 4.720944731270996 1.0225253223269593 8.130646012557632 0.764906018696031 0.19096303087755498 -0.15455158212805642
P 8.405787123736271 1.8406841769987863 12.751592233404898 0.9786968461013791 -1.8993299552908065 -0.6500314434426224
P 6.231941745863741 7.807386277227399 1.7561373872768091 0.06604804066900882 0.3071846070771612 -1.146953950740986
P 1.970345140281523 3.221345480679898 5.770935017557444 0.07825152471373621 0.11642957844535433 0.5288491808036311
P 7.064826511625697 3.9709080324842123 6.372065856499989 -0.6123277582442616 1.4210831700250752 -0.6405021637959486
P 2.5331576084716514 8.689564092743678 10.200427981452885 -0.16676560769574506 0.37392838826161406 0.08610367376830333
