# total energy = -340870.65294037457 ev
CRYSTAL
PRIMVEC
9.25494987885142 0.00000000000000 0.00000000000000
0.00000000000000 9.25494987885142 0.00000000000000
0.00000000000000 0.00000000000000 13.54555465237176
PRIMCOORD
 96 1
Ni 2.327869824440605 5.791414571084816 2.4938314399563697 -0.24340582205830338 0.18814510181278565 -0.5576848740884008
Ni 0.3049839223887929 0.8390361882864218 11.635996979290285 0.7187104939765752 0.15197713653266084 0.4713924813480591
Ni 2.221419388818521 4.8963590955634 12.080047632312407 1.250991840390207 0.7269038284206449 -1.2340798951262164
Ni 1.2997466769165524 4.4533801657585474 0.6089322158655609 0.8695262632112831 -0.7932727427641822 0.20893632752652402
Ni 2.447101346099386 7.906133640629559 9.757662291279006 0.4758551451051031 0.45167186299068024 -0.7636878300182138
Ni 8.24410590702212 4.021683020080222 13.429862663573587 0.3753147270861794 -0.7396654989616874 0.6953630774998864
Ni 3.387654156129424 7.192058713585785 11.711094420584693 -0.5546324604153222 -0.3275253755170424 1.3820057444076392
Ni 5.586241583143069 6.853716249190712 12.388426270384228 -0.1884855158713399 0.788477635368384 -1.0150255053290842
Ni 9.130628318585655 5.750785340309217 1.7590939114024355 0.08872902720629236 0.6318488589963248 -0.892971638718417
Ni 1.1725651531538437 6.7967612865043705 8.188301334628584 0.024555063631544808 -0.9977368934519656 -1.4929282769918353
Ni 9.208369899112999 8.620227077573459 7.068557883463044 -0.10700699957987377 -0.5244649356930065 -0.5174576511372379
Ni 3.125535460451398 8.03465713215137 6.654606179035091 -1.6832940406050234 0.2757780677414219 1.0964479715716342
Ni 5.5553022850832 5.363761838583925 9.467611230816507 -0.5343066043737765 -0.19700306642404783 0.130643150941575
Ni 7.740914272108829 5.0000423011167126 8.33792611229353 0.06358826627460662 0.4414306448786462 0.15752300605155453
Ni 3.047284857670602 4.2404052549138775 4.917009665638479 -0.37598167124621695 -1.5012704783089434 -0.7897549594189108
Ni 7.817804397230397 6.586590625528721 3.307310083644427 1.042967740265307 2.7872491191869804 1.462593887674352
Ni 8.380079633344469 0.833415657113296 5.103369191092608 0.9911682390955123 0.34733932491917596 1.7405949312090216
Ni 2.0130441881550527 6.989745505213437 0.42729178944844204 -0.07669317908768084 0.11152134251045956 -0.36466701756434616
Ni 3.8981201817920605 4.167448483568991 0.3622174590720243 -1.5808335227452517 -0.22660803377467423 -0.4498826323007413
Ni 2.6619272469566115 0.3924672633522173 13.048257009615048 0.4203614829131728 -0.4268758869929229 0.47557592330178744
Ni 4.793073852862787 2.4108311968033553 2.4223249192863205 0.0004419726334250453 -0.33745677569814136 -0.37157994263409555
Ni 8.425225279750705 -0.06777770128975547 2.919784963625734 -0.466423567378558 -0.24640372834436275 -0.7298677961449752
Ni 2.7317280803300905 5.497375552640266 6.8683409212799145 0.5990670365796135 0.49733671201764673 -0.17541042785493663
Ni 4.3214508526136335 0.2605499816423848 8.649283918790559 -1.1184704985893124 -0.5536904082170271 -2.0950122460209015
P 4.66726206170937 4.711167544807193 11.46578363971568 -1.0710796680101746 1.7173040790018812 -0.1737628649491846
P 7.1552517771861135 7.03894481974717 7.511620107818461 0.23836517431060242 0.13464790122559392 -0.6024174411090851
P 5.654330250754935 1.3318891184845838 6.746742908890081 -0.3975324008337992 -0.1986974234073352 1.104323517664969
P 0.9280956472455374 7.800312541611744 2.3177800778821633 -0.6161833845449258 -0.9769461819588594 -0.24092085085292053
P 4.0457273803433225 6.4217599649106285 1.083928645412597 -0.4060394098635459 0.5431985075467678 -0.32363375377212006
P 3.4543545812318723 0.6507099859439514 1.746753360988726 0.21373760556990934 1.904453906780933 -1.2448813566170946
P 4.960680998499714 5.0864002401525035 4.822176968830202 0.9889079823064261 0.30067765919657896 0.06832655229054038
P 2.1583561590907454 0.5714006168759733 8.578982392618684 0.3518984050447681 -0.5862482875483903 0.1651797512658639
Ni 3.2326244876278136 4.693333256036218 9.29025954825848 -1.155396167971068 0.9666990503095543 -0.16844119562595508
Ni 0.8195572948892909 2.501122489615827 4.342217109564497 0.15251321154178896 -0.1703900918222098 0.9268685485761778
Ni -0.043178969517895266 2.535661963250118 2.0622027809085095 -1.3273425485368044 0.5137930578014571 -0.6442449186678324
Ni 7.059083591083777 7.214751851139719 9.67044271639237 1.5546195833540453 0.47849181139700175 0.36497349306117144
Ni 5.97026648104802 4.701625691292468 13.22601498448083 0.3301710406700056 -0.9731396637285755 1.7897140573331758
Ni 5.178857191279665 6.689033667773622 6.380511577975829 -0.08875473823790521 -0.34181145312241135 0.29072491885924123
Ni 3.2481265289829686 1.3657529807642919 6.409011271199152 0.4098202170622168 0.4854129639968673 0.6381292926883977
Ni 1.912202252271013 2.226657690554054 0.9252738129713961 1.472975230908676 -0.5855368633036625 0.4985317607670124
Ni 4.227272480774794 2.7997334533913905 8.298738802737711 -0.0727647905675521 -2.127966075239103 0.29336904135030767
Ni 0.24664441917305943 7.112271789094568 10.166806049149345 -0.37793905208290396 -0.5810819128561024 0.4715187225132783
Ni 0.6829773693378303 3.5367328917406677 8.734688597969884 -0.38574055040519367 1.166622375704191 0.710288588461467
Ni 0.9077967652728443 1.6541372247204844 7.1594220576844005 1.2866034189462292 0.9562945671467789 -3.7450189853277056
Ni 0.15384410939856846 1.2577847333319125 9.076239753551722 -1.7637883386063493 -1.365711892343622 3.4395032813125344
Ni 0.5495737426479154 0.1401301243955426 0.7100480982714586 -0.7480655500999245 -0.16051191347654936 -0.7087574965289213
Ni 7.208014247494016 5.441855107213655 5.67320387041796 -0.1818808660706287 -0.3133621966427829 -0.15834241662905632
Ni 6.7174741293165425 0.9975170276664425 1.385398463262553 0.37349232916546 1.0647064174939793 0.23384363229116503
Ni 3.8226182991799096 2.7561426385957013 10.61608482346193 0.7615612705935142 2.07227469521407 0.9015262131566473
Ni 4.544226755574786 4.787502372924993 2.4371707846820243 -0.4738861943041903 -0.87207139823064 3.0002279922139943
Ni -0.03459500333466777 4.399988358846375 6.592418467583254 1.7478307868358287 0.7422489434181475 -1.1485467491494026
Ni 7.685782534584855 4.4228018107511256 3.364621361908186 -0.3658160435671248 -1.5475608767350508 -0.23527419409010447
Ni 7.177213773685087 8.045957426178024 5.424994439189285 0.8702394872282238 -0.31149480441674093 1.04773662240886
Ni 0.8493841479516149 4.916590416400635 4.118201043294932 -1.083560831196321 0.9132861819060529 0.5211893502655282
Ni 5.68022560103059 7.059379749485785 3.825210610692494 -1.311148455275445 -1.0255230624262983 1.3646474556348498
Ni 6.131330376990562 3.117742792498538 11.637243621063742 -1.0308645292438696 -1.3107013404356977 -0.828143072278806
P 0.9172099749816969 6.461297111578821 5.981040168416101 0.011254232757580617 -0.2868705781101576 0.025550594775594706
P 6.370071068810009 9.135533442118929 3.7046824705299173 -0.2452451892598873 0.8482221024168681 -0.2991779347226009
P 3.87603787094227 6.752661449455228 8.272703702716107 0.4498273535827737 0.12852533326762383 1.5631649018208948
P 2.20992474084055 3.424488857379284 2.861620378966187 0.01041528179605303 0.826545388774383 -0.40627826534722933
P 7.304885809801123 6.345869374395841 13.486415035932199 2.758602401984565 0.15716408005023902 -0.38532814545812344
P 6.578344465022786 3.341555249866722 9.219456403793203 -0.23918381355715584 -0.417120607378372 0.1780326959691321
P 4.767863368891777 9.245528523615057 12.213525298602825 -0.21832291094774656 -1.4013327268710252 -2.7456221876748135
P 8.489880360889279 1.8154324944145963 13.318151714335821 0.31647066036477756 -0.12804196587330208 0.6873438067398356
Ni 4.936645893186677 7.833445262836492 10.160723695968086 -0.432012693998856 0.4132888923371075 -0.37919632152877275
Ni 8.289853125182438 2.990431699434951 11.030633472168931 0.0956856610297836 -1.6769493293339184 -0.8627691469931076
Ni 7.452668852403577 5.077941215795123 11.254486651317391 -0.4649233286839477 2.414226530569087 -0.5372502603831328
Ni 7.082878067695181 0.028059157600333264 8.136408829626582 -0.34181068179146296 0.3391357060624611 0.06776168092600589
Ni 2.819751910377181 0.8938560339932803 10.757743865607843 -0.844060771950327 -2.006234882075177 -0.7307406856682318
Ni 0.15585983752224172 5.93693015092189 12.528270416822831 -0.4175129577207842 0.8925391791666887 1.3705702488771878
Ni 2.905230629157008 6.8178718275975685 4.555816729538404 0.0370591096358265 -0.20167964596411073 0.7515026008059316
Ni 6.886941519916088 0.7519230453255084 12.151527313627273 0.6153207794343144 -0.09172539083045494 0.21302463866328475
Ni 7.54333034321856 8.239330352789727 0.9477226198436728 0.475627088254697 -1.4418191170208456 -0.6196859983815457
Ni 5.40883344538966 4.208864385099927 7.138412395546887 1.1609070704869684 1.288002356176285 -0.8481141160840941
Ni 6.098660403268953 6.179872590069838 1.7663266548764973 1.4123347344084838 0.7298181738539624 -1.353286522096076
Ni 5.149195076328458 2.774976461973457 5.125624569508573 0.3386291987396878 -0.1422236566903228 -0.4456212859212261
Ni 5.045761754426841 8.5283161685 0.6223528189515966 -0.45975978220513725 -0.8519162634390037 0.7672989444082398
Ni 5.09634931146999 1.6616337342713354 13.438789062909137 -1.5879652486940266 1.8360666764557865 0.3584480332378278
Ni 1.4933787421300138 0.6400788248068372 2.8979090381623434 -0.5552001599933342 -0.5467630849695745 -0.4435119528877071
Ni 7.225672692213798 2.034302808449256 3.513134620070594 -1.2962597110890708 0.22004734983802104 -0.4658409554022106
Ni 7.941765198371258 2.5267772111898505 7.330488703654796 -1.6925708379212592 -0.30411959499859237 0.6847379936858724
Ni 0.3969679455677468 8.004421210296272 4.538559949651346 0.7649379003752309 -0.7959137799314551 0.34362819461617594
Ni 5.709711871930604 1.34736339498955 9.940243020622502 1.6826633489995602 0.6649489839844033 0.9871125809688999
Ni 4.843976078208071 8.90680660626741 5.51111730249348 1.1952827197533609 0.8314937339185938 -1.2452863053649972
Ni 8.419394661211156 8.05470335398735 12.020866854135967 -1.4174057211734878 -1.1484349061618866 2.004151002962955
Ni 1.2634765276205215 2.9499505478603556 10.974649353744175 1.7906160003221552 -0.4511825820590875 -0.19419953553698166
Ni 3.431309755575552 1.0110477646582252 4.031698727038163 1.0069159888480723 0.9676344176396303 0.6024158984471883
Ni 3.993649776340065 8.272416799264162 2.8248985881070925 -0.15345577796071636 -1.5800629631278145 0.6210278571214207
P 1.6010785960105727 0.49378768015450264 5.194815501672915 -0.4988454353526892 0.3696595856829311 0.4286170380537457
P 7.981866896993279 9.233062105880494 10.364855502027769 -1.2010967553319767 0.7293288929223698 -2.168759197996065
P 6.855021197149563 3.300083818635409 1.513458281786219 -0.5304311805787704 -0.15923716052918382 0.727495953478689
P 1.365077369409709 7.845587757318858 12.050599306707651 -0.290736488823467 1.058327510550829 -0.2736494514341932
P 2.7673503831217263 2.846100753205913 12.569719636173993 0.06133752256721694 -1.1069259882848226 -0.03481865034108197
P 2.327980883841358 3.497251274772853 7.363038363025589 0.3554017902123363 -1.0074695473586972 -0.21025761744110885
P 0.3128182376169353 4.911731567617676 10.680101313046173 0.3430656372444866 -0.5281691240174711 -1.3184118217060778
P 8.046864411284176 3.106738656873894 5.225035690112907 0.11774932569804236 0.520157052346272 -0.39338186900053546
