# total energy = -340892.96830416116 ev
CRYSTAL
PRIMVEC
9.06962172390611 0.00000000000000 0.00000000000000

0.00000000000000 9.06962172390611 0.00000000000000

0.00000000000000 0.00000000000000 13.27430816435202

PRIMCOORD
 96 1
Ni 6.5032633477849435 1.7589896260162716 11.348338658172281 -1.32511005966186 0.1576271357295866 1.8086931695388397
Ni 4.638131939939638 0.33926189419888864 5.855668783038655 -0.6156159420772301 -0.10334086358219621 -0.631407400583532
Ni 2.7925274274440635 1.8611226350888819 4.620746382254593 0.5516222128340886 -1.0077109739455419 1.122270589061693
Ni 3.4397356263093033 4.387873870554989 4.645317801149853 0.13055059122776871 -0.3277845427157 0.4406631705850024
Ni 5.426073457495908 4.885442382297504 2.912463196796278 -1.7560079233299821 -1.784793737213423 -0.4312375063957283
Ni 7.318885350528107 6.191068832351378 2.7501314811773097 1.135607158269599 -0.11777657939155199 -0.018418097495871505
Ni 5.335966766692571 4.414583906228449 12.19819938949639 -0.09646830483207902 -0.887663339131626 -1.391018746539527
Ni 5.7148864883908725 7.715454555900621 12.512986909751364 -0.6232490331424556 0.7603291979586261 -0.4911506378115928
Ni 2.059284797883257 6.584971568967356 0.2981792291428366 -0.20327681524790153 -0.5907813995320536 -0.3276349045117131
Ni 2.62536523134982 1.6618811873216233 0.20268155524805448 0.026032419508019683 0.005636629460487067 1.233910459427888
Ni 0.5821427333571225 -0.07596805765856407 4.592950712873115 -0.27876440406325537 0.1506774438846308 -0.1883335636745079
Ni 8.695000899819377 2.3463201829405316 1.3458021529478388 0.33918352858126105 0.23564623271754254 -0.06074539750917281
Ni 6.932147614992615 0.8728123157978793 4.852701955208327 0.0828226890241864 -1.2071529888283856 -0.18941239856098346
Ni 0.5229561965836531 7.280348528261033 2.1157259601920893 1.1214740613023266 -0.6204388173871702 0.7400568208628351
Ni 7.56626834985894 3.715769560340463 3.6561558443886506 0.7258391346015564 0.33545388633549966 0.3265303585936247
Ni 7.644466627474076 3.7713754104980133 12.509602126962454 0.4882362923782752 -0.14643178123439943 0.5571323440190405
Ni 7.974219930365646 8.775620766407286 7.085640077379884 -0.34720948420953107 0.24476567852030745 -0.28831605230743246
Ni 7.287667712909075 0.4215941053488168 0.519826270162291 -0.5891613474301273 0.00378055008835478 -0.46453174967248384
Ni 1.9682439360529702 6.560728470374772 9.368117379806792 -0.7779404832824861 -0.2025867311594124 -0.362425272718021
Ni -0.00040813297293912246 4.795480805440101 1.2289618454548266 0.66191148270966 1.1617861306578119 -0.08417946016239697
Ni 6.3149598636924535 1.884658303195038 7.026914277384756 0.9008808662631645 0.24421212000968262 0.4160656837512964
Ni 3.831380027141685 4.377153577799121 0.8173334403430211 -1.151768855631126 0.8982033194310015 -0.3894858763802389
Ni 6.164268100461708 5.707059404932062 4.917334799765129 -0.6193895501870493 0.2956814915335682 1.084764364586119
Ni 5.167952026165965 2.581168965191323 9.385532867243187 0.1112367213905052 0.9638577242060176 -0.8187891418677318
P 0.2553098486274733 5.690162699852383 12.220301150424286 0.3321649311715828 -1.988059753828047 2.2272016584036742
P 4.1475833153316755 6.128234493761995 12.676605604678333 -0.9590618454792709 1.023440983086289 -0.09866634092466234
P 2.4425216594730927 8.685359892036393 1.3855851412256202 -0.47218618089394804 -0.22681397913789325 0.16127424556387063
P 6.2734300662904925 7.781699072219451 6.061500217875637 0.5760957724954207 0.1048578144473549 -2.3024282802481575
P 4.581120298430854 1.3118754193506525 12.577831983454091 0.6015823468022995 -0.6936640925309085 -1.124698224666579
P 3.7996635603335047 6.092654368143323 8.4165081913668 2.1702337256590623 0.44511632126034956 -0.86459334468604
P 4.756826078091956 1.2208708360068492 3.599607660544692 0.34545933428764375 -1.2556679057096374 1.2914800303122402
P 0.04278775392077551 5.644506224612926 3.877053734662221 0.8679375785679246 -0.4116724397796071 -1.7815353781771253
Ni 1.64077617780986 1.4296353864760207 2.61533060198849 -0.2984179166281247 -0.7266631731647486 -0.9048863878781319
Ni 1.8722782696825513 6.374882853741538 4.842255565025411 0.4395437122685785 0.9144832875379477 0.1294542728397964
Ni 5.959838829127312 5.624054227857866 9.417431633445945 -0.6572025072697649 -0.12999728982745998 -0.10081346917465218
Ni 8.54804582069643 2.258063694947851 10.274858243126182 0.7024428671648031 1.0139543837520926 -0.7812389515280996
Ni 2.4924045783878745 5.073237967579226 7.022055681082455 -0.21776960954743788 0.0246368247120737 -0.4821746595652277
Ni 0.44357433334699375 -0.08027975577712539 9.159193203997093 0.3145539029580389 0.8159858680909818 -0.26385637660317135
Ni 1.4249463920980312 1.0948121650983855 11.420165526598758 -0.17933907348538147 0.7915025382376369 -0.47673677637910794
Ni 4.10464772657848 7.00855010752682 1.6829961734171692 -0.44500216427998845 1.0214828309186537 -0.05547489313885284
Ni 5.62347377207413 7.746164294708885 8.017522838794486 -1.1863386231861954 0.28731409340547936 1.8136425431243153
Ni 5.400161548525085 2.8755326045182605 4.953547078010774 -0.7972137296898012 0.3788042282966767 -0.511435613312874
Ni 0.8439273848597345 7.417308884357781 6.858808840641942 -0.5353448158303038 -0.3014857569201711 0.4512080359803842
Ni 5.236627201079188 4.7678456683613115 7.125608992900894 -0.9235286855696675 -0.4769504350518109 0.151881491495061
Ni 8.261064853368882 7.058959064495611 9.313705998816712 -0.5204329317154778 -0.2970464902018949 0.08945125008429756
Ni 4.4912675570328995 0.4656470714857036 10.215137505639243 -0.45756457432603126 -0.32205098266603244 0.7761679647630956
Ni 8.128122339650178 7.141900754218462 4.994126379066868 0.03873289779382362 1.0500650134317207 0.40196703956638513
Ni 7.349749272903926 6.1504732059763665 7.241148716653474 0.6302164655992242 -0.3135241761419439 -0.43005094228679486
Ni 2.2504905608944252 5.5832137216990905 2.5434901291295833 -0.22128122224512214 -0.7330356523499956 -0.08952426941407808
Ni 2.576724850597097 5.071786828119887 11.557754407473833 -0.487831857851005 0.26836069223142817 -0.30688584488981985
Ni 1.193943129414488 3.6360385166714 3.6756156245383877 -0.96013579526974 0.07311034683242892 0.3760091820500428
Ni 3.7342262403389324 2.7306998168545973 2.526432891747215 -0.08246504857445153 1.1188327670247376 0.09725300551690347
Ni 0.8859142911913871 3.3796493830710435 7.956168662453629 -0.6934684315803348 -0.247048046796581 0.7539382068306177
Ni 3.7243857008802888 2.691600678047029 7.141896219407651 -0.13798210780514944 -0.14148652141398216 -0.7431467726420684
Ni 4.123358355982333 6.977740602880726 6.22295580804603 -0.45132630672580343 -0.6179006243463487 -0.8177797267666109
Ni 0.9368828438141868 7.381746897982353 11.341807623643096 -0.4406148338455702 1.2208487411479232 0.008716296827075311
P 0.5535779600621944 5.644188787856196 8.071868011546735 -1.8061133246268057 -0.49044641265571665 -0.14718511446065619
P 8.384103340277596 1.6029195771643512 8.105106360862898 0.3885620790143889 0.5457050760187053 -0.7577141289332822
P 1.6681664351048857 3.208024933139332 10.232952056426955 -1.0481228021036852 0.6670300348831479 1.6428942966317384
P 3.936424384754594 6.328337555583236 3.836381016503432 -0.14338759509143695 -0.148972288268066 0.4078183561408396
P 6.689625932850568 3.804198371143939 10.510862495171473 0.3359747918359762 0.5054516278152973 -0.768936994232295
P 6.22260390672714 7.802867569082561 10.226141677551844 0.5961876581492893 -0.9767962866445564 1.154681658402547
P 2.3016613660793706 8.605166297664667 5.782978486633874 1.6962567714132784 -0.7030972129193503 -0.8738971385854692
P 7.028766294119737 4.017452384315441 1.4731559658237625 -0.018934375010657718 -0.43377724209844654 0.5057683877247676
Ni 5.453454645169312 2.676817194805012 0.8156918388296438 0.5798426411323627 1.503918971675384 -1.720641113794914
Ni 1.2993049237841277 1.057427184777162 6.846025208967326 -0.5047196347452791 1.1499755111761292 0.5308070758609504
Ni 6.805980108624702 0.5921156892914304 9.303882691639147 -0.02518318413384695 -0.13545394206665703 -1.2731521785373299
Ni 2.4923320214149074 1.7395624965043694 9.066352022275064 0.6221354883633027 -1.9791359689758559 -0.30475697147227515
Ni 6.610429996857136 1.7044812000748466 2.5456804427510233 0.7570253303963737 0.17023505430158423 0.858337079363683
Ni 4.0001566158844435 7.167613131513627 10.369982248610185 1.2210192052875164 -0.4934602597813759 0.9079388015512105
Ni 7.908428895127859 7.045372771307549 0.3677858541965229 1.1397648891917145 0.1887667945571846 -0.5510658261099863
Ni 7.349241374093157 3.8287679761148747 8.266920201087315 0.6381264644749204 -0.44860145159547254 0.3125849521571262
Ni 2.9604514717544603 8.517508404698964 12.36497794059607 1.6027951146180075 -0.07970008423480467 0.1195465268077812
Ni 0.06765574944303729 4.805321344898744 10.1336070490406 0.25813978583436836 -0.43287658466104806 -0.09153718607904882
Ni 8.646287962093687 2.435166196338568 5.661890875335808 -0.15129553708460397 0.1738191721084168 0.3791137891172955
Ni 3.564379436244911 2.761409555662861 11.34411765626993 0.11827023119851889 0.047917906727201344 -0.08221436601622614
Ni 1.003045733538429 3.3119809361577373 12.585291747237259 0.33338311984940006 0.8693113189869996 -0.3774870521471499
Ni 2.8502192905744135 8.453395249461037 7.919677946824223 1.168248598453704 0.1678159033371303 0.5876377116967493
Ni 5.516116660947898 7.948942894908282 3.733438997182241 -0.2075397042893135 0.5203645403713877 0.669003613669751
Ni 2.9641881558622587 8.49619479388992 3.5895458223184993 0.43107244157277375 -0.14075889921933823 0.10421735264987858
Ni 3.3158445949682274 4.159092665168559 9.26492231804238 0.6472099148334273 0.28921979506862444 -0.41312485595541754
Ni 7.372296352253407 6.0016225759346575 11.4014095490868 -0.8204858128438643 0.6510765968776852 0.13305715969970636
Ni 0.6276386762938896 8.726935037546458 0.1586467283544094 -0.279879234393989 0.9382184263713583 -0.12768843918862527
Ni 4.785014462089618 0.6365795092877427 1.364625245659791 -1.0747632875093491 -2.9426519935717383 0.49610823892718425
Ni 5.970432147180488 5.793175462222217 0.7817297337081363 -0.2786998693739071 -0.7219261727003954 -1.2364465955861803
Ni 7.99700281987727 8.87363616726402 11.311728223537482 0.0937503916802837 -0.8328330215553076 0.40844776219472234
Ni 9.215551832749176 4.902701872242019 5.961306293905569 -0.5199320808196595 -0.43159848927957284 0.1323192530924173
Ni 7.9241284101535845 8.597520606638273 2.8009059438974226 -0.7475096775964545 1.06098860232276 0.2284880244062065
P 8.72715270846536 1.5976138485161426 3.530129824118022 -0.960478009100507 0.24965334562991198 0.01136838973794171
P 1.8692218071963183 3.511195175060133 1.47331559116429 -0.037923514518650815 -0.3793845262801789 -0.03800476137854745
P 4.689139491935408 0.7920056150045813 7.984575624332353 -0.4252908018939901 1.1422246635861166 0.9524859920339659
P 8.640075271283393 1.626818030135342 12.43881010236292 -1.0077533971477033 -0.817402031712218 0.8722179511108333
P 6.173618880352825 7.787784788327054 1.6277222714109427 1.0047128105491665 1.1707466822852095 -0.6725530215839063
P 1.7119001505607179 3.19496467800528 5.9233145558979095 1.0512104398900735 0.20632151561149628 -0.053024117605515134
P 6.948663395964219 3.9638418509144824 5.996536332129674 0.7170001961536878 0.17602312173827106 0.3828516588931729
P 2.319129457321165 8.66133446436271 10.180359134571857 0.8714327362053766 0.06316300581172993 -0.4949836384044379
