# total energy = -381169.80516073 ev
CRYSTAL
PRIMVEC
9.26762250316015 0.00000000000000 0.00000000000000

0.00000000000000 9.26762250316015 0.00000000000000

0.00000000000000 0.00000000000000 13.56410231900997

PRIMCOORD
 96 1
Ni 7.114419981807015 2.9304499644471065 10.85687027986881 0.2075528169154361 -0.2088944185449951 -0.7819007534818146
Ni 6.550142264690824 2.836411401279632 6.576120336674144 0.3161793543766039 -0.9841768953793438 -0.47007967607390655
Ni 1.8055459733888628 8.377309600834167 5.495686104313329 0.45609827419314997 -0.3175399821695563 0.32270404286899906
Ni 8.21692412984015 1.8478804719154247 1.791505525650741 0.6994339051351502 -0.07376597813855683 0.26714044667108183
Ni 0.24743068639701277 3.2723881556984242 11.825387778942277 -1.2030767618764828 0.4776490037807323 -0.25980097558687515
Ni 5.964752904044968 6.73188960501578 4.342479721606603 1.6424890907735195 0.36187634219308645 -1.058835560535499
Ni 3.058500701343232 8.559010603047778 10.899827562611875 -0.4113171133227174 -0.033181371847975115 -2.0051552758577533
Ni 5.940712691878177 5.671358518240702 13.024969343485017 -1.8761604591528787 0.38133959312402066 1.6186953307880316
Ni 2.6533109881033456 2.280974995808437 4.089942575339158 -1.719399013857697 -1.6858486887060773 -0.06665970611107876
Ni 7.326852419465913 2.9039909028680055 13.20408375232324 0.0316623641002874 -1.3241595228231324 -0.2075795563883135
Ni 6.085333937391967 5.417332991836792 10.775064978096928 0.24417895277890206 0.15451892911790807 -1.1292395641803585
Ni 1.2448270232241165 1.1879330901123473 11.221920994297752 0.9916166394868404 0.6187357186531345 -0.8300294906682415
Ni 5.347121485523914 5.585039884423627 2.239867530470342 -0.04021411032504042 0.6991163738947316 0.37014038197409155
Ni 3.6582085383952916 3.837555564552477 5.293486048402062 0.04416255344982717 1.4281475330710243 0.6606071620759397
Ni 3.681952186649462 6.29226140742285 4.389044889699139 -0.23220224003300008 -0.7191049012015164 -0.4244631637863722
Ni 5.504170612500953 8.121810522489426 12.542874120367072 -0.6483093185451931 -0.4460648012165479 -0.30023620078378616
Ni 1.8976846739911126 5.836655829037495 1.7190466209375357 1.6084947361059458 1.5479365149069146 -2.390336097104735
Ni 7.947579223824943 4.112739072597397 8.722911283168575 -2.197054188286016 -1.3866607266811473 -0.08074060968417707
Ni 3.2954645351491987 7.550053834201839 7.895230132674081 -1.4924955603297907 -0.048241865725523365 0.5874464216215495
Ni 1.9251075682862298 3.409048513682811 6.774943271030446 1.3302941749659607 -0.3957439414748088 0.6565952127030692
Ni 5.824626455331831 8.98242046166928 3.7865549124418107 -1.7306612170350777 -0.19112886703145796 0.15045350079928282
Ni 4.579753093996367 3.4803906699125555 3.094283917687564 -0.413711581696823 -0.10761146593309207 0.7304758620426194
Ni 1.6370049947977834 7.1732601155953555 3.503254820813361 -0.3966096319092137 0.4046363588684322 0.1635031348943894
Ni 2.9115532826398254 7.5140861921743465 12.826879478050222 -0.06196924261394488 -2.388086896059242 0.07823995474951041
P 5.806554591906526 4.693874594621604 7.4267935312567595 -0.7140750520870928 -0.279139528014487 0.47756672847957105
Ni 8.708793914165616 7.7607532264963615 4.231457313868249 -2.018421911059672 1.2741397392615799 -1.4799316076218512
P 7.011354754549157 7.449815231736145 10.411058724697746 0.8896598007363646 -0.2700241959767801 1.4665490156673582
Ni 0.47038187533166564 8.72857102008849 12.488983823632813 1.5020217546526713 -0.05923564573286572 1.6549370867288853
P 7.631469895838408 9.162508897608015 2.661791789242062 0.9425957295034476 -0.8761332270048395 -0.6676121326388631
P 3.7710603747696223 0.29702822049609334 9.0832688736803 1.2820050009422694 0.7120310250738705 -0.44747042331482284
P 7.909452225808684 5.602212788488802 4.390632433393886 -1.3598443778192517 0.1801926797349284 -0.842260999737427
Ni 7.8937899441734185 4.909235600917628 6.5183923175581295 -1.0276683909040754 1.3588961549733694 0.31210852674133993
Ni 9.125123309373308 2.930792866471074 7.109515556102055 -1.479513032027194 -0.9742709491195415 -0.0463904143390814
Ni 7.834319612070759 7.509711874463195 12.62743283271519 -0.4535081448684706 -1.9566868959437205 -0.8622011903047796
Ni 8.428318593804876 5.455877032855175 10.385680267875255 1.2432659325008586 0.9212517166100328 1.4787393870859629
Ni 2.6044428158768658 3.22283417942401 1.959660044393187 -0.9345201515841648 0.03168164737399705 -0.8994194512262897
Ni 1.0544978646777075 4.205211407601345 0.3383581087686534 -2.032781265105138 0.4648986460935993 0.022660674822309358
Ni 0.048781983339374495 8.22128917992903 10.27483394496002 -0.777324704075358 0.3656430083243703 0.7062972079138868
Ni 3.031726540606972 0.4142553013438016 12.886914208349088 0.40184234106306277 1.2492005528177388 1.0114853533863095
Ni 0.18700578920060687 8.274114626864538 1.4737799243404246 0.35179016160167803 -0.46941298902418516 0.07463681077928436
Ni 8.17956634447225 3.412662886367872 4.738700230014177 0.2429574216669751 -0.8846374078211088 -0.6982280577525072
Ni 8.036974708235455 5.011791108950669 12.77547197732193 1.8238210263192138 0.8211643269681277 0.06825533273297277
Ni 1.4876201914375278 1.1303996910639902 1.0120308391526935 -1.0700928786168733 0.37392118917276246 0.6250218087721623
Ni 8.746596545402447 1.7183654507007355 9.364927669404842 0.9949454467497575 1.3275749762625846 0.39678523825512957
Ni 2.29726747575802 3.775397621991695 10.92143502393295 1.1887526319443267 0.9224393091602308 0.10806295164821389
Ni 2.4364300917551414 2.333346329252745 9.042128971664262 0.669543545333621 1.3858950521597164 -0.13904962983771538
Ni 6.2962742878654945 0.4257508600067497 10.529405334315596 -1.1958200803140697 0.7053952649249078 2.451273556020056
Ni 2.6692976365180385 1.052264367710785 6.855826444386524 0.3349514927777844 -0.6135644588648401 -0.7301840418338135
Ni 5.160527178752068 3.5334756102716067 11.932110009947634 -0.8822059155614806 0.28100794868179346 1.2166920386670723
Ni 6.981225714551379 7.74459049325855 6.415182515392869 1.7858080374105503 0.02482708634600886 -1.0792645178138123
Ni 3.912614037312245 1.1531424361130669 1.4403859010171411 -0.5398804989171283 0.8799736837968521 0.19154898528801204
Ni 7.527904216978004 9.426376638862015 0.29581972255216527 0.22289484658914516 0.03994851536847959 0.2107515263583919
Ni 0.557395580818944 2.8876150143179977 2.9626846082244898 0.40131912156974114 0.03617413592771189 0.7173874042897773
Ni 4.246081621809343 2.614016269681143 7.471663651236226 0.5328919834144371 0.7400964158515189 -0.5542982170043551
Ni 7.6317571921287595 6.723187307704825 8.416430087957705 -0.992679019313084 -1.3683205336110627 0.3296586198099613
Ni 0.22427553215694832 6.306505742850898 5.575768555105332 1.733141817365086 -0.6896395447525477 1.3332972234583425
P 0.7751995323451791 1.9788783126932155 5.355745008045579 0.3070267413430583 0.16746777596909224 -1.3641116377360378
Ni 5.953659560188511 2.2574074323773847 1.6228635299769252 0.7106855667895695 -1.251588079213309 -0.18102880248297856
P 0.7310504333782714 3.6583660879738713 9.414164692997641 -0.60481062393161 0.35991870424608335 0.19295666426881605
Ni 9.190728807418301 5.128238782765522 2.703501650027667 -0.12605733134310548 -0.017642909892743808 0.6125090210171322
P 2.1963523368666604 4.764855313582842 3.460134427918355 0.15028740753506373 -0.6531031403894108 1.769969527716397
P 4.059524385526575 8.25065827490072 5.52408858628232 -1.30999454417666 0.7363459476701512 -1.9384719155975907
P 6.330823983685772 2.492888446620249 3.750637315574573 0.2992136730565428 0.09199432822112544 0.8775727876648435
Ni 0.5633861718538761 0.4637879620869965 3.566002184150475 0.5923713697269927 0.45014668459540536 0.03079821632777922
Ni 5.642239649070286 1.1701948610887398 12.995183205511207 -1.6477390263185492 0.5909580343192339 -0.5103647488461985
Ni 3.7375764555103252 1.7228880503681967 11.160801025431144 0.6946416259528294 -0.03391850712431578 -1.2284787468893552
Ni 0.17500143807506935 7.77031741267837 7.470090008974884 0.6287910460066074 -1.9830617863928233 0.9462086436656866
Ni 7.7096978954143065 9.04491203863176 9.018880214439276 -0.7101584906415059 -0.32628558957267034 -2.9303934879193596
Ni 6.128141084654268 1.8624399065006323 8.654765529859542 0.854263937735574 -1.0831201441144764 0.27678928261475555
Ni 0.5052661323158668 5.53265928335705 7.98490179222822 0.9847286541177558 -1.1653625351551606 0.48466091632219105
Ni 5.120741276349587 8.977999805846782 7.140658473976105 -0.027647586513939483 1.7585836544769586 1.8100255151970182
Ni 5.034079740508545 7.776072606107659 9.703419231934173 -0.29025337853946137 -0.31676479456642864 -0.4922189311751071
Ni 2.5665660436618793 2.743290332716828 13.140386457703514 1.0945353279299537 -0.6861554428586893 -0.9560318004036955
Ni 3.2943987585882195 9.058118400365636 3.4871949581827395 0.2113526502775005 0.40145796114045057 0.9629185002211997
Ni 5.849806585037756 4.436234695532634 4.865185665509003 0.7496133542030187 0.40355058200342114 0.44606994342287054
Ni 7.142862314551765 4.328887826786319 1.357319275854395 0.3816643234532911 -0.07632371156340403 0.7435308954543646
Ni 2.285757088899441 5.562880999577523 6.2796769031432484 0.7362130216367128 1.4277161019605606 0.008165309419611744
Ni 3.7943869800216703 5.902279862327028 10.79250849673237 -0.537886608415551 -0.09670690320544635 -0.024462503917738514
Ni 4.450423425227066 3.7427199858698352 0.8144062083558224 1.2248938577515744 0.4326372149567323 -1.405534937877831
Ni 3.153605041071686 5.143335739442354 13.090104046318727 -0.14249207986036105 0.0612768445326106 -0.7294047404656278
Ni 2.7350699517638812 8.320424935344668 1.3575222367820945 -0.06524354248984247 -0.2858578205749271 1.1471953773278307
Ni 1.367845441227965 6.453258541486648 11.255872001719428 0.4180816857400606 -1.5328726785952569 0.9796581815733838
Ni 7.680690237711125 6.569085284609452 1.6722914665884763 -0.7600808293932458 1.0080269625240639 -0.3119892275546562
Ni 0.39560143123997865 0.4500598332193529 6.8651311371449895 -1.6127313998951127 3.1702553013801467 -0.6533252837025457
Ni 5.518303736461769 8.648554369414597 1.446015054783567 -0.20623384099369646 -0.779458205478593 -0.4367684635162865
Ni 3.579137185192878 4.797078836213502 8.4140974274325 -1.1828002710156338 1.7639906844251427 -1.6614075249445772
Ni 4.570531809838327 1.5697961981001862 5.19939187950097 1.3534490158158692 -0.7261144997501301 -0.16928271769064393
Ni 4.749786159772818 3.5168309606757866 9.633035347847084 1.3490542291822831 -0.6426801452838738 1.569021360601672
P 8.655403142271675 1.3447412589103824 12.391974060765772 -0.3435441195428019 0.39729611645327706 -0.1663287772686426
Ni 4.981912294754164 6.566184518839134 6.467838364840848 -0.33872355822570693 -1.8782037148351525 1.0049269834425016
P 0.8597063460085882 6.61826855599309 13.341135203967397 -1.231229313051299 -0.3051480362631067 1.1908449956969813
Ni 7.433272525985289 0.9424986495521606 4.804065696642393 1.4813603696485778 0.4490369964709944 0.8043850506272597
P 4.220067406099172 6.685551493668844 0.8258248457539348 0.534381680586086 0.46723783574973726 -0.46298934488602844
P 7.253230428157899 0.53585391961598 6.994166095526125 0.023587557511952927 1.149995051560155 0.31234918199723627
P 1.5189354870857878 7.14732004086334 9.33419067338619 1.4194422919875427 -0.21362910501650303 -2.748899058653872
Ni 1.650507920444281 0.29407184899215877 8.896029540398503 -1.2768679368260203 -2.652928005173186 0.19258745385485543
