# total energy = -340893.3044187665 ev
CRYSTAL
PRIMVEC
9.02638963207458 0.00000000000000 0.00000000000000

0.00000000000000 9.02638963207458 0.00000000000000

0.00000000000000 0.00000000000000 13.21103362799028

PRIMCOORD
 96 1
Ni 6.516574770165682 1.830353195933575 11.38462122516852 -0.5358639215585673 -0.07525104732451555 0.37138479590415396
Ni 4.434015227155106 0.2316713111226619 5.879226828313251 0.4129070835176566 0.3872140496269267 0.4331295812121186
Ni 2.368750246293328 1.554786553010496 4.804918595242899 0.9505185838949501 0.17011472667363603 -0.4588850929096677
Ni 3.290416818260629 4.192243386259738 4.761705658483426 -0.09825882107359851 -0.46518223877228926 0.09338503792106498
Ni 5.029549322609787 4.659819385147958 2.5900096172079325 0.48934598050268624 -0.18878659205152648 -0.2088748781609693
Ni 7.253669731058558 6.183176050161527 2.6981556916134384 -0.21256723941089198 -0.6691959321862153 0.12851839128908832
Ni 5.1208963836462305 4.550591046649736 11.770964232377146 0.23349884735723658 0.1961440608578622 -0.7188465053338071
Ni 5.314530489708856 7.7888894923387815 12.451173984440203 0.7674377839789492 0.8783623734456745 0.3797997594407266
Ni 1.817851646572362 6.804877648575165 0.12466346442433894 -0.10777267410130471 -1.2778259298639154 1.4403391900412097
Ni 2.616614900054268 1.6779426103999449 0.16433444597129207 0.9572921551733578 -0.8727645676429228 0.4948003187490381
Ni 0.20332754567201627 9.172526675357974 5.006426420805731 1.9778864128394713 1.272378533596099 0.14260109463439954
Ni 8.523854225326065 2.194143769150151 1.266397923901422 0.5132325573122968 0.5428280115812264 0.17702045265453384
Ni 6.844368102333509 0.8722669478921786 4.765735038725191 -0.9657099469234078 -0.5443375062472173 0.2390089785421884
Ni 0.8511442939859158 7.241104996971332 2.3593718276750604 -0.38255598202962504 0.7551710507964542 0.3791050473665471
Ni 7.60002131989545 3.7625060118640863 3.9181940793999233 0.0550419193664923 0.48800540731439185 -1.1147431703363964
Ni 7.540275648255112 4.031763208575261 12.664347515702985 0.5093507057593872 -0.27950950975939604 -0.1003540130397304
Ni 7.648411793632245 8.887319848523145 7.089304595363203 0.7985314200599603 0.5262518523901002 -0.846922409768838
Ni 6.9081937019964235 0.5369356779109582 0.19480753668858758 -0.3970513474323226 -0.16358412464396987 0.32791309787376427
Ni 2.1721554844975053 6.427944652347812 9.008035170210594 -1.1732095420034052 -0.4153496315208782 2.510842930943256
Ni 0.027128813433303214 4.76984204591606 1.491168560304483 -0.27765548726979283 -0.3944956708900045 -0.6842523122987055
Ni 6.255829458687448 2.2194988970603653 6.9176407211743625 0.852674481761267 -1.8258082319525717 0.4556632435382604
Ni 3.5519203464510225 4.045772164971364 0.3635676213976433 -1.108098154216053 0.6244376541339182 0.7340612654010326
Ni 5.709182288388239 5.468638036455416 4.98787809316504 1.12809516616327 -0.005673653346009584 -0.9723711609936674
Ni 5.445241635051615 2.6489654797731026 9.389160924328403 -0.03552390393822269 0.8462050719868395 -0.7350611674204566
P 0.19942814543804954 5.586206758787398 12.45437113157648 0.10437958925935573 -0.4943326350840002 0.10598421474231424
P 3.9255226049785286 6.04082988884288 12.831651643796905 0.04430473545464628 0.7507667510811715 -0.7313281827405856
P 2.3982484869521317 8.557766370416374 1.5447004654608791 0.24042205683963108 -0.5651986659669428 -0.8213139651721145
P 6.444183126933243 7.818902237195124 5.610329784540353 -0.5072478004837716 -0.5991943061860971 0.9002463180029593
P 4.592608889448614 0.9395749285973709 12.426456119623781 1.2166277610880403 -0.17771825005250683 0.6727368554599382
P 4.13001545752602 5.87464503303834 8.14262015453509 0.032169128533376855 2.382887354136174 -0.3590458147228268
P 4.658302951723637 1.226857825001211 3.9819239993348736 -0.10718723391147991 -0.39010114136673457 -1.3541534980820613
P 0.09972174515004067 5.6589414048181945 3.5778910741203953 0.763168467179634 -1.430670299492878 0.6810438326637368
Ni 1.575971489003829 1.1235778771376757 2.602850558811731 -1.2225423268002624 1.0510119507260223 0.1629997128954096
Ni 1.8759906208940742 6.295599730518137 4.821326765949623 -0.22139023701916066 1.1053424458477865 -0.6248711421269109
Ni 6.257120232376007 5.564760057500582 9.226823115699132 -1.2957616884067296 0.6180595185217163 0.1476895649009005
Ni 8.565646408389181 2.366755414229192 10.251233467997798 0.8806820227177865 0.6107218472097224 0.15959840052334448
Ni 2.2724025655123996 5.4168355875139 6.976178661908901 0.40506444754478627 -1.6550646134456848 -0.3854327893567878
Ni 0.4468505061168964 9.125228394742267 9.24358782878836 0.840122099017553 -0.2042962576513514 -1.0837657481182754
Ni 1.4278303856708152 1.0521069256271467 11.19057732102575 0.48146580642366116 0.5576946442804137 0.35526912128921395
Ni 3.7945226151739937 6.862989543728586 1.6046122226667374 0.9453848622128107 -0.36743172479367686 0.7715420359553099
Ni 5.674087686282538 7.861145739729762 7.880447770887898 -0.7097514850110744 -0.11556131690778809 0.5862755412419
Ni 5.508101411045469 3.0907621104478746 4.684130159801065 -1.2664989348868705 -0.5617734423354777 -0.250289179441698
Ni 0.5652334087755084 7.443918941084753 7.061931166776333 1.0991774546876556 0.504789568751266 -0.5040408635106998
Ni 5.258639086355333 4.343570805061711 7.337751451242409 0.28650085347556464 0.15025886828997348 -0.10449940266667165
Ni 8.026247428802646 7.236194641121152 9.039029083598027 -0.04318656268980304 0.25647242543427445 0.6336997961621343
Ni 4.522988347771333 0.48889633072300853 10.111817272688286 0.471574258341562 -1.7761394039725344 0.3430594665968995
Ni 8.408731654529742 7.236934805054451 4.835779820705706 -1.2489871512553523 -1.8092901796928904 -0.2716082526344483
Ni 7.245618191686571 6.190713085335976 6.9622942696869385 0.10105026777580661 -0.85444417206718 -0.312096699666798
Ni 2.2674380513256365 5.180100471920738 2.4933577471031976 0.6986054956965839 -0.01092924531799408 -0.29195879126634233
Ni 2.3860989667787074 5.188874122447165 11.518885157391114 -0.6280492827445764 -0.46717124417785993 -0.1178233734690874
Ni 0.9154473896497017 3.587565558311982 3.5606244937788327 0.390425871696005 -1.461067937948129 1.0686993407034562
Ni 3.6858990447676154 2.640119618131234 2.5513017514132112 0.8149049763219772 -0.4737003035456294 0.5306492101268474
Ni 1.0877340847092454 3.207355982721366 8.3850030819949 0.07143064513716085 1.574014442940889 -0.8347850030753559
Ni 3.7035095305464787 2.730383512436019 6.759041643047195 -0.4193731508579745 -0.28293859004560307 -0.18786279468567646
Ni 4.197866826874927 6.840080567354032 5.931766733271237 -0.8960505347540568 0.5373469338619972 0.7053654401282368
Ni 0.9782800864752629 7.285596070474161 11.207130816602305 -0.13353127112264745 -0.1136126778218495 -0.9318104659624856
P 0.27089458375386327 5.649120693117834 8.212136892733922 -0.20426360464120305 -1.031940535916868 -0.9482560131130183
P 8.535335792681636 1.6948670905820922 7.957428430506791 -0.25712008632060235 -0.5119732309838989 0.34562568466217897
P 1.97041568072631 3.238849055444305 10.351122201352302 -0.955023156633523 -0.17307072397816645 0.6861742119117666
P 3.843265118098578 6.076204309020925 3.8184777500835407 0.35303688952458556 0.68270990751225 -0.40606409245389424
P 6.843691123126224 3.974951113499829 10.586000588639614 0.43707802433690535 -0.3135480874013439 -0.8154917020633827
P 6.165421142151775 7.791019720244375 10.232380951033301 0.7207097837947911 0.1084218776495294 -0.041009095422510015
P 2.308047777373359 8.35984472937427 5.797860246070089 -0.8544030344165995 0.2485778531775461 0.8816384730937848
P 6.865589143884564 3.914356961253027 1.547131272134507 -0.3222129621651934 0.11731712325663021 0.6074444620100313
Ni 5.401978150511332 2.768258242486307 0.18293061347596395 0.5839034414652977 -0.741406135801878 0.6900285526608503
Ni 1.5502733582952568 1.1931803660360956 7.051150949879513 -1.0747494035522782 -1.324956821913447 -0.6929123019665486
Ni 7.024941022890233 0.6484260296004568 9.249282577880049 -0.9547963853346976 -0.10085923481092307 0.15391009188931556
Ni 2.710362980679218 1.5580180004266073 8.93495210554778 0.750601686258217 -0.07428868341124625 1.489220489122945
Ni 6.3175248304447695 1.8364911407463003 2.443776692600522 -0.2505473181990911 0.5741224508191337 0.36986321705330494
Ni 4.182151882876464 6.808650679357106 10.567188690427553 -0.12189034444960943 -0.12797280319826349 -0.749622095953767
Ni 8.13572850620492 7.035844901322251 0.4944972053646204 1.3694934708732414 0.991483713453402 -0.6580170327512603
Ni 7.693922849140718 3.695665598131393 8.470663517690141 -0.546078400197724 0.8837912577707295 -1.2243760375748913
Ni 2.9736356811979854 8.46035357568265 12.248107301422728 0.49178441474084983 0.476582767299747 -0.27112591368139116
Ni 0.016568840438586384 4.980481869665706 10.2550245515586 0.2741713853759343 -0.6916537469690992 0.3404796216848653
Ni 8.615426946098271 2.3643634210301148 5.760604726334732 0.1647938286813549 0.8410438395008741 0.5952360928692975
Ni 3.8006244544289975 2.538843528721265 11.222257240009899 -0.20351258540779144 0.41296313356657266 0.5961490916018701
Ni 0.951345340414715 3.276633521600288 12.551313651420875 0.12891562672750703 0.7628218824734927 -0.29335438606228836
Ni 3.2472706767829416 8.153501466993532 7.99394378630885 0.25490045296146424 1.2550135599550902 -1.1966140369702747
Ni 5.630093064198385 7.7119756280016745 3.627908103232563 -0.9138402546373101 0.3710122430560836 -0.0926162780758405
Ni 3.0960335218752744 8.442120269033083 3.7777082569428986 0.31435155713924573 -0.6259592329847671 -0.4476719978026677
Ni 3.686458680912305 4.4432943554896385 9.633907863180056 0.38716391311528164 -0.4820311920088278 -0.5165132849460976
Ni 7.173686894315088 6.211843862992726 11.426315020586843 0.13611960067511394 0.137421350205673 0.3149969040327285
Ni 0.7411487123861045 0.0435315683063688 0.29629303833334375 -1.2771340460032135 -0.07248274055075904 -0.4005300500095425
Ni 4.4517340296071355 0.11954008578359934 1.7788395914538337 1.0789104769085032 1.6147389172434448 -0.5084551905283115
Ni 6.098066224221545 5.89274294384645 0.49582950044455903 -1.0730912991235648 -1.3396113386018282 0.42038179462814695
Ni 8.165641960777526 8.60449598849796 11.24877225896193 -1.3766352241243454 0.791420777157108 0.7517607395633247
Ni 9.162597646984448 4.971040266321426 5.950949616088891 -0.7067744046606215 -1.1779753388231649 -0.2147395644718624
Ni 7.99557575751788 8.922270028397959 2.3769425973404297 0.6486864993789537 -0.30931939403197695 0.47346273361352653
P 8.501234093413286 1.6298590339037857 3.5685911850901735 0.44524024843272353 0.9223981715096501 -0.4161003936439737
P 1.8956681498525176 3.1639209967819033 1.5658772777037249 -1.6723272571808747 0.5913542413163879 -0.5210556529011414
P 4.6632855186892606 1.1797942305106959 7.935233441536188 -0.25114844211819976 -1.2604552997959517 0.6306589524532816
P 8.565872068124943 1.5906393718283565 12.282667541274144 -0.4722998236536769 -0.8077110296766992 0.7281153322302428
P 6.355796721629997 7.85883498403556 1.488486820004688 -1.241280526639714 -0.20688227321097274 -0.21076283921230154
P 1.6920418306903524 3.177722346221105 6.0571134953754635 -0.1617964366159278 1.5527784163802483 -0.25360641674038903
P 6.984836774650615 4.009955451711225 6.076348731251813 1.1005866763303562 1.495543088906863 -0.3894596511279938
P 2.496672237302069 8.38436040306745 10.043701430129065 -0.2889719407238765 0.7445022582286985 0.06777299377991555
