# total energy = -340861.4046628514 ev
CRYSTAL
PRIMVEC
9.36285662415921 0.00000000000000 0.00000000000000

0.00000000000000 9.36285662415921 0.00000000000000

0.00000000000000 0.00000000000000 13.70348708150977

PRIMCOORD
 96 1
Ni 8.85515579926643 7.941219267814664 1.4489105015217143 2.098886127154011 -0.5922155608754187 -0.06584209530578984
Ni 1.276990663007744 3.5221007092135523 11.491237206862662 0.7676810103380068 1.370176355872879 0.045250901417999485
Ni 2.125602543235401 5.060680225675559 8.898044236970641 0.8673847913882481 -0.5360181877482446 0.9068836208138187
Ni 7.485585209169107 5.253864048050081 2.9144578631208433 -0.28570689681935957 -0.27211475995722173 0.15530980045031964
Ni 3.4290900907155875 2.4276295747944254 0.45383077244435815 0.2684882189482279 -0.9782970395597991 0.09499069184528802
Ni 4.168886850328854 8.505509278510642 5.716162588097576 1.7149800588543946 0.6830647197485075 -0.264425361732764
Ni 7.7164826183475155 5.795627025516132 6.422208121864108 -1.1060659542773725 0.26502108633523386 -0.1456023433545686
Ni 1.6313092492588497 7.571882659410273 0.1912372844657522 -1.8721598226339176 -0.5630803340723594 0.7622876072365775
Ni 0.4322559417412315 8.75004836990684 3.656144983502657 -0.8857820629485131 0.3169110903363058 0.11721247935796587
Ni 5.6631519660106235 3.403941457608527 6.559297197153367 -0.7693031193224622 -0.1519437121915641 -2.2973832616250816
Ni 3.5460508966624946 1.8758202520849372 5.493439889107468 0.6056117796766667 -0.25910677773332796 0.9785945161955597
Ni 5.473937994878616 1.0022938101678216 2.0822309821252616 0.028387035783125302 0.21725950268023875 -1.824505196870432
Ni 3.893403517525792 2.944140927729671 8.738960874997913 1.1826992266613954 0.5276212219338009 -0.889440485636707
Ni 9.342501853568582 3.5050041328719694 9.236342039115458 0.14768288003268115 0.709812677266313 -1.898251891735279
Ni 7.221880350099732 2.6989745249343007 4.321229891760341 0.019064215720302653 1.054748534950319 -0.03365728304312913
Ni 5.308337148354204 6.181732510277464 1.8187264881893523 1.408394004593181 0.4558596758197826 1.8350886288132333
Ni 4.428696761009348 2.906708226626906 3.510723902032469 0.5942228211134347 -0.6428215559577445 0.012808464618577943
Ni 4.597761864514256 7.912671917724037 3.2846848791977883 2.6441669711511047 -1.1251461108372751 0.29257842712821225
Ni 8.458226852155224 0.8068151516151377 5.732333177911129 0.06842014044561119 -2.061187584161973 -3.179613859776911
Ni 7.107269621185539 9.438321329077759 10.585272211608718 0.3272554096851074 -0.39444296327519807 -0.7747625997751366
Ni 0.6881718403185139 6.30980702713207 3.152884881660643 1.7621662296218943 0.40065217740970355 -0.9608410488668805
Ni 2.422489366463906 6.790037310339148 5.071702180587558 0.5376492955937644 1.9975970038945212 -2.4462282802866646
Ni 0.41203778897452065 5.166227709300237 12.812706120642963 -0.46820534186932916 2.498127540259117 -0.6485345471821218
Ni 6.90450759640278 6.0246237747836195 11.939752685556135 -0.3226505639232443 1.2098685879873357 1.6897629361588187
P 6.9109117903883455 2.1116331610329686 10.105609317517905 0.8060403268424957 0.04344110190277034 -1.2303145145465133
P 2.740854582971486 7.299947849298043 2.3950131271802206 -0.9142788848366253 -1.457869485615489 -0.3724847138365521
P 2.465717675866473 2.782079241039388 2.4951170459171683 -0.5259988558390296 -0.5213112205553732 -0.5166066159908522
P 8.35737015973927 9.088431374047666 8.595060321456463 0.18123911872157175 -0.7752979034533164 0.9983105065672483
P 7.950713204512565 3.570075986965069 6.775675624440817 0.4025936174067905 1.3036472618023935 -0.5067235525491854
P 8.312868501824953 6.962379413690471 4.0027747918284025 -2.0415119601099163 1.5204295677358977 1.2972943230011722
P 4.791301475443532 5.080370313324162 9.100746339470493 -0.025698947428000902 -0.6461629616261517 -0.6047178071074876
P 1.6856512695691164 7.608444614839562 6.845974761431783 -1.8285469710399735 0.010072296634337492 0.7137840032092353
Ni 6.8874203829179015 1.4984784011985892 12.569866387738548 -0.5883604487953867 -0.1278077383753089 0.6283452167184405
Ni 3.0311125036535285 8.699226783717295 7.921397163886534 0.20299733633426978 1.322285188618555 0.7085872894996442
Ni 4.59654469314273 4.120537058309175 1.4209829725448944 -0.2507180394490005 -0.016240116007946226 -0.23292420580068915
Ni 8.415035994179473 7.236851557969496 10.391436734407593 -0.17327744067233386 0.28792241641343963 0.2871870809093119
Ni 7.170777878209064 8.70324344924333 2.9861267860476115 0.31336785306973775 0.34545830584637927 1.0105152761635563
Ni 6.12853275848509 8.807985727191461 7.888233925440814 0.9373229111402824 -0.30692055478249725 0.9184594985768763
Ni 6.6080327388692535 3.550516979310323 8.540438351730746 0.14859536454462152 1.0910990485548953 1.5942335982012417
Ni 3.1786336738824326 9.490940583754481 0.9795514312337007 1.114766310264848 -1.1201638271313352 -0.7788028312827813
Ni 0.9675857003659335 0.7987705851350239 7.916833707528983 -0.7223216083666012 -0.8940756704158731 0.3874300222924747
Ni 3.783652111240998 4.807096614703253 11.015931786281909 0.48683452693474216 -0.7671557339621562 -1.3566361552945991
Ni 6.146528169070261 1.1194137846786976 5.726906466165465 -0.7312034842372632 -0.30094556814598494 -1.4577545573041797
Ni 2.1417628339065797 6.458058500183889 11.773460860206965 0.5761340819325238 0.8275458050144393 -0.5743661913988237
Ni 3.196732075891348 4.193763960591497 6.517378751403696 0.16892224902743166 -0.3402258538028463 -0.6684713953153648
Ni 9.055474118449434 7.945338924764443 5.870231204019618 1.733201209848112 -1.0420544844224182 1.1242935330289927
Ni 8.958343843001689 4.8879916966261865 4.802099658080305 0.23144530726231755 -1.3275844893442814 0.2815684491709538
Ni 7.976648317582764 0.7048573872507892 0.9376011517712352 -0.5208121694317676 0.459011591185203 0.599851737264438
Ni 3.84650496829524 7.0005236919027425 9.516592002266549 -1.3146564684287034 -0.5049410067274659 -0.5105346987651594
Ni 0.5435559645248743 9.366695475291829 10.727816087213753 -3.084842997251913 0.41492591371989834 -0.1921483094349078
Ni 1.1975000095904176 3.042825437390286 0.061511159688552426 0.10326424470798991 -0.6707841026089415 1.4966224380139708
Ni 1.991339178099422 0.015976778679779268 12.581335887201 -0.439946604133952 1.2306693267827709 -0.18644894505728535
Ni 8.783661025474355 2.278320098935049 10.997418609721006 0.08530868867083372 -2.226551940634817 0.9325972235298391
Ni 5.135143025042814 2.373315643054271 11.033883191440573 -2.2052482940610343 0.9506700218711499 0.9433444347440141
Ni 6.758091243264953 3.106108985852914 1.5517689727009918 0.6510845672974851 -2.091765199838514 0.6811939850883559
Ni 4.467861590602361 0.21988575340878347 9.549919090704591 0.8111583647953514 1.0754500291637286 0.08631630399974166
P 8.860005759039126 7.85666330892045 12.820599008844471 0.28110307949876107 -0.5399175228026507 0.1768124504087858
P 4.969823064219523 0.6224839102542878 4.019602654182579 -0.9319138243095693 -0.5394536957923548 1.0603715375640512
P 5.8399882405798875 4.480136295741362 4.307115385278996 0.3134701829755569 -0.002610698149969697 -0.055502661052994735
P 5.425522662862009 9.19232163203573 13.847237182728476 0.06879012219052023 0.5844803970146901 0.010140945088743825
P 9.726603686995249 5.291905334838608 1.1504497820812598 -3.1632791271726295 0.053830158446578256 0.16252971523752655
P 3.0205792898614794 2.176190058007346 12.008900191172504 0.07544542272350878 0.1279540341451861 0.2132061585464715
P 1.757352026208679 4.903140798773328 4.839153163486556 -0.2108335445492369 -1.9533668304315517 -0.11626991293903846
P 1.9808153271640774 2.6233413684790396 7.461192158598064 1.6104433751918845 0.9674966065101853 1.4938970686630078
Ni 2.9222973830391386 4.7185146274263 13.111250169508082 -0.020527173419074327 -0.8343260611610663 1.1912255189648517
Ni 2.081775011003775 2.1530731648050634 9.977399039241089 -0.02250743707389672 -1.9538008326451772 -1.5873116742704276
Ni 6.755141943403179 7.6046807464445365 0.9295032170079083 -0.9602363254033462 0.3172594748146601 -1.3472855673176345
Ni 7.51076193084628 1.5424651019941842 7.535342238551404 -0.23008750768284245 0.3658083302576409 2.659577135058587
Ni 1.3920039947602103 7.289508264073035 9.626836831099647 0.33775656632674733 0.6356898300089697 -0.45427459072084986
Ni 8.413556662820234 3.4279571850543977 13.012735127553812 -1.95810948732286 -0.5240569016213104 0.6534471539923908
Ni 0.4097701050808014 3.724169882600212 2.847680096536266 -0.5194278874897312 -0.5493640129275313 -0.3864915696386053
Ni 4.277524076665867 0.11749355249336735 11.951180988449089 0.6955433118314924 -0.21792850372280534 0.28713900128019576
Ni 7.189232068772733 4.207031128541126 10.79438787095084 0.4858945316189761 -0.4555711980450864 -0.3258726704049678
Ni 2.07428472564054 9.428022186703313 5.4275946630506136 -2.0233484018270125 -0.8164797770082648 2.1117372720850667
Ni 4.025401071339393 5.349412000714842 3.6004818641114493 -1.1296337142949835 0.25252938162612637 0.7396914671036164
Ni 3.6755111163092993 6.645109651417264 0.533308317862299 -0.26250089101654145 0.5327446592032955 -1.0481839943589237
Ni 9.114132415700265 6.1217165988045465 8.310877022204004 0.3650987057851261 0.844902551125332 0.7292432751870989
Ni 5.67317022268395 7.58625464445098 10.55417910078026 1.0336423490993232 -0.2538650697184144 1.1648159186230713
Ni 3.650296943205311 6.5343751451785455 6.941268044394194 1.141265384996641 -1.2015690669827048 1.690682619759611
Ni 0.35389257627107173 2.4238282549725843 6.201183845080113 0.07150674979073492 2.0857521608752143 0.34895140660130225
Ni 1.0328729001632264 0.8890893823305762 1.887477008681471 -0.15159404216162925 0.8394695530352188 -0.7355391354981397
Ni 6.823097557361124 6.046869922312426 8.559170619138525 -1.2949319934165828 0.28830036857814867 1.951769404037445
Ni 0.8738101364752483 4.750647951634576 6.995575422134656 -0.24058557900068891 -1.0938678695492838 -1.70480928896898
Ni 2.8034452800380145 -0.23183837627716497 3.304595930264607 -1.4503500373099925 2.744849828285163 0.47676608695514666
Ni 6.846598327688273 8.267524186807274 5.502087423559321 -0.7755264745243547 -0.8926368810868175 -0.7683219863561155
Ni 6.917756038639001 5.071859476580186 0.6532727282398634 0.39952757688695706 1.153836279683116 -2.1854639123452553
Ni 2.194634885714311 5.007040419618095 1.8974671767846851 3.4396989422631083 -0.4997736035939135 -0.2834217003296086
Ni 1.1623518455234396 1.8215156832014867 4.190910161868104 0.7633196480455176 -0.16577239054454032 -1.263041058245257
P 8.510724389694794 1.3528859794507182 3.2739550454149553 0.6302534894847468 -0.9843339897824983 -0.987926592229763
P 5.623322373591624 3.301979948101497 13.251354084656045 0.701960785322062 -0.05619197381053548 0.45428050425812083
P 4.654781661841879 6.24908890140635 12.402436975299837 0.8556541332148812 0.28211557992367536 -1.2786790218928301
P 0.35402459255059876 5.273563498555388 10.4340817378375 -0.11703430190888876 1.1661549491494692 -0.23977542439456773
P 2.474743469729171 9.202068365864639 10.248029603414446 1.9071905889858056 -0.7622359280630356 -0.47619684471523793
P -0.1141416497933199 1.1879967100358138 12.923635374301126 0.23502222598029845 0.5578088012607748 0.14356860075399144
P 5.839407743464236 6.942221183206666 6.885920453273913 -0.7735449253179516 -0.39455429204208176 -0.962099346754014
P 5.004362642600739 1.2146808516423366 7.419136078854842 -2.0967356564699116 1.015579063839709 1.5239334671240978
