# total energy = -340866.6487090468 ev
CRYSTAL
PRIMVEC
9.34594105888222 0.00000000000000 0.00000000000000

0.00000000000000 9.34594105888222 0.00000000000000

0.00000000000000 0.00000000000000 13.67872944187605

PRIMCOORD
 96 1
Ni 1.0419228892757983 8.654547000223829 10.885710977970616 -0.4694844656920689 -1.0239328351210433 0.15819226420443722
Ni 6.372567271933732 4.738980894162877 4.253332153095353 1.3064569633370466 -0.07689578201679013 1.1013410379978774
Ni 8.560209071513432 1.5969409430102586 5.275270616676536 -4.1243446333454905 0.06048597320019906 -0.2543114132272136
Ni 5.839876671308955 3.58228050315413 8.322522164761333 -0.7816747535139377 -0.18142423814918432 -0.20787600458280972
Ni 4.533304770016878 3.0500011239344698 0.1620399254984015 0.10730421910531844 2.138191352511537 0.28205284500654004
Ni 3.439184800114216 1.1539713762293302 1.0556025431546776 1.7247965307241842 -0.9816055351077417 0.6618441198068343
Ni 8.501946475161082 0.2961971705416218 12.352494738696526 -1.063126474601369 -1.419671120168897 0.4296156545215892
Ni 6.875500396333633 2.259044789013763 3.480265818485468 1.38539008749884 0.9502298490099377 1.2394961810457814
Ni 1.3468435611705294 8.86306429044155 5.927103273493125 -1.0042386991262253 -0.7479390518243894 -1.0208205147443064
Ni 4.24453388421404 7.634400153537215 5.438635796612339 1.2251193434988192 -0.3532564617345593 -0.631125864787371
Ni 3.2449948374884348 0.6465652844546727 11.718184786708461 0.025875067994548986 1.3094831517578802 -0.48191677791815063
Ni 1.069138269541766 4.155448374359919 5.628004188263116 -0.8595483260629648 0.3764226154383775 -0.3836134767598619
Ni 8.573620496884883 0.07475911685628465 7.446166359126923 -0.5197022241970405 -0.39480805992410073 -0.6602227821533274
Ni 9.076777923869392 2.367326861734058 7.591161157383197 0.9202441012811248 0.5489230687353708 -0.6860741959987926
Ni 7.658110805918658 3.8126579494302626 6.431985026596822 -0.4376511232315559 0.7302141237408005 -0.17533072365693675
Ni 6.853836505036754 8.896597526840688 0.9790480710274135 -0.18979343604948604 -0.3666269695041944 -0.18220251107610555
Ni 6.293809026912679 4.561454744385386 1.3673476211861564 0.26610377787645134 -1.3540164582835648 1.135288855698232
Ni 1.2028132640280755 1.7764017025800074 5.553933867260403 3.442712275168135 0.7115031775948585 0.6203915090890025
Ni 7.144448541221596 6.674114059118294 2.6526341417928827 -1.0013356665468174 0.7837226371819018 1.108882083569929
Ni 5.278746372143883 7.395742203512577 10.583123052955825 -0.22245441661761686 -0.14910161475707873 -1.9773495664993945
Ni 2.132033450478564 1.6568203871600022 7.988296360187354 -1.1262396010117701 -0.22101691284014194 0.888936806527411
Ni 0.9248509590211136 1.546762585644881 11.479490387513826 0.17464321067160887 1.6598226969559606 -0.11900530959233052
Ni 4.787364830851378 8.352336651226464 2.7564694157732923 0.6902206140669984 0.5060427244320769 -0.1647308366539034
Ni 2.868783327451945 7.124681875952874 3.5077737267055307 0.621342303038046 -1.1971809652173382 -0.7840530239381271
P 5.067397261795466 5.683173278136057 2.956274419767134 -1.4480730683503578 1.9725385182639967 -1.2957717157090585
P 7.821636736040098 4.092026818561547 8.834899362567402 1.0126312940652946 0.4351862066308312 -0.57768574269036
P 7.125083751416966 2.065013707385414 11.645003264697264 -1.0768363679882937 -1.4659581761608946 -0.20854989072138275
P 1.3813768132593858 8.585760874276877 3.386224156105576 -0.3059615333033376 0.8834130484957045 -0.012805379294784399
P 6.105217282961114 4.764224280872485 12.888508755949937 -2.9657199311347955 -0.2772690504646515 0.2975542830762488
P 8.450440994170098 3.6405337535654536 4.309976032462103 0.7046097929091348 0.6259702887283607 -0.036032468143525044
P 3.0119351061380115 3.056113369365082 6.523153746705505 -0.00044608639848310274 1.1938842967439374 0.25196785269570154
P 3.372604316249259 9.103488623319988 6.742314194562952 -0.08229021355948409 1.1372773468831705 0.20028456538879702
Ni 7.8166740413556095 8.324653973909227 9.548491866868044 1.2679564932690033 2.196679835665733 -0.5634207481309135
Ni 3.7824144842720653 4.944600942662722 7.810020665939627 0.14704730333121124 -0.436667419162048 -0.7885208299014936
Ni 2.469954640133986 2.849502651116543 12.77656213975358 0.17078038528209297 0.2532153519495574 -0.9140078905634259
Ni 7.543744525590826 7.175075189961835 7.577222620937915 -0.07786534501891106 -0.9648020903971578 0.08063596578551274
Ni 2.6984535522640134 7.009530536578908 10.101768771789473 0.2584766003484968 0.2991180280189429 -1.0322223288233447
Ni 5.777109331382363 0.41852338884078716 10.674784304156548 0.20487809829675036 0.43034430515749755 -0.29652275648794096
Ni 0.5472095200077377 6.740731926747351 0.0983753752333703 -0.6608087365637846 1.1779586266526165 0.11434878465692565
Ni 5.352523230598397 0.8854503408462282 13.095057790987708 -0.24629959866633064 -0.6511740416874979 -0.5000731371122032
Ni 3.708086215297051 4.983564170797619 5.0468081537165075 0.6435131827081304 1.2539190413393309 0.12581179099120268
Ni 1.3165814041302812 8.567713862156829 8.346144965297135 -0.757299924213999 1.0522543077735556 1.3318203818025
Ni 7.2069355029174265 9.241490788501059 3.321236220591348 0.44546342018712315 -0.46848559211390933 0.623637526830126
Ni 1.2690666399571426 1.353105341657548 0.5243689747357604 -1.9866397335520687 0.4511105911705715 -0.37074047745193567
Ni 2.94697147007045 0.5689033183158984 4.287501848078321 1.124014311225677 -1.599239021835633 -0.45090901668272665
Ni 9.207200530878863 6.525242564524682 4.106573775767584 0.5499687363910658 0.47225200113487703 -0.2888927507465089
Ni 2.709079887209894 7.169897538633763 7.201905517457557 0.5213181625339086 -2.262803980988316 0.07218603524594665
Ni 3.0124024031892818 2.856474723121493 4.398792379214693 0.20922403397027192 -0.19165928561363121 -0.7272108181381024
Ni 2.2635028028828788 4.775626328923474 10.544426184140152 -0.12735728110145164 -1.3602619249726444 -1.0918840063500357
Ni 0.07709934048904506 8.593312394625402 1.6542371690605817 -1.4398195700923138 0.6525639800564891 0.4546643699601008
Ni 7.403695599325192 1.7939533798257106 9.164325091830733 -0.08154253676018215 -0.3852461272672784 0.8678727867682602
Ni 4.76037375317002 3.437567952316821 2.783375445391319 -0.65799646392597 0.12178852876442252 -0.12757608198047704
Ni 7.258029762503294 6.079553328905362 9.727997486954713 -0.35687914608881116 -0.33581846876377003 -0.2173687745645934
Ni 5.624592919788844 0.6153227382008597 5.2604834687861475 -0.10612305431302368 -0.9114339591886625 -0.4310714131315092
Ni 0.2650723831447291 6.531149199252736 6.614444898641622 0.25417745875251063 0.04345472874952516 -0.08438283442245467
Ni 6.055880060288022 6.587168769758989 0.520955837073284 -0.44802501026671226 1.1514811491873782 -0.3056697130945316
P 2.7375663154553163 3.057225536347105 1.8164939203907724 0.09058587790937302 1.0383577522971215 0.027653757161526564
P 8.725968681539944 5.829998011645107 1.6166748974853928 1.2725752229879372 -0.21303646573782664 1.5079514898735449
P 4.844842368157593 5.072322572715852 9.748310889773423 -0.14523416138187245 0.941470871870385 0.27825943940237885
P 0.24509917257934474 0.983753752333703 9.412142064060264 0.16360057970420214 -0.154280844965173 -0.30275691032311086
P 3.431661317588768 1.8483093728294422 9.853964883877376 0.3596333117951806 -0.32481363301283417 0.42605339109162754
P 1.9549839436933687 6.261303844026334 5.207410673485202 -1.1007489129398333 -0.4877130728849536 0.2563580113435972
P 6.2834537242565345 1.6241843610993023 7.124990292006711 4.923573079472476 0.8149808238652351 -0.48625885693693033
P 8.296223621309958 8.826624466383512 5.3205059058335795 0.294317521306506 -1.054192662446849 -0.31029538479200114
Ni 8.285270178428187 3.2861076320591733 1.8837529195741727 1.45645486465615 1.369022958994726 0.6425701020685708
Ni 1.5952119439205594 4.401012974802328 0.550340410251247 -1.5478591247017601 -0.5240859550870329 2.196913548943094
Ni 9.329950120306478 5.877886613459261 11.44366646096936 -0.7185978796581108 1.4431825730272758 -1.2119977185151964
Ni 3.6744782113697094 9.103535353025116 9.206017334745047 0.4637956428374077 -0.03247817513336342 -0.5442133219645272
Ni 3.134507122686145 7.8368332361474 12.257222215883589 0.30061441005881134 0.043290435257518994 1.415584351694033
Ni 3.687095231754001 6.01202890499684 0.45831092897412395 0.5711546264400614 0.14040537253466143 1.447453689598804
Ni 4.816748469435238 2.578545128908119 11.537296901944135 0.06889502319950071 0.7660265054537194 -1.0408334675311235
Ni 8.571947573441335 2.5579373289471103 13.259653831356555 -0.06343682829840688 0.7106850525689373 -0.4166164140484438
Ni 6.961978388641668 7.081998963289867 5.40993721550564 0.6971962740538832 0.550729011595858 -1.9838056065373837
Ni 2.0904346669745046 5.733632013732197 12.616275512791544 -0.45002250031271523 -0.11456655709468658 -2.045535479447013
Ni 6.368286830944099 1.9785263691363535 1.1151997398854545 -0.3963972587880915 0.5629738904014822 0.7397449460493711
Ni 5.080986260046398 6.9390154115422575 8.342807529756966 -0.2139659195306315 -0.6945212983248813 -1.3628844501971562
Ni 4.394975496899919 1.5116685770945004 7.42921842967146 -2.9638376265104185 -0.03970863144353161 1.1393887367992184
Ni 0.36051219830202097 3.368959399249353 9.590307476203893 -0.4659463706318233 -0.9100540481220004 2.6422756676656625
Ni 6.9433332362959925 4.1694766318390455 11.049185505416416 -0.010903020065748965 -0.9285150830406653 -0.518031778473153
Ni 2.300335156463984 8.196792154740717 1.15472185529367 2.431185527020929 -0.8771842939771732 1.5043866553404222
Ni 1.3565913776600227 4.408340192566243 7.955740709219473 0.7849379976462418 0.1844817940285855 -0.8612848491380972
Ni 5.975131129828558 8.047126255159947 12.466561014317442 0.8918791769851865 1.0403413583860535 0.5729798525742583
Ni 5.305690720120113 3.0097201181149917 5.580073529714348 -0.36458679914571407 0.37084152180617425 0.5322931734881736
Ni 4.140438793073125 5.815642646230091 11.766552835297219 2.1715534729117505 -2.0793200320966254 -0.21605699773170534
Ni 1.329095619163293 1.7933458936590594 2.840005305846531 -0.7337547899042073 -0.3096631505246409 0.8994749870545735
Ni 8.050416026400887 5.140108682973085 13.451074591656509 1.5553070963393731 -0.8519466024563068 -0.9156145729289135
Ni 1.708652976086876 4.634549349145047 3.2917310847741574 -0.4799552833164057 -0.00980130236113796 -0.6496190384955521
Ni 6.227490229396434 8.980608190718018 8.121635835390853 -1.674203134047349 1.6793815929244948 -0.3199272514548103
P 0.5456515516388034 3.965323896080187 11.902655905261929 1.323830421618488 -2.214270037943671 0.7783755139373756
P 5.115669047191662 1.3506006294627406 3.079137095081157 -2.145741654054969 -2.670817998079729 0.3280007724915641
P 1.1546816677472607 6.4220072999581035 8.615684708252006 0.06930357149182903 -0.3829899842432501 0.8982796811948917
P 8.282700044646202 1.1809998376747899 1.4863990217500214 1.4001430774382984 -0.8790018068018861 0.1433791104510047
P 1.3982181989871583 8.893102144897188 13.153781142232608 -1.6431467789621768 0.16040855512946567 -2.4940471995421567
P 4.540164690729522 8.340046738778062 0.5094248150361443 0.08088844811595101 -0.09043855369823134 -0.013562054955150837
P 5.507404165271342 5.826250289293921 6.209335738954593 -0.8859980356140612 -0.9207099851739499 0.9227241873905011
P 7.927778588265576 7.607081967919968 11.390442261423804 -0.14577974947269734 -0.8536260470412588 2.396366362459215
