# total energy = -340892.428663915 ev
CRYSTAL
PRIMVEC
9.02930545483951 0.00000000000000 0.00000000000000
0.00000000000000 9.02930545483951 0.00000000000000
0.00000000000000 0.00000000000000 13.21530122934081
PRIMCOORD
 96 1
Ni 6.341290069085648 1.9726684235867784 11.355445636887284 0.6358433248676985 -0.07370401455236984 1.3832439876901146
Ni 4.598598048863826 0.27957798853358684 6.032322595066684 0.2825516390198295 -0.13018343769633708 -0.4771756636887395
Ni 2.801423201083929 1.480914403953398 4.930629077147224 0.22373919686731142 0.7326849538787963 -0.6248006939002917
Ni 3.5914783765071805 4.364269520393966 5.160389680117973 -0.683195846009733 -0.3640286126493989 -0.6042658071717335
Ni 5.233674229887545 4.854696232163403 2.5342325163499644 -2.137099404998939 -0.3583937829611247 1.0318220080611327
Ni 7.233900092935252 6.154482773867056 2.58664402129587 -0.13405371928502074 -0.7643825420923932 0.412843834379889
Ni 5.392003096515126 4.266409910670001 11.822473807169484 -1.3408824920047682 0.7056546892338815 -1.5205460387091039
Ni 5.692254582227527 8.1735076503347 12.112484254927564 -0.40484024734912216 -0.5955381974907485 0.3636540029187995
Ni 1.713978829695692 6.61157329084955 0.3388057159726298 -0.686592787506424 0.39773037577721826 -0.1966917058312161
Ni 2.4314203327255015 1.4740250440881661 0.3513582560573554 0.7208982456565133 -0.47085409234608583 -0.27352835247529667
Ni 0.6307962903603904 -0.11595704613010464 4.713290089335845 -0.2879843799996266 0.1958213874111208 0.060016232652632125
Ni 8.6730629896582 2.231764336211725 1.405565755015816 0.018700404622980695 0.8524595375369836 0.20827092602838324
Ni 6.734705925819628 0.8027539902521671 4.776062721995189 0.21501852916486192 -0.8788580821351702 -0.030724425667050314
Ni 0.6960519819488815 7.1072279703279895 2.659130380486036 -0.0953511605085003 1.0386457158511853 -1.0334186631242912
Ni 7.5027747430884375 3.5502866861989384 3.6777651257602835 1.4262312898849179 0.9929554129029221 1.0034298300716846
Ni 7.548697789319854 4.0506004871589765 12.794948938416157 0.5887384009600957 -0.7185292312037045 -0.016033656424094968
Ni 7.811369306802771 8.945748006604477 6.964000616642218 0.4040226365438332 -0.12586372727506065 -0.011141361328800168
Ni 6.639266169888432 0.860574049011014 0.43782649434491555 0.5175903200603602 -0.002547963232834321 -0.5785948847681907
Ni 1.9721808411061459 5.98275441832728 9.289351895358736 -0.43885774194514743 0.09108672880519152 -0.8897261351979256
Ni 0.13948741547321708 4.872483963401289 1.4763735663698787 -0.043052865325416176 -1.043367803917203 -0.4835113760987802
Ni 6.440404752231982 1.9759641199836457 7.035575016007498 0.23737864202761702 0.16867722289616113 -0.3175186420133177
Ni 3.490621037457846 4.496286991677791 0.47252792007762845 -0.17310389120894704 0.4846380335040556 -0.594465276141544
Ni 5.851585701731964 5.561871415184341 4.8399450562632325 0.8502735856292583 0.3346473312738043 -0.32274620896084416
Ni 5.387614854189435 2.7240059383257376 9.175330732262847 -0.21601226053669897 -0.05849002581609281 -0.41048613278098983
P 0.23865537152021227 5.490539904128858 12.440408755207413 -0.9393304284886145 0.7908235098927413 -0.1636939107489568
P 4.138609124913128 6.251466540986922 12.269733216653595 0.49575574068377204 -0.7223943705860656 1.8670114456637585
P 2.1563154619864573 8.456567338952212 1.46703094428265 0.9263977795873466 0.26854632587967303 -0.11337459366911443
P 6.386590093258479 7.758195728498247 5.592028391611456 -0.3491812632239212 -0.031195965986830148 0.014141067387072421
P 4.609749240781992 1.2554255652713002 12.52188107892953 -0.2198437184676472 -0.11499361732977614 0.8810579179999665
P 4.108117161263208 6.0513590792133005 8.16015782260109 -0.03321171086527829 0.07193586690835353 -0.2775600993425091
P 4.661405895813438 1.1025865162034323 3.6674969998903726 -0.21857847860197838 -1.0410316995848587 0.8847204544532182
P 0.16172207952057485 5.235344651348971 3.6298601470381486 -0.025057200078943943 0.08930341165252362 0.5078047014285061
Ni 1.5622684437774361 1.156988080014734 2.7553376273589687 0.019165002964225058 -0.0024163227509764835 -0.8032553078981909
Ni 1.7995766429622715 6.255376230137178 4.628368571028513 -0.38401534018397093 0.32172933766055556 1.6325360933258657
Ni 6.145435410059766 5.619297796236603 9.259115461045889 -0.4963072423118678 0.915597603648049 -0.26138271825169823
Ni 8.64685091667161 2.3108249325157515 10.232660564958394 0.5558365080257524 -0.44526595946433645 -0.0539186043953265
Ni 2.248631078319528 5.368897104516268 6.917840099684124 1.2324935244757032 0.42395202847790864 0.47721243046394596
Ni 0.7415678065159172 0.016764710959077837 8.78673471864297 -0.14407356541486802 0.6137084406418721 1.6983067119637718
Ni 1.4273435362202107 0.9778466649083064 11.291880231231652 -0.20635982504859943 -0.26254074311554143 -0.15744458740513528
Ni 3.7189270193613755 6.830046359393659 1.42632773938556 1.708553843613077 0.030023800055599906 0.3285345335078471
Ni 5.722529842552722 7.812497969952383 7.7733983696582625 -0.7491528696268324 0.3794673158019723 1.2758137845298931
Ni 5.462657409680841 2.906966749530453 4.951442528556591 -0.7872082817376572 -0.15970535841485398 -0.6283472736009694
Ni 0.8180803328933793 7.579216840885364 6.915038306281527 -0.643034443299499 -0.6801732571333253 -0.46401315816485245
Ni 5.24721818768289 4.50018765152285 7.182608221833761 1.0405210784970274 0.6990364125864155 -0.3579453825697964
Ni 8.430526822764362 7.1923382011139365 9.261640054778942 -1.32833370880548 0.5109422186162232 0.5839281240556459
Ni 4.496747486242833 0.5628769537388147 10.289182209629926 -0.28725881468751174 -0.49943704619010115 -0.0471342344836414
Ni 8.194852927820165 7.008564752441501 4.550622641561156 -0.22001572526913724 0.032515199018885936 1.611780605946069
Ni 7.356418735151941 6.2859133403130825 6.989731427661814 -0.1309316287162713 -0.6731405186562601 -0.495108079797444
Ni 2.427023061094613 5.132202898084821 2.5836173981938706 -0.8715610342531247 -1.2752962214635264 -0.2779642767594633
Ni 2.2937053698624355 5.35902807393606 11.558207714388793 0.3947790064583782 -1.7111450013790208 -0.44427325653376387
Ni 1.127850512144349 3.167417057934934 3.978056340415551 0.049677055510153154 1.2624116521913742 -1.182922141305479
Ni 3.797825088171858 2.7930620644716027 2.760346182951687 -0.7870964387501412 0.5864022966277513 -0.49861660717133477
Ni 1.033819327823868 3.7052115047672896 8.121793207749995 0.0800124732689009 -0.8446840073566225 0.6451211506251986
Ni 3.944885381913712 2.7164122926551477 7.0360508603913745 -1.161019941915749 -1.3794904341849534 -0.6097499702147564
Ni 4.108180366399586 6.827292421308606 5.856690870890289 -0.3817725668963812 0.8390316941668517 1.0043410290320445
Ni 0.9174586717514622 7.260608777707672 11.05007995271136 -0.009667604996751093 0.31584305408310764 1.0335775572996586
P 0.15703496719286583 5.7790894103060815 8.015925507246903 1.141859309826898 -1.5270290753302862 -0.33060144333920477
P 8.57803858176606 1.8403891024522439 7.883944153183866 -0.5785318927407391 -0.9948971100103252 0.6701413268186202
P 1.6942317392300792 3.2803194901169284 10.238805007144883 -0.45979320654623396 0.67894298427065 0.03421161288470237
P 3.8049943564981934 6.164460156109627 3.837326492547241 1.3393413727698933 -0.6783858262155994 -0.9652453485821635
P 6.910244648152495 3.803314905731571 10.276785876525107 -0.5822710480681972 0.6433185501988211 0.9299063069612372
P 6.587582426941395 7.9765423867696 10.123079111227817 -1.108889796879413 -1.2541468410794205 -0.5775345618244763
P 2.442770169358001 8.557812938125013 5.911877984253721 0.31536997110143106 -0.24544239287235792 -0.7465455139109723
P 6.9623076219178 4.015946013813288 1.690633561109116 0.686192980964844 -0.2921148572282324 -1.1679434085084595
Ni 5.32629684259731 3.078857632563772 0.648314948303409 -0.31534066052539234 -1.129796722235409 -0.2640762059234613
Ni 1.5436500164614353 1.3125991257780494 7.091343616625609 -0.20948371538956181 0.0718384220985408 -1.666919198791426
Ni 6.930082031670077 0.9799595223243802 9.354014361595793 0.28794041413556865 -2.2166462514853307 -1.5579609890224524
Ni 2.7332158296265723 1.9313503230057798 8.936794547571234 0.6862739707144245 -0.8874594506509361 1.3659363496496024
Ni 6.350319374282545 1.863043629191257 2.571684268445652 -0.17674637305754076 -0.30162279671866765 -0.21665966431271075
Ni 4.015322991754702 6.906497486495782 10.272689280757275 1.2709567135479078 0.2545122163841101 -0.7494611448958706
Ni 8.033174188964535 7.030587227816732 0.5546801504810721 0.8066329661211721 -0.07437764358062673 -1.184897776974611
Ni 7.6256816454285925 3.9030255230208994 8.17894961257687 0.09900444099037144 0.11848183298869272 -0.5076054409335065
Ni 3.280057640266218 8.43466224454454 12.204264433462459 -0.922401771054076 -0.35807805149291877 0.6487862581816116
Ni -0.11845635780860561 4.628439902539569 10.369068987359471 1.096493737207905 1.6658851010999567 -0.4519636831994862
Ni 8.630706518979558 2.3540301578829013 5.610106866476682 -0.6020284332007825 -0.4736902762433004 0.8983506436421431
Ni 3.2729064305502766 2.712276870874969 11.419460701941722 1.4866879525090781 0.29672587363768255 0.9097504008386524
Ni 0.8440440999870554 3.317709842937277 12.48822163501654 0.8918537230638898 -0.30307289890163286 0.07942651885844385
Ni 3.069142100171912 7.992740960292832 7.980997445953748 0.639641101347234 0.5608329327990793 -0.07065597175466541
Ni 5.269592805960799 7.921933148938769 3.4696775640536446 1.1794719779733491 -0.12044512736265062 0.5231798983329957
Ni 2.888962314967841 8.14345812263943 3.611913500028797 -0.16178178132790846 1.1313617527296838 0.009546248927538397
Ni 3.8649670016159807 4.294599401494713 9.3798237275706 -1.5941153274558224 0.6292283906543421 0.639893326567356
Ni 7.228274835797585 6.0880722341438815 11.39371724989485 0.21055817940066318 0.6291936807616647 0.407913229847491
Ni 0.30786138413234565 -0.03662647360069119 13.802985085250285 -0.2677899073296227 0.2950081196156274 -0.42626319310958843
Ni 4.395167802777746 0.1126785054131115 1.4599077254128183 -0.26594025571539365 1.4382997910136779 -0.3164989424995517
Ni 5.92633931945707 5.732290521470567 0.4626977155097671 -0.5367249840072821 0.9326653577636131 -0.8901681078313507
Ni 8.063025071945475 8.5339936310156 11.58265636407043 0.37698851524417654 1.4915234262245087 0.3693140294180543
Ni 0.14497903889396957 4.922831369179184 5.96442221998602 -0.8777363098259011 -1.0078816951954512 -0.9785652056195212
Ni 7.656281960740876 8.554526271033343 2.7056475549994077 0.16817508644876197 0.4951577020884569 -0.6329400351779744
P 8.473199319124895 1.4117589554503673 3.5140936192476984 0.340455196204833 0.3520195040036647 0.010940558171903739
P 1.9213097356268307 3.26387712535338 1.3988795545175141 -0.534315346124525 -0.14442606365828028 0.8823149303355192
P 4.775825251268511 0.8212550366006083 8.121396821251851 0.10638402128389421 1.0680002577539027 0.03197141070027397
P 8.453596697542432 1.6064939806318352 12.462107981456596 -0.2315149841579884 -0.6613769503624287 -0.45901930449468686
P 6.130230060108192 7.854800264799843 1.1619523920119876 0.10172672501754092 -0.6825211885402116 1.2005370261737645
P 1.7366333564347054 3.217836698154404 6.045405155366467 1.6881205154593892 0.7531416790712514 -0.03981790332788627
P 7.060076938589797 4.044225797689968 5.9300097320196095 -0.1984472550697421 0.1269405052790072 0.1396273567180563
P 2.4597994389593474 8.395131946392526 10.032659648986096 -0.9064159371487809 1.0017133616012102 0.7625069223362352
