# total energy = -381170.3654657092 ev
CRYSTAL
PRIMVEC
9.20205874089833 0.00000000000000 0.00000000000000
0.00000000000000 9.20205874089833 0.00000000000000
0.00000000000000 0.00000000000000 13.46814312565312
PRIMCOORD
 96 1
Ni 1.9231750770152376 5.60961185320534 6.217366427733843 0.43929662925477897 -0.19547017471928915 -0.19271600901291971
Ni 8.075653187115211 5.484316620573592 3.2442336809292254 0.307184092856529 0.25836064359592276 -0.3564096626515604
Ni 0.976697319058539 4.866803262686837 2.0488678385871797 0.1514282060077263 0.11572638173074264 -1.1279478419521285
Ni 4.652100826746478 5.997662672835245 12.020034713962412 0.5118469898186798 0.6388067783713967 0.7616767131254559
Ni 5.84193623174924 6.310854744120611 2.5045629924617963 -0.5937330259612098 0.6330248815822969 -0.6678108789132305
Ni 6.9762924242419535 1.701893169032303 3.283008396098173 -2.3028813086251763 -0.6996668470815628 -0.29931728851394257
Ni 7.967703835322978 3.9839945495729014 9.228412577003652 -0.59729271828801 0.24677808096464596 -0.460996997046348
Ni 5.543025755722722 8.704024974386915 7.071825438094262 0.0931297273771493 0.3027142300106335 -0.05138375378861474
Ni 3.743848421048319 4.682734480494354 1.8371220241395185 0.7908355940775992 1.6208262610881052 -1.1724883475666645
Ni 6.302112788259847 7.580518009220348 10.915902683600937 0.8312517931111167 -0.17942931920634259 -0.055453552982614174
Ni 1.1279055492733507 3.8767813624847336 9.310608126830076 0.5126208918702267 0.2700889877764445 0.9058037574860788
Ni 4.64652437911319 0.2246967920039129 3.556748480686851 0.7771295573454166 -0.10315214461015783 -0.3763688793823066
Ni 3.1814922036135833 0.9692712576062901 9.272978147775948 -1.7497915101066253 0.03319602713599444 -0.8440499733170496
Ni 4.133279549498345 2.24080254064259 2.076248564548972 1.9911854439412222 -1.3617140840381388 -0.22180032797338575
Ni 2.3254062692571824 2.5605372757353266 6.585692634324225 -2.215261455322662 -1.0518048789409629 0.7476426036298931
Ni 3.268028364576344 6.968728331907693 2.4801453294338627 -0.13200043630041783 -1.0412535857876775 -1.5328793634634763
Ni 1.011775567207204 1.5300171147508854 8.88275196144553 -1.1243994624792377 -0.22358235957447303 -0.6792664290483399
Ni 4.044314045012172 2.5221002761243687 5.042189902400762 0.14806443174181597 -0.038694074136088205 -3.2465095931581964
Ni 8.543191390666461 2.5081223488059474 10.921976962615346 0.31986374520672656 -0.6874939591644547 -2.4896832661465056
Ni 3.2601329981252545 3.2081137597243092 -0.02065862200780505 0.8960775313372503 -1.3062337915826472 0.6324852070287429
Ni 4.52040096118937 1.8321759175340866 7.403357212569628 0.8796877771253173 -0.10834911543006501 0.596770784346269
Ni 6.033964794804419 1.1227984066389045 5.28652940912087 -0.35629344878867025 -0.43488255934748327 0.955571058717193
Ni 3.9832951931040403 1.4243866817764559 11.657594144181024 -0.9685268475469127 -0.4054660538585791 -0.20877537646862754
Ni 6.1602078394926485 8.846390026094154 1.5438671334519756 -0.682755930258837 -0.3278742742160288 0.5020878535493869
P 7.2948769019845905 0.5803416413609074 9.401343187223642 0.49517390003837297 -0.3443154504911876 -0.8184608119940356
Ni 2.028474235872838 1.6475090015195513 4.375718831076089 -0.8088474572739875 -1.0696534770866095 1.1142582602801778
P 9.543639223489876 5.238925318532551 7.903268258982108 0.10395484301711129 2.5293307053347984 -0.09979479810215071
Ni 8.203340955035168 1.0602980232638435 1.5053206293412873 0.5684415983842727 0.380682419155996 -1.0112904637666842
P 6.647153185054795 2.9618114538619884 1.467879292492576 0.7112866907086782 -0.7425664746585663 -0.05402736205904889
P 7.087057606027232 6.975040944245044 6.438539751422928 -0.5202958919169814 -0.16946886555952104 -1.743380721484275
P 5.799588357147939 2.634779486140214 11.93841797363456 -0.058593384163176505 1.3005056308496183 -0.10651566176575204
Ni 6.3564049351845915 6.8361266645881065 8.366302974956247 -0.8470393949626768 1.1968899163394806 -0.047580320882124515
Ni 8.941714153211683 5.066671979840301 5.416550819152712 -0.24515468642861007 -0.8581974684620253 -0.29546423331643956
Ni 5.538820414850754 4.136491068019826 -0.03334089944707316 0.2486051068710557 0.23577993008192943 0.524778096058051
Ni 8.50083431400636 8.10895543791532 8.396242793470542 0.25253838048719085 2.273726284327775 -0.9125557314979316
Ni 1.718088792521718 5.944474772966599 4.014839850673197 -1.2501528894286793 0.38563693494779394 -1.0225395543179423
Ni 3.8353260875871116 4.072683992295051 6.654003197626113 0.4544198580494626 1.7553106401526415 0.4824847346064787
Ni 1.5364125456174442 1.6280006368618465 1.927641756357148 -0.660779425987746 -0.6029560872213745 -0.5602032696348803
Ni 5.376192429664146 4.564672066080038 8.309049605509404 -0.3898802836051802 0.7386337152630634 0.14175982968002682
Ni 5.122473264408376 0.23442888939164325 9.747784137368074 2.996773972227123 -0.4717850888007875 -0.3635380461662255
Ni 5.707273303258273 4.015649631847667 3.08532240729226 0.5493169617396797 -0.6001116757940439 0.41152100180340745
Ni 1.702362474031144 8.201445330922201 5.31192985202873 0.5641900221967703 0.12673610257768494 -0.02029603124487472
Ni 8.043160717489572 5.153953507565927 0.697294287483846 -0.8954355268778772 -1.5477588516784697 0.838208426934608
Ni 0.06300097537382471 3.277497283082371 7.286103659123904 -0.5307569393493053 -1.0139559264139892 -0.765003977726476
Ni 2.3578251224124154 8.886934297170496 3.27759390469978 -0.943514384662975 0.34010115529952395 -0.38975532799154167
Ni 6.31244670029315 5.703896147678378 4.821433431975352 0.41431167717466705 0.3307819347811271 0.6294962996037481
Ni 7.110163975676051 4.439045559331462 6.770596963455821 0.6100582454837945 1.5973554316596748 0.9702024354771225
Ni 7.737072635598428 9.025259645064182 6.330283050866749 -0.545368518614893 0.5880881689706066 -0.854263937735574
Ni 7.9874146452743 7.389796138514884 1.743155200695108 -1.0092940021619456 -0.09849202013032715 0.6051929469716931
Ni 9.233713883078797 7.17629917227743 6.253797378526225 -0.5399465762683734 -0.737397528863117 1.3039228840612833
Ni 6.966694676912715 8.326998221200371 3.995607547779516 0.2856109946714436 -0.2508162555897616 -0.22171779556190846
Ni 9.49845711477793 4.4451649284339965 11.493040168087404 0.2220669513712111 2.0592587425703757 -0.5044180443444604
Ni 7.808287368657849 2.7426276152856373 5.267646784461621 0.9187824291339338 -0.2630644768294953 0.28279100872414525
Ni 6.869097641271387 0.9056629463516123 11.47329531051852 -0.3485873383936641 -0.8207586068892768 0.7954640939885462
Ni 3.0734692353509447 5.655309277210132 10.568775259869966 -2.6991117028181 1.4707347716139316 -2.061160073358147
Ni 0.4141147309773033 6.6114123886724725 0.31641647268916695 1.9394157675680985 -0.2326655528226638 -0.7065684592974025
P 1.8824467647628789 8.893228505390246 7.431694032440825 0.11786065446492605 0.2605892758161254 0.5108866827879395
Ni 1.044930585066501 3.317379005925056 13.268679556555231 -1.0315237600944236 -0.21188949661757703 1.747603244206055
P 5.086079121851196 6.088836671433612 9.81985190127833 -1.1052722547314835 -0.7460040395852056 0.6898902273107732
Ni 7.857196311184123 8.668459017121807 13.237811250307935 -0.7735757785558871 -1.49963628513963 -0.553110367343841
P 3.448673980894928 8.505186887819141 10.793288930903744 -1.1616182376213802 -0.6302064382968953 -0.24101572455957204
P 4.217202325761678 6.861505942760725 0.5285911030769457 0.31039025849865254 0.17484247116660853 0.20662850532895383
P 2.020735304421362 1.284542994180637 13.319966311075634 0.4896005197156535 -0.26964547248112275 -0.5553855365312629
Ni 2.5105332882117577 3.3055727644836246 2.935758584985152 -1.4968486950921642 2.3925914687978147 2.125799406605087
Ni 1.2932389397473967 7.2664793485253085 11.692947533887832 0.3216357495054848 -0.8428091589314131 -0.6037248470665989
Ni 1.5633193655509952 7.4861232900417 9.175118853458796 -0.5981494098613506 0.7962642212923384 0.41095613043887286
Ni 4.040025885610998 5.191875191884041 4.43936947180125 -0.7879009369293075 0.5049338076386143 -0.17870786765928579
Ni 1.9449931584319438 2.5909960903659885 11.154262692512283 -0.5882995136504642 0.3240045068479775 -0.3804836728816286
Ni 8.955103148766852 0.7511281718803098 4.243394145726407 -0.049398090817153635 -0.9343512301064683 -1.0175999509244797
Ni 3.9289294297088904 3.8002846476736503 11.283651000898628 1.619130104332605 -0.5754558249185766 0.13455971238716183
Ni 6.789380205880022 5.1192341397104935 11.189912388512479 -0.25918571060037937 -1.2509108506406261 0.24219071870427966
Ni 4.82186040750371 8.583109921744349 12.496161198992453 0.10843241917249068 -1.7095961688346621 0.350930384704544
Ni 2.5294343169886093 5.361680782935277 12.82894537367061 -0.5654339219062003 0.16796656998238169 1.4342122512078654
Ni 4.575806557229011 6.253755969261622 6.778692014582888 -0.07589485155610155 0.9488771916367851 -1.3321556536547317
Ni 3.6006183758138044 0.3396121023083536 5.832944900094974 -0.12724415256235505 -1.1289629134802042 0.22357850291973108
Ni 2.6406227934787245 5.576521249757649 8.29263221240289 0.704460154705148 -0.3777729588186849 0.5279498089178133
Ni 6.379824174832637 6.600885233404353 -0.03799806140616008 0.16184503046567608 0.7980189991999159 0.4787728329725303
Ni 0.880309433943637 8.530198083639727 1.4268693972409128 0.5099124918001283 1.088297831660674 -0.9628076856749483
Ni 8.101106081758234 6.323571989383322 9.537829043563049 2.5755061754495965 -1.968013376700133 1.8665195936290049
Ni 6.952477496065472 2.179581243440841 7.935012601227242 0.674392131675174 -0.7286431797092547 -0.9682807929743776
Ni 7.899755833137842 3.155395164854503 12.998993899074186 -1.5522302571862623 -0.5184467545233846 0.9567879618434295
Ni 3.4897243652053147 9.127264466871095 1.1812977348473759 -0.08875268135537619 -0.04410496073901436 -0.6808993366660725
Ni 3.287288273646427 3.245354491691163 8.930725974797642 0.3849694765671241 0.24529763976437757 0.3023370491768729
Ni 8.603050783165692 8.523388560127131 10.748965374277912 -0.2903469666945322 -0.3902893461181407 0.14654131022907022
Ni 3.821743848797125 7.849190520027424 8.37745402981106 -0.7056549463441976 -0.050184591274191 0.735043941029276
Ni 9.174084542049586 1.0590097350317311 12.483339050259413 0.790481038951658 0.30121527686760385 1.8281605342348322
Ni 5.790505925111545 3.072300573883242 9.795286085103703 0.015802257139579237 -1.9711925457590633 1.601698796230035
Ni 8.763792346298137 3.097164536763015 3.057941681330468 1.0171392092379774 0.4647603207435222 -0.5803388640424908
P 8.461081419986888 6.24263068017145 12.00126067359701 -0.486400267610801 1.5800850746150015 -0.10615879264696557
Ni 5.266200220818135 1.2811658386007418 0.18404393663372084 1.0902780953154965 2.0802361161529914 0.5425613881834012
P 9.34662314456466 7.822421730975885 3.263196363500042 0.5511581287134766 -0.25239722692363625 2.0745784036465817
Ni 1.4683265125502951 0.3418859310380323 10.98208573090808 1.4677417504238788 -0.45875473797939054 -0.23911002289642688
P 5.7374836623013135 3.1754648550990563 5.957632796845869 0.711496235616323 0.11696436790290178 0.31320613068089287
P 3.986856389859952 7.4764979365360595 4.358264365942723 0.1152828664354208 0.30606309187820835 1.5183158638270047
P 1.0540866335733008 3.535743861268136 4.646698298024526 -0.09628061430130515 0.5804936444528004 0.4082251046609551
Ni 0.37725496424480265 1.0625801338464431 6.4688163652893325 1.1336420641234282 -0.01227804603640466 0.36211905433151187
