# total energy = -340896.69573095185 ev
CRYSTAL
PRIMVEC
9.02433293967966 0.00000000000000 0.00000000000000

0.00000000000000 9.02433293967966 0.00000000000000

0.00000000000000 0.00000000000000 13.20802345078080

PRIMCOORD
 96 1
Ni 6.1663899419251 2.2008362950427984 11.651022204817732 1.1269672232064138 -0.7112928613562653 -0.6184793796679542
Ni 4.576861967543448 0.5624063623081694 5.923243726883743 -0.15441968453588245 -1.3085781234451077 0.32556568068751024
Ni 2.765678324840582 1.6741220723721684 4.731549865183201 0.18467282699346904 -0.29904578002011084 -0.6435550916896594
Ni 3.3185360403508244 4.455439566384668 4.847674982842895 0.6222835839053928 -0.4605809925548519 -0.6501201465016868
Ni 4.953961772613825 4.372163021019138 2.7772908366065514 -0.006714693016014243 0.28241048545627495 0.004855785430404541
Ni 7.053373588531874 5.868722316341871 2.5975297320266604 0.16675738016562894 1.0863931584387936 0.7973733951961172
Ni 5.319113360728854 4.506156318113568 11.510700142956846 -1.1508365736248438 0.49307330875560246 0.33534307178924827
Ni 5.514833095870555 7.723791290656417 12.414802949355385 0.8833490280269884 0.49211762971055245 0.4392796599739145
Ni 1.7733355899001966 6.439231627293702 0.38264706259488857 0.5913246736300333 0.11770176028955859 0.13543851544768934
Ni 2.447624730902267 1.4120283676635517 0.3712917443207828 0.8807288167953219 0.18613578469224074 -0.11928941649165263
Ni 0.2954476396534586 -0.05918428342769412 4.69846395292988 1.2502099679188596 1.480511134274405 0.12494584344648159
Ni 8.647792751425458 2.219426421121363 1.4038938338542224 0.18878582072057812 1.00879495103834 -1.1455416437744916
Ni 6.812857064140658 0.7579771959545829 4.881395305709479 -0.28930464147294693 -0.4689206227687988 -0.6800891820599513
Ni 0.7075077109511945 7.3088614814494655 2.4507227844375925 -0.05008020448584278 0.5771548098875543 0.22708060253571857
Ni 7.581242925832627 3.7366604634567135 3.871126635602851 -0.1781201134766158 0.522074838194275 -0.5932265186384363
Ni 7.684400076902565 3.8673237816564883 12.37276128898538 0.42391500459238607 -0.10957861696179191 0.6964234004436006
Ni 8.09705575418146 8.908595976508233 6.950062121366817 -0.7647262985850573 0.2852171016671346 0.17966817469002608
Ni 6.9165195778612745 0.6063016206862014 0.35697463994037376 -0.29301062956962437 -0.17246188674957394 -0.24529943953659045
Ni 1.939681120971158 6.343095407334989 9.256605843998877 0.8998035740385858 0.4290057888517321 -0.690373851815411
Ni 0.0014150154219023888 4.8087061078756825 1.4266252263684438 -0.13387888427005332 -0.6997776616278143 -1.1441457918682296
Ni 6.311419998337048 2.158358759386583 6.919207926676229 0.18407658817036687 -0.8022206959860894 0.9031336668530834
Ni 3.3133109515161214 4.382640271687688 0.6727495897841075 0.28265062649153905 -0.6206951563723504 -0.23543154560357515
Ni 5.850339749923407 5.730613923377622 4.905855760435668 0.7532740908840575 -1.0607242929177796 -0.4289404828314355
Ni 5.231315624506351 2.7045745657736107 9.357224450182452 0.7900305816778007 0.09853007245711418 -0.14504338552730503
P 0.19377138163667273 5.655197572096767 12.4080536506689 0.17843867315829914 -1.4748271965157502 -0.9703734138373482
P 4.02951811952544 5.958866379156813 12.66683813244887 0.2903467095842161 0.8306316430286146 -0.9196584039809839
P 2.295402281051186 8.371133773177617 1.2719707187609681 0.09435382959223751 0.8617962415568771 0.5209702922761866
P 6.447515965031625 7.778866795247426 5.814026736172176 -0.8481675950298488 0.19520020888735415 0.2676104443289649
P 4.59056090511008 1.0729841750559448 12.70380721521268 0.19868945298753524 -0.20321125211728874 -0.9054792842671243
P 4.086624099052215 6.168691146852301 8.146497367650698 -0.41327912214509477 0.24865910003744274 -0.3411506796099608
P 4.886234153089735 0.9523559152053757 3.644053660153014 -0.9808755989202527 0.4576285947947473 0.894067699996073
P 0.029631397562605192 5.493634937541164 3.4423408654342356 0.882006912176797 0.0008356085274179157 2.2240482003763566
Ni 1.4066318165009393 0.9422757351909307 2.6688661823365853 -0.7608053662640962 0.3456169429114306 -0.5154462771341639
Ni 1.6896168522153214 6.6477388423642045 4.698252783536561 0.6103868324678068 -0.1048938098916129 -0.30399541071590225
Ni 5.953984214977928 5.693433671220493 9.21259687902444 0.1682077394589103 0.8180484070469654 -0.20829329462588644
Ni 8.75223135778819 2.3939479979336733 10.210198092831805 0.021281792196911738 -0.006352681690905189 0.07421643541241411
Ni 2.40808912781965 5.385767084620251 6.805381306643822 -0.05396668402444254 -0.30136080130653264 1.5573233554384533
Ni 0.7164300690356007 0.07396975069328642 8.957100864207105 0.39274654940938164 0.05371137348052685 0.4698989275216682
Ni 1.4336777426453364 0.7622953393179775 11.45753779697198 -0.29161452055304615 1.5270576145753765 -0.49437582961710996
Ni 3.9778989344917557 6.935046533608505 1.4721529865948315 0.757057983406522 -0.30064423485548225 0.2661235753707933
Ni 5.776944849245269 7.976201886004693 7.984183908585514 -0.7041477656710519 0.10436390553007188 0.04400391638477583
Ni 5.102809121905012 2.8032466233187687 4.8734439658610205 0.1592307327712806 0.2721289010246088 -0.5396907515038254
Ni 0.96235487622239 7.520563310418906 6.878712134557321 -0.6757244773333524 -0.5517800785681917 0.4231642424692906
Ni 5.040550248207916 4.438383576924238 6.9557149635879885 -0.055137050183459886 0.9671749615047085 0.6644010819007332
Ni 8.315345346275826 7.283241399926628 9.163238289419242 -0.8190161702768733 -0.6528676273398369 -0.1276904960711543
Ni 4.852419977159452 0.44059230509511327 10.493972757687873 -1.021031602313848 -0.3910686474863265 -0.02256991488071597
Ni 8.206927009038994 7.069003733370744 4.782031081819552 -0.6591830280349035 -1.2991740565223882 -0.40583423583127526
Ni 7.287482836459116 6.130644558722579 7.031133119735454 0.37201420195803675 -0.17619667120165783 -0.1527788064983498
Ni 2.2026140886532244 5.2035206787189825 2.7063243839515883 0.1348044814081162 0.1651411847184446 -0.29921033062243313
Ni 2.3268791547220755 5.19594926329184 11.536284127147491 0.13130341023339323 -0.13878789153589646 -0.9262458273905144
Ni 1.016979164161007 3.268983427585097 3.727951079632237 -0.12058268138177942 0.13868890406418696 0.0478608282370208
Ni 3.3854153725684175 2.496094423702252 2.4548171243414005 0.6865503643042628 0.11021882164895212 0.7076028140991878
Ni 1.0877840812544135 3.5348944251729533 8.208218391098141 0.6476200057876524 -0.7833086895729349 -0.6962279966033429
Ni 3.563059368615283 2.698410946301931 7.213231526574737 -0.16754079529887275 0.07256810117571373 -0.5332707069100945
Ni 4.094998680120617 6.9364272565648255 5.895798022785327 -0.23383257654757147 0.9292128804386384 0.052082836738168374
Ni 0.9174407706432562 7.323201146662494 11.160093072415034 1.0070818250019753 -0.644694090390109 0.2950484859352596
P 0.35115845729103645 5.62387411208769 7.962351339642859 -0.7713085797882652 0.5815675942432694 -0.2972022990534688
P 8.618084647031946 1.7526788915536753 8.011934635140948 -0.717194828662997 -0.13045006109416243 -0.05684657667539887
P 1.9097293595853542 3.2566200913095473 10.322282114152673 0.01050295641385288 0.3614215140438549 0.0797813310947013
P 3.9689016744430528 6.231735137524559 3.6959877944100676 -0.5195600421922214 -0.22901278656142496 -0.17744648444835892
P 6.9484115708523655 4.083258022825368 10.256003802516068 0.4166490670585921 -0.9691138303986342 -0.204457465819564
P 6.370827182791023 7.840142016642307 10.278761365596127 0.2066303051011667 -1.063042399527995 -0.17779564025766154
P 2.37803809877032 8.619023177668922 5.584669702027929 0.3860639951828835 -0.35863700932018233 0.12289410312377544
P 6.857491415395309 3.939689908367172 1.5790453091132728 0.7332115158062276 -1.315513160002044 0.3850967461736078
Ni 5.209476738530561 2.84452392267962 0.6788383072914898 -0.5146772601786233 0.20265280851065745 -0.7496915157391218
Ni 1.5338117421442452 1.174219143186691 6.794048549202336 -0.5427814746140072 0.3689345345914485 1.011274522927084
Ni 6.983425983078011 0.7151179310104437 9.384353400190891 0.49314555675443456 0.5020073780204387 -0.9372581193406181
Ni 2.7372787487390076 1.583788498563221 9.156065749512813 0.23691687189985003 -0.6816498416788519 0.5768964140198451
Ni 6.4251175704068695 1.9604551356473015 2.531357005086714 0.13295765800736456 0.010812260124155572 0.1994078192107985
Ni 4.157113164488947 6.968752417542213 10.567739460887584 0.0018442522975903723 -0.9034383425776957 -1.4030607653057254
Ni 8.200664121903788 7.054104559508749 0.4494018590164214 -0.4689954418707923 0.3355492742627834 0.48508540545411943
Ni 7.550289463478514 3.908763519012201 8.0777499984922 0.6548980275063044 -0.2810264606245547 0.34832662853310975
Ni 3.21247305403948 8.268824909414176 12.309864394941803 -0.8640513561396409 0.35025881255881613 1.2237810843033698
Ni 0.029595300230413804 4.834876673714438 10.043975292690295 0.22727960592040214 0.607259856803051 0.9362849567940714
Ni 8.506273160569123 2.2837518670864156 5.72320855567856 0.7782137915485308 0.7924669590334351 0.3550071258770789
Ni 3.7267607701032253 2.7216125065679457 11.527434866160775 -1.0986537209737013 0.06953368522476411 0.013724548674944105
Ni 1.0438897253096864 3.344905141516633 12.420746375100697 0.017659364952976035 -0.6660342466287821 0.38005969797033257
Ni 3.09323454147828 8.200465586576737 7.858179853538343 0.6528696842223659 0.6652528883780672 0.48125754706759694
Ni 5.620345597865982 7.744240429342838 3.662228666911377 -0.3651215886032615 1.0669414774720851 -0.6860556840560313
Ni 3.0643657000582176 8.480292105724372 3.4360933196652113 1.0060017045639191 -0.8990386708481032 0.26831132705073146
Ni 3.663265562778575 4.423141478406425 9.414216723112824 -0.6358484670740211 0.1667928613892547 -0.03870461565904947
Ni 7.289044046076394 6.1404540087455874 11.497637420870088 -0.19685805620575128 0.16336326688241543 -1.2389572778231759
Ni 0.40375046542727844 0.013667352400964082 0.4020863784132555 -0.011284828885199919 -0.1324298105283526 0.26483236736319554
Ni 4.673855499141706 0.37315165936194405 1.5342575441968087 -0.21002056172963832 -0.8300492881625834 0.06596525114721542
Ni 6.149270782133334 5.495304439155015 0.42625895691521815 -1.562213079430587 0.8364369368564821 -0.9593156133612898
Ni 8.155154410343497 8.549364350872592 11.408773910914634 -1.577707061301128 1.238753903563118 0.29862926130798245
Ni 0.20120833450140332 4.856877997685088 5.878574180730205 -0.6360536411062917 -0.6049461210682097 -0.58968251004092
Ni 7.786411137675427 8.740689235819993 2.6660659317918385 -0.1682326791595748 -0.3668483414863811 -0.5500769798341559
P 8.391203889876028 1.657986564882618 3.469206304917676 0.6830572635493397 -0.8080601854860018 1.543854631528057
P 1.630336008424015 3.2395731261821648 1.4749135300741678 -0.017472445753150555 -0.3402775329763882 0.02324457235023739
P 4.775568756923988 0.9912417663085478 8.113662331856107 -0.0010477245382240021 -0.027239038221611157 0.36731473959983835
P 8.547866311586649 1.5332432091622308 12.260294635943286 -1.1696614196408308 0.5955338266153744 0.5680039966262218
P 6.257057416056818 7.597775503976283 1.2863383594064453 0.24583911409014436 0.5125414447825432 1.1922364767278693
P 1.8460265926006032 3.234709010669375 5.918858803455794 -0.7700448825844932 0.4275382031672701 0.25280243278185494
P 6.843467601838954 4.029500070859345 5.867598786877414 0.6007847906016686 0.13635588505563614 0.6122655375477584
P 2.588512618445252 8.56823423127564 10.163296829115536 0.19930934595972127 -0.7999272719662224 -0.9654908889340662
