# total energy = -340868.447557442 ev
CRYSTAL
PRIMVEC
9.25868278356691 0.00000000000000 0.00000000000000

0.00000000000000 9.25868278356691 0.00000000000000

0.00000000000000 0.00000000000000 13.55101813574973

PRIMCOORD
 96 1
Ni 0.16054926459165955 4.749602471316166 9.444097262137676 -0.7191334404466067 2.3865146664761157 -1.9967662804631097
Ni 4.555383080567438 6.46388464105874 12.899823799584379 -0.440332526718461 0.956119217911179 2.092033880118868
Ni 3.96080898345623 0.9899939254992842 4.908233336815337 -0.6134600720764919 0.7881166524845395 0.5646042269160534
Ni 1.4141156708116613 0.4862789869509578 0.5884133695236502 0.9669049956727735 -1.0406817724446076 -0.7349565235217924
Ni 1.7951660233718296 1.690144783477525 3.6115223942483836 -1.3532042467949148 -2.973212639967415 0.24950447875687348
Ni 3.965345738066845 1.6524249094292667 12.2108907617821 0.5211579828069606 -1.4776191574385908 0.954613322789614
Ni 5.259672569792506 8.639730669675586 4.043447357491019 -0.6360785808069562 -1.2601472816372299 -0.7461935298881922
Ni 1.911334717452217 5.444355517176062 5.629607873556666 -0.3085586046065525 -0.3565353895961473 -0.5415311471466738
Ni 1.7421970986221764 0.8733567420652292 6.097985197161451 -0.42125545548235194 0.4651886665301924 -0.8422226903003238
Ni 8.020630321618418 2.647603697340683 9.636765823504202 -0.32207823635954214 1.146036324022723 0.5783169485164557
Ni 6.54768497979482 7.2318831271728765 11.66131478933018 0.21578420368629286 0.38062174112138963 -2.715418924618556
Ni -0.0028220465414602793 2.1542362627777103 7.795846166950174 1.3042440148461278 -0.4138727898650357 -0.3298113433377417
Ni 6.0366890130306 7.025368205561093 6.7844526477131035 -0.2712940638281392 0.4219830776769959 -0.669131654607183
Ni 8.307760595055973 3.3060256715841416 6.041938686222883 -1.7898438980428208 0.8729180625016515 -0.13252365579373954
Ni 1.31225164177903 5.496102295785714 1.8083022426402804 2.694984568023604 0.07663687192844867 1.75969797058706
Ni 2.6341508311177764 3.5556675380454066 3.620019087526265 0.6646828748072101 3.5620032343216845 0.2733355197382002
Ni 1.2327565905815956 3.1636086115423376 5.5991319929927865 0.8384004883407561 -0.3074784841684963 0.471276267485169
Ni 1.1218838631078856 2.9581306624129806 10.110076173346815 0.6658280441552469 -3.3023806932942024 0.5831915029999376
Ni 2.3707505618986047 8.7221607233456 7.983758542921859 -1.733815446393343 -4.173066009810594 0.8268148403856858
Ni 7.48479330869036 8.219016119662609 2.729432862491864 -0.09297391852557536 -0.9085831200034288 -1.4648662286482965
Ni 4.616675561225138 2.8692936001908302 2.6234774214950884 2.56848680670897 -1.8153852368470347 1.4963553003955132
Ni 6.4287942329480625 3.86816660257089 8.152753578035567 -0.3279606632822481 1.2586172181459487 0.2514785717641088
Ni 6.841240779150264 5.236664742838671 12.645647956117362 -0.3923544561772856 -1.4073316247669374 1.1554020815083392
Ni 2.7940853191662836 6.044114476699402 8.089185313126254 1.3638882088713222 0.6215672745646585 1.0502089952087528
P 8.608417804179462 6.45123728024629 11.503581090201966 0.5721211041183888 -0.6160108635228035 -0.9854035686975933
P 0.33506617817428686 1.1717789051417749 11.670354041424758 0.16806504323345894 1.6457276523154754 0.6486926700265409
P 3.411111722258598 2.513093552477379 10.462104258555076 -0.7395220314052877 0.2992365558746782 -1.486247779647866
P 3.2879804986533476 0.206392706997783 2.978947884997689 0.3644754703788304 -0.737998909892542 -1.8450418833712032
P 7.048496395392352 7.978123708521817 4.918328078758099 -0.764945870795031 -1.1401104454565911 0.023680117225759217
P 6.615856661831473 0.8251078938471916 1.6587661813329615 -0.5469644023471032 0.1429340524937861 -0.7285601330771453
P 0.12460150244640471 9.188381699707913 7.3675663471569255 0.2046191882084089 -0.4393717054670885 0.06403126734929618
P 7.630126853838989 5.577699067996637 7.482655478813643 1.6010722183896298 0.5986019240177368 -0.2253636198446119
Ni 9.148689726206468 0.8229728415753389 2.408232487796878 -1.544893614315533 2.0203042156840496 -0.4779719343377898
Ni 2.5935978001086033 4.6553490796099135 10.549481226487238 0.1331414918833965 0.215452531378487 0.6511827834382462
Ni 3.6335700957876864 3.0614668220233416 6.161647900636126 -1.0795553095813537 -0.9157346434465455 0.5132981204429096
Ni 3.9228576423360013 5.022335492877175 2.159368350697433 0.5521567451813201 1.6138752836915686 -0.880675080739251
Ni 8.476907472568891 6.328680094979527 5.275574357636856 0.4271347970812644 -0.20322385052277905 0.12389040559877373
Ni 2.845443233095024 7.676068438283627 1.3276636452990918 0.7737482995780094 0.2150948909287521 -0.4040434624794396
Ni 7.047033523497501 0.9273496771412783 3.8137579526335825 -0.941742637474533 -0.2051238957589693 0.9867708813587651
Ni 8.43525265829714 5.918538960814147 2.0245082276213107 -1.6890826222623425 0.39785764538370194 0.017067239894931897
Ni 7.383207040144093 1.1865094696019562 11.430798584091665 -0.07594627361932726 -0.09678763584471073 -1.238913311959118
Ni 2.4603375774339384 1.477685787457548 8.240686066940457 0.004271373681844257 4.499022498178619 2.0246416667171387
Ni 7.13246339042025 7.309322750771216 0.32567046678887385 0.7715191531371746 0.3624864649732596 0.4964949328426417
Ni 5.587874360480445 1.7975547635545615 9.524373746170081 -0.6676872088511726 0.407005373321241 0.874776455866629
Ni 7.246178533537754 9.336085467673515 6.555304875804078 -0.20951611128939404 0.11421354463064201 -0.8982807096361561
Ni 2.029364406791245 6.442024890781878 11.84928179153085 -0.34052590154176837 0.9136211966479685 0.7012599026002956
Ni 4.304546844014807 6.419776275824105 10.66985521433118 0.9547693887515041 -0.49447635975071613 -1.5356486986784972
Ni 7.491792872946738 0.5024215005501572 8.745705553906406 0.11278992481023803 -1.1394108482864054 0.9922455313200913
Ni 6.1626811696454 2.5727379875826517 5.147624915461475 -0.6571017200258424 -0.7042637224236258 0.48295910313973606
Ni 6.131757168830187 6.150496742976891 3.257556466713589 -0.5834321582558339 0.027012781143417996 0.2588586662782639
Ni 3.484477525390262 3.7311195785987934 8.668165936532976 0.8606359027001889 -0.38292622088485023 -1.7307612329480515
Ni 4.641840661289734 4.130289173552787 12.674240620583694 -0.6966098054227938 -0.641330830344831 -0.7233413078803671
Ni 8.072432652325341 3.705954478534197 0.6545138842003148 0.9491857240161393 0.09073345923083084 -0.7470304239671908
Ni 6.045679194105921 2.275886097122352 13.439235589971943 0.45316053172106474 0.48245722380265293 0.12829521953468873
Ni 3.8186141318035167 -0.06081843609430539 10.080711334728393 -0.08803791467653871 2.5040901856004556 1.9472612317544464
Ni 5.257450485901592 7.631960073048992 1.6895818555584936 -0.6801408612334932 0.203757611539062 -0.09940450464226752
P 6.527241807998414 3.191190227838302 11.218440507715068 -0.5463694490755816 0.05924541592487862 1.2413612592789784
P 4.64258135592004 3.96453097397351 4.527083916348365 -0.23591465588758082 0.8831271418241694 -0.7839085279404628
P 9.058621259161438 7.920543959698518 1.0295572033087133 0.5621087141877095 0.37233456141193294 0.011047773173729361
P 0.7913488843344868 2.461087530747122 0.955966414183094 -0.4904888358578779 1.184963854325856 0.4466844370784179
P 3.6689290057018487 8.517284588603367 6.3605771833653035 1.009870443490706 0.09123019636159127 -1.3013936898815264
P 7.65463458741919 4.85602177232517 3.8326614054672423 0.8739439326630045 -1.7881425990809978 0.6266858267381464
P 8.8542265759289 1.818655301835362 4.52809959386017 1.3380864173168696 1.4833637732318519 -0.10722194380415728
P 3.8208269570115516 8.547523446885549 12.56638807546505 0.45958443296953755 0.13386294343045332 1.6337895061169927
Ni 8.89728870999823 8.948146655051515 4.660046009434333 1.0366132588021888 0.2822932431521203 0.2761678469806727
Ni 1.9900798153364678 2.975425882030591 12.402691784562885 -1.0683470995703601 0.3051858314795776 0.3803476615243966
Ni 6.0566970267317 -0.16289911830630072 12.788542764195713 -1.356983768442005 0.6401419522430523 0.5604279840511768
Ni 4.647747700966414 1.2141003445808003 7.373353023956179 0.24762963033166388 -0.9739133086698066 -0.7117762287505871
Ni 8.901593997536875 8.436298889462446 12.503551246503164 0.6627643176282586 -1.9867551760840105 -1.646068837704978
Ni 6.524529013914925 5.129773249002848 10.351799088341838 -0.42667199851223286 0.22082510854431 -1.5126352685024596
Ni 1.2401079847873684 7.827170142865753 5.752379860266219 1.6102914229950527 -0.9470470804065819 0.3190206804801409
Ni 0.6647632461471538 6.251110849820884 7.400143022866006 -2.960336555335695 0.46799965361642626 0.5365740602517147
Ni 4.658210012619465 7.996354055110187 8.514890293210907 1.2516649551978314 -1.503812785114823 -1.8908807960821883
Ni 0.9834665540697256 8.162723327759466 2.719445521270495 1.1641993680849951 -0.685409051610968 1.061422861646701
Ni 0.3639236409709516 7.337163610187788 9.5805156215423 0.21645037651538207 -0.4529275897746522 0.9619589645214078
Ni 1.997644159248453 9.050501394276724 11.620959894134614 -0.5982095736753246 -0.34989654412339094 -0.14291656899228933
Ni 0.020546869044647812 3.615700837831589 2.9409502504630667 1.5052230351987883 -0.46693058892196354 0.21296858861436868
Ni 3.3275613679602465 2.942437194933403 0.9201806789882182 -2.005826590893165 0.0023093648594669906 -1.6583072887526988
Ni 0.3108713880753892 5.351083545854964 -0.2463855876927885 0.20395892891659068 0.8874468522454458 -0.5424888830742528
Ni 3.9112842887374932 6.572933408005325 4.168197924731773 -1.2158147782684414 -0.03598464562472512 -0.0806966438201191
Ni 7.200848022163116 2.831379293802117 2.5299749089703076 -1.6784446829325224 0.16128452997651577 0.3656772039964154
Ni 8.22908956663475 0.9650602925066579 0.014315775467210906 -0.08782168490067456 2.0522812828112786 2.0738600374233185
Ni 7.163952170891071 7.1419998337854205 8.973728395845658 -0.11624600167963851 0.4360069027599136 0.6127784726284349
Ni 4.08914358683937 5.336880726318874 6.217328693600981 1.4043298618261362 0.736359574516906 0.8042361837542213
Ni 0.38861562234044117 0.41493898363317644 9.696187124352097 0.7956664398073393 0.5563229607438677 -0.638593633919326
Ni 4.485359661955023 0.6295339577932942 0.8923185246010252 -1.0478073277457953 -0.0705659831440204 1.2784031425236242
Ni 6.381713830509331 4.903046622666629 5.703718074791786 0.4822772465813629 0.044437918598400884 -0.7036651696076784
Ni 8.606510515506427 4.252614891747581 11.537092892881805 0.5209810909094641 -1.6103970953349815 -0.2503118051495173
P 5.044760022809645 5.565153552695853 8.433544431306 -0.489313584602854 0.8998951053111276 0.5044026177254926
P 1.4760747766366358 6.423803802876386 3.8542211744188313 0.44985023640090915 -0.044755706949135825 -0.38421948577497705
P 6.681185928224333 2.0202353454727415 7.386877182037252 0.4210340835001652 -0.7751055849368522 -0.9713278073308176
P 6.070381360026577 8.8989182381849 10.249543417023434 -0.018969599123967333 -0.13718712270767988 -0.08999272441006437
P 2.609846788560909 7.388382643873346 9.856522513369255 -1.1910185451603683 0.39552771169894463 0.1544757345847985
P 1.5382190561191862 4.332730274697894 7.620483009752424 -0.34895217793225064 -2.139383573047425 0.05305368529186992
P 6.2902565610324785 5.518443497572274 1.115186131913357 -1.2502642181955628 -0.6611658627928871 0.894549267618182
P 2.6105967418740925 5.108552347844622 13.657664584712176 0.9380921852061392 -0.20380903360228772 -0.655619221943045
