# total energy = -340861.15037791146 ev
CRYSTAL
PRIMVEC
9.35878149856139 0.00000000000000 0.00000000000000

0.00000000000000 9.35878149856139 0.00000000000000

0.00000000000000 0.00000000000000 13.69752272327523

PRIMCOORD
 96 1
Ni 8.153744803087475 1.9784932051980024 11.37338183050477 0.1519244289178545 0.7980241414062386 0.7208311398640037
Ni 3.112487402027012 5.288656790286873 10.367791987754222 -1.2344359929140547 -0.30427540385016627 -0.9043359146913006
Ni 0.15926119259627713 5.167039424559723 9.177449503329477 -0.5041511638363187 0.4835214034011092 1.1641841985763435
Ni 2.158078863600332 7.033199175288854 11.870163734759634 -0.5625483728282892 0.6284709436630274 0.04843932644831012
Ni 1.10683501288594 7.7198810510486195 9.33102617203636 -0.6549520206726914 -1.3470994194487576 -0.8888447610342369
Ni 5.9935134197397595 6.457924234628435 2.048998521584463 2.0677667800413873 -1.9368073834109742 0.5294171374919592
Ni 6.523295323478311 6.858423930582851 5.853650173580009 -0.4364730437630548 -0.7385982340394376 -1.6158501480297527
Ni 6.679839661802131 2.187456078761357 9.153711889906594 0.7592084540906215 0.07009572837582122 0.052261271297561605
Ni 4.863346964548488 5.966260647981587 8.031898147213322 -0.33212559329321506 0.009817757421370189 0.14774870027361003
Ni 7.40934732175331 2.405394023793149 3.9552962144552333 0.7578619673650561 -0.005279246121068327 1.5656388172826843
Ni 2.2582926960132843 8.312638195570395 6.9126599411916985 -0.558107049227484 -0.33131209625298425 1.4671761077283958
Ni 8.939246052815149 8.062141049664055 12.43706256596828 1.1199365416118778 -1.426820843839801 -0.6911788642152097
Ni 8.530267300812344 5.357003971657044 5.116914726668377 -0.33490418447961673 -0.5456140589667958 0.5186249319724616
Ni 5.813965196463472 1.6540336090152747 11.585200068306934 -1.7103844690639125 0.47492929085672403 0.3391771008233578
Ni 6.601890370602328 6.528882516039998 13.550877358104648 0.48194685982513774 -1.681082120555369 -0.33445784097081754
Ni 1.0103178991695805 7.91888618108495 1.2087306183363045 -0.5005781017730798 0.05187277760989131 -0.5393161417732261
Ni 9.392847475059357 2.6946178075893648 6.096890520303214 -0.8187189507514288 -0.9213033957835745 -0.6577514377946995
Ni 6.872274927218187 8.41474250184844 7.454301292860181 1.0218738957094853 1.0786086293973682 1.2572519623673057
Ni 2.8030673677314355 6.492336474242035 0.558488094265284 -0.20888259147045316 -0.007251539356090737 0.9294712763063475
Ni 1.2279376456300195 4.579616785498855 1.31212643646278 -1.265371763260963 2.5944042979056805 3.115832503654892
Ni 6.613953839969184 9.415308550684225 10.091280236883529 -0.8389920991781679 -1.0577251010801396 -1.2202157355496146
Ni 5.335750178847013 1.0596667540737172 4.266354035515123 1.823393451863492 -1.3597266212944648 -2.306646432094563
Ni 1.7372425354239 5.918203304925879 5.534278946904465 -0.3985531287888297 3.5558737243851795 0.10503187813137396
Ni 9.169172596961713 2.690846218640689 0.09324809133479027 -2.9333613122984317 0.10749139541546002 0.2915304454796721
P 8.63185687410732 2.118191736803171 2.203726320417121 -0.038680190179017256 -0.7620834616455714 -0.35332382463738504
P 4.499730226526407 7.217482942009386 12.521152153717031 -0.9120649079044422 0.8993145502173092 1.7658830163518489
P 7.483141313962512 0.2688908950868044 12.334126264013964 -1.3630464296963172 -0.5054878803698714 -0.5507033005642451
P 3.0512248182601844 2.2834023068055846 7.132300248580226 0.0851168843750018 -0.7395132896545393 0.82874651019076
P 9.278651623069925 6.117292663995802 11.14222273483329 -0.24801915246059866 2.8167710399054973 0.5919844187012192
P 0.290669715539567 4.969690798850728 7.145477412946815 0.8406226928030555 0.013208271160157898 -1.8199067788664722
P 5.3746171984595446 3.697495475458208 9.997862751603403 0.32459714612665386 0.6682248265221976 2.9092063123187835
P 3.9215259872532444 2.990617349199083 13.293637210120092 1.3067780941218914 -1.9064421408555554 -0.10028356481311117
Ni 0.6284842929375808 3.497844589497663 3.856578851205788 -1.0216813200827048 0.03134020487417828 -1.2455261892899454
Ni 1.8118133064984616 3.4705918177394897 9.15406845948214 1.252696224675823 -0.25051723629210404 -1.3722684625152173
Ni 3.203314376585072 2.3135001481429076 3.8020349366852493 -0.3511496998042017 -1.8847132338188959 0.5879372452150391
Ni 0.7907028604911321 8.597631810123927 5.179882480426392 -0.15176476341153863 -0.4639164846859881 0.8683211871595885
Ni 2.989971593274868 4.9196961880223755 12.737449504350057 -1.591295341508524 -0.9983907249858806 -1.869848658002238
Ni 2.867203097421944 3.069287266575183 1.7701723440462585 0.9406959413775735 -0.20565919943714905 -2.1410514476681515
Ni 3.4292540798082225 7.505462007864724 9.653137649938138 1.0729982251891261 0.8602042144794089 -0.45410155547809533
Ni 4.648824974767979 7.526013892061479 3.9302165517637664 -0.2759513600944925 0.5979074690538734 0.9881883305315822
Ni 7.291482827411815 3.9356577473338907 11.84580937763522 -1.2636092720439014 -0.26543117728945903 2.1977483861395637
Ni 6.304533805673609 3.897389689738022 2.70211044806656 -0.7809018799036551 0.653919465643119 -1.5585292028210964
Ni 4.875363640007792 3.416460625483558 8.069881697851274 -0.7448203036897495 1.1970398116537835 -0.9762882366598865
Ni 8.906003660890343 7.024542302391771 7.2334976889299165 1.5923983447647156 0.31756723586306596 -1.700460010861349
Ni 3.54304750419271 0.5937407524585142 5.620901956808071 -2.880874298143309 0.2909375490906796 -0.4449839094475433
Ni 7.215302345917472 5.68944660846811 7.822819224759239 -1.221034374796168 0.24766459733465732 0.09047274937027644
Ni 2.503586359399863 5.571563396563596 8.102577536935874 -0.7566327229436453 0.7555551736087504 -0.8401375256365209
Ni 8.970532459404287 9.609596854839332 10.219763204726682 0.10877283323104493 -0.9800636445419184 -1.2055946432023301
Ni 6.226603232036826 2.568807707745573 0.1676738012959412 0.19184774747535346 1.5429876555420716 -1.144915065934086
Ni 6.453460095847993 1.2030900807200096 1.880066900053529 1.6954882686783703 0.4947244712057802 1.8281286525556324
Ni 8.275390245159155 5.200001053039217 2.4811692700480936 0.39330962100170325 0.2654453183568461 -0.6939618262769854
Ni 8.040746875131369 3.6597140745008776 7.794711996249169 -0.36146316591506783 -1.819726544534866 0.2108919085909981
Ni 2.264928072104131 0.6567740176871019 1.1687442884551333 -1.636111212271634 -0.5067474638085854 0.3553943340131686
Ni 4.587468803186048 4.610369741541903 5.9643673664820405 -0.19633020872673929 0.9752011742432946 0.17615810465423856
Ni 4.430559472383324 1.0973826435604748 0.8529256552409226 0.5362056211687024 0.9585931333729685 -0.6688719731878932
Ni 1.8297821669983558 9.34044765738284 10.689998925227407 1.822520048119603 -0.7643195500649418 0.9849019464708265
P 4.651071082330466 3.6966906202483165 4.022332230535803 1.2278578254759047 0.6672768607866315 -0.1775650123040942
P 3.8615549153348474 9.649090912813058 2.836701892601524 -0.15151793750805517 -0.7967288196335827 0.19761061810105968
P 3.9184469481363355 0.34921357327763425 10.309454023209383 0.5261778046190552 -0.0745805036200522 1.1720903407972973
P 7.485190887113281 4.484700023420767 0.2639400996678231 -1.3925392969491113 -1.267823824345881 1.056013774815988
P 0.7118420239722208 5.949339971010853 3.5832584448301295 -0.12728580443356788 0.2214876818289734 -0.48059703066546267
P 8.200155000597357 7.458377978086094 1.228720039764286 -0.6473240718137884 0.43131952458657336 0.34411336178271057
P 7.139543009591094 8.853978194474244 5.060495312333162 -0.33897501211488074 0.23169547559991063 -0.49005714763709796
P -0.009582456388459282 2.764986485765774 9.830136541131004 -0.6295934873032447 -1.1292655323222875 -1.4930606888046416
Ni 6.156796080751039 8.77705836924058 0.1996621164983573 0.6218673223035807 1.144701150151067 -0.580721187082574
Ni 7.205550495583675 5.46219667583351 10.391447243899814 -0.6784876419007864 -0.02313478624525048 -1.4142175532534933
Ni 8.030218245932213 7.299063440435209 9.394144602176691 0.49160006664418565 1.9131804880206535 0.7416367637554453
Ni 1.255564768648607 1.884362580766785 11.795991647777415 -0.14923351234925267 0.35240619791912214 1.0523363259644005
Ni 6.468509016516654 7.60345780905972 11.543477684455592 0.5515522788281016 0.2390190058445174 0.4055992370023337
Ni 9.084251013536692 5.793329083233124 13.624542199129007 0.6470340513771953 0.813352801343509 -0.8339591647399508
Ni 4.689376575052376 8.415341463865103 6.72507252459801 1.3001356491047091 0.6928842769420905 0.5026756077320569
Ni 1.4292450359178985 1.0166163591260537 8.66438144749028 0.3812105237453241 0.6369087900177353 -1.2521208117883276
Ni 2.2775811447061396 7.548409456215774 3.2868443091995028 -0.27609585609215676 -0.13121933516001916 -0.14125563635009866
Ni 1.9133280095413545 3.9129907785157947 6.192376296297133 1.6950272698815518 -2.1804613169243416 0.48583693890816326
Ni 0.4281455365360243 4.144246269636831 11.435540985540287 0.8642917542852213 -0.596388975526818 1.2124828856817311
Ni 6.460151624627902 8.488115348889675 2.7482436256437373 0.5397090063362705 1.0854243667676209 0.7013522052037856
Ni 4.354772059712416 7.911539537599316 1.363007323900163 -0.9246147195449947 1.287094756760351 0.6430514125803635
Ni 4.9970933111130655 5.4367127137807945 11.540162804044622 1.754763766510236 -0.6532728331980556 -0.11212735152557463
Ni 3.665684977104488 9.39013342842135 12.508427018497391 0.9689369385011377 -0.39854310148650074 -0.3929401534774265
Ni 0.333266209583978 0.4468060109895343 3.387055333978002 -0.9342820674314297 0.6890577041071487 -2.6222200345663675
Ni 5.152009221454082 2.091126140675205 6.149036715000798 -0.3661649422661113 2.046080810427522 1.0448240767477552
Ni 7.252849777337042 1.3856611904241443 6.576837848377242 0.9592487646790965 -0.5733302939351417 0.118860299374034
Ni 8.482921225151426 7.559396665708938 3.556233091462658 0.2011787950682922 -0.16373401995827286 0.23597456259123878
Ni 3.247422313843406 2.949990878662603 10.862217350824778 1.6129640847312092 -0.4568806608851293 0.9684725972702094
Ni 4.76169187978294 4.766034354403748 0.37435219629261657 1.897177684834494 0.7941248063518324 1.9610060921443646
Ni 4.507806854969849 1.1352669911144186 8.520078395382013 0.01925833400897974 -0.5571498275205373 -1.3393958801569126
Ni 8.662591112587346 0.31695104577696454 0.4872059990134635 -0.01186281287585699 0.39174150518363504 1.2996461110628004
Ni 2.5979135182427977 4.772931776376884 3.5824779224521652 0.6416424480479789 -0.15573120425845438 -0.09896895976674568
P 4.19572892672533 5.777587612732696 2.6369508676788187 -1.2123512451998735 0.33749122848050267 -0.7712928960589813
P 1.4141586801231956 1.6924794834598405 4.660403659252598 -0.6271198289517715 -1.4787381015343823 2.0832160247169216
P 9.183697425865795 9.020433482417536 7.947000896620227 -0.07395315444869843 0.4653539884634631 0.18672842397091713
P 1.6193312471748538 3.4204568251884826 13.516592397919588 2.068464834549676 -1.4745513171465443 -2.927758621399674
P 5.804391162978372 7.090858628174193 9.584855044160388 0.21372140761999325 0.648212902176645 -0.41200308364614846
P 6.737386809309344 3.943996421659623 5.813255800824987 0.5346143654221824 -0.4002428577864268 0.44145712724120745
P 3.6474447119407936 6.727999951454452 6.374498184488769 -0.8211859242346824 -1.7534995550858319 -0.7893800925779954
P 1.5841235111328733 9.217323527832523 12.862960123185514 -1.6158378067345782 -0.547345954056238 1.13742878485937
