# total energy = -381171.7177889007 ev
CRYSTAL
PRIMVEC
9.14936169160283 0.00000000000000 0.00000000000000
0.00000000000000 9.14936169160283 0.00000000000000
0.00000000000000 0.00000000000000 13.39101566731083
PRIMCOORD
 96 1
Ni 8.1912405847329 2.0289990584316717 3.7139848599897607 -0.7859178450610077 -0.22439199995996192 0.9574194247798414
Ni 8.071292452231507 9.008699459368263 0.14832945264016822 0.6518091041683355 -0.534629277820518 -0.18984691499524078
Ni 3.513098728667078 8.794512900874164 2.9695516161369993 0.7970147263051177 -0.6694998365798792 0.20009044710011992
Ni 3.3083360127722496 0.24463746426001393 0.31918280402876764 0.7722483179937152 0.15829485122057255 1.5015476432297301
Ni 8.579823127483987 7.2425524145622635 1.814402608531313 2.1685259989393364 2.0130305648407716 1.1557065001226356
Ni 6.289198069900722 1.4156075481983783 13.180000527296253 -2.71519549575384 -0.5283352172816901 0.4733400919927332
Ni 7.496877223039857 6.831828416383766 13.213076384947342 0.11298712842270864 -2.9533788930709393 0.39834641209466237
Ni 7.868707284432433 2.735924493803162 0.5527824782773642 1.3056740624244352 1.2825873558083007 0.21664115236994946
Ni 2.563733505727171 0.6712978207291995 9.919703238375916 -0.9363345790850842 -0.556505509068319 2.513435888481413
Ni 5.416348959249843 1.1723168699875026 6.402285096028143 -0.3620910293070538 -0.34129363294572834 -0.42537924784273834
Ni 0.46007474050490965 0.2563687758918437 4.378340145025439 -1.5521592947390108 -1.4435024182605398 -0.8347065844289367
Ni 8.733733690789743 5.089488010843107 1.2468558052030336 0.3206885551008671 -1.4794045314737878 -1.0655281420643261
Ni 1.0617285345531509 1.4237504801530876 6.265334704592551 -0.38531888948674287 -0.057240983900340124 1.2343071806456742
Ni 6.287322450742615 3.4736283820911047 7.101242352254289 -0.38476867341022764 -0.6062324439798011 0.2979610315963642
Ni 6.044754572109742 2.596909091421302 4.55737760049661 0.33530321969024834 0.13264912562801026 1.4821936641831506
Ni 2.7719363816388207 6.906597000579143 1.5098102916802705 0.9900922324225143 -0.7688796586317983 0.5608501591902599
Ni 5.1940926636950095 5.846067032414832 11.75220968899575 0.21409858845375387 -0.4281331564387917 0.6350915343033385
Ni 2.044534674677848 6.892543580935959 10.602269413032554 -1.3872729063438496 0.2577880589219044 -0.2465384541500141
Ni 7.452274084523893 5.602016957178966 10.95417216454046 0.45080565833564296 0.12212225795475742 0.1835471980294581
Ni 4.11161337669997 2.700800094056949 0.7346708748688568 0.7067962590374924 -0.3524514493347608 -0.7935198257779819
Ni 5.033759248442955 6.857638765871671 2.8507059817261022 0.04894429110918667 0.42603307937665336 0.5173404088330832
Ni 6.406620978559983 8.293814079277 7.302187954428326 0.17260946807103175 -0.5891916864474305 1.0271695968907857
Ni 3.6184627785439707 2.5953902973713223 9.838473374914903 0.9004712895295718 2.3461329202249597 -0.38040062624951904
Ni 8.162657978635696 4.337044500780966 3.411870190299769 -0.0338179769907095 -0.027777684333900543 -0.7807797525034941
P 4.869601399980711 1.0924337925756284 2.129158036410773 0.4533333098535031 0.3185640525586965 -0.514273082761669
Ni 2.8583612526997033 0.8994023883126293 5.029678633103854 1.6750382283541347 -0.36509022114469386 -0.7472623374723388
P 0.5846076181776578 3.0855307555126035 2.0187224953175935 -0.6081530580412817 0.06297043018494962 1.3158486889645917
Ni 4.966758472370667 3.495641746454061 11.606609490964672 1.3094101324280996 0.289032875868799 0.7578316283477529
P 4.253007613136015 9.083221010796475 11.86561877265666 1.0378607580560446 0.7382966436386188 -1.5218950965378306
P 2.6836358914198315 4.482473605747378 4.892634918178444 -0.3528134606598698 -0.005125751262339559 -0.49597325601121683
P 8.803589067727053 7.521214525286517 11.550795639500274 -0.009187837146855143 -0.6501371157825513 0.14043134067659044
Ni 4.482308917235935 0.4917159782340913 8.725130545939166 1.4124398925277803 -0.6742820884598709 -1.054112701138533
Ni 3.273495243240189 6.9083262299493 4.4595032181457 -0.9592145690070513 -1.2802193697967563 -0.5662543609249668
Ni 6.590074830946363 8.294271547364344 11.887967918595725 -1.5602520990494742 0.9962466820596841 -1.5284136143826386
Ni 6.996535226550821 4.8530410552188865 5.4405691496661435 1.702401965079068 0.160845128446252 -0.4602148674646849
Ni 7.183712869168176 1.352056081504657 8.00402451479621 -1.4882398703772306 0.5061553387505412 2.0348944547933985
Ni 5.077639587380918 7.550702918196661 10.139971377623157 -0.48601948723261457 0.46452532191458057 -0.4474369989737262
Ni 2.583468679015158 1.6939860287084794 2.27193291153442 -1.8237091833316978 0.15066150304503084 -0.8974810965529962
Ni 5.328405294138982 7.173099609541814 5.3535138875809025 0.29829604633827983 -0.3827012493582377 1.1165254590477998
Ni 0.7900592810120256 6.7053842370420975 4.697126781690568 -1.8671880804509393 -1.8683967560470596 -3.4647070342716715
Ni 7.380076470979383 9.378095790536172 9.87762806851061 -0.7850711807899964 -1.243680137220142 -0.8005682479843309
Ni 5.567276830626121 1.4141985464893612 10.82938127486645 -0.015944696254714473 -1.104746978355633 0.13699994639753826
Ni 9.170679759734753 8.563985582300164 7.31061085685249 -1.372195700295753 0.5000813646423193 0.026687022372883073
Ni 4.775399571434994 4.940225323304759 5.637148676414577 -1.6380171710450953 0.07779129724786601 0.11062222773495786
Ni 1.7636126716021188 8.15226430369126 5.719623768009337 2.3560622635235293 1.8896276404013779 3.7496737104908973
Ni 6.545865114985514 2.5741271806716095 2.325443868647132 -2.2140396671004194 -0.501712215377523 -0.720429790660527
Ni 7.830536147224513 1.3210671932680267 5.946213201287486 -0.3547063068072085 -1.3522259420420455 -2.5200775621676472
Ni 3.9634120151242582 4.041666506145191 7.818197317972692 -0.13537295231707655 0.524627943633432 1.1758372094342395
Ni 1.189938540711964 2.389566255513857 4.217500770068783 1.790292298434149 1.4190496845348142 -1.7105829582279637
Ni 3.468449843342379 4.535585650687927 2.0833069249525358 1.9418886545886234 -0.07284886564092616 0.8164759203535228
Ni 8.08809068039875 3.0080905576871424 9.907918860445955 -1.2288312451327676 -1.5170642508080905 1.385256390134453
Ni 1.4568711696767376 3.4950470379405143 9.256472409898928 -0.06533944463775843 1.2353266230491242 1.4435633534054624
Ni 5.709558555151612 4.617646276195556 3.314477064376745 -0.10159739852852825 0.2211099867745805 -0.38893488897277534
Ni 3.438430787450917 7.245882782238121 12.462281589871987 -0.8182466391007005 -0.7903748523910968 0.5427094837254912
Ni 5.89920652544062 5.076834443547194 9.105488727415993 -0.5211602967998057 0.2759762997951569 0.4527897786452073
Ni 9.087411418476538 6.176642621690794 6.69198591169999 -1.754413839369985 -0.20922171997742675 1.6567952229835465
P 5.643298877380819 2.806374579254019 9.089968665084788 0.2975211158454683 -0.13048785631063334 -0.18382693405340597
Ni 7.0309825735277665 -0.05518986499326171 2.214084242017519 -1.9775531978697682 0.020104741169675054 -0.16587883421541752
P 7.785722573388371 8.182484645541152 5.631645335323838 0.6458904246910554 -0.018068684576252752 -1.0282939403032163
Ni 1.6261343619937316 3.6251143645339408 6.971497083194352 1.5393022362706843 0.3025105986402597 0.07146201259572854
P 1.4054243085741178 5.762066742216867 8.766187391842045 -0.5505965997830519 -0.09554964967255157 -0.7801308060655854
P 6.639829060125813 6.028221675433158 7.208544236949167 -0.06092743161299185 -0.1951924955778703 0.853274577239111
P 6.836640980662616 6.1061376400694565 1.94919649540317 -1.0842558003808165 -0.8116121645033183 -0.719721965960225
Ni 2.6851638348315574 1.7775197014573527 7.86372637189744 0.44365104956873275 -0.6311603175697325 -0.6364943281881361
Ni 8.650657486128212 2.9224982785452243 7.244378627166937 -0.2754569369565772 2.4279909313430315 -0.36774437093808926
Ni -0.20540317121710935 1.026192413528329 1.814522465170197 2.3510637818676736 -0.03498371516403652 0.9909782345718933
Ni 2.246067665876034 5.8820697708887435 6.555438092181259 1.0567100295520642 0.15450813048463066 0.7778561510987958
Ni 8.205138465226389 7.119722233110606 9.094561644681713 -1.0723940159462242 -0.8343905958504148 -0.49547857576298543
Ni 6.148233853466781 8.884368782590121 4.287000236834141 0.1774583115229008 1.8923872054243864 0.06912539404275192
Ni 5.396650383408844 7.647969782927579 0.6542342610712971 -0.24045188163630202 0.2498837164731632 -0.3060774900559116
Ni 3.4762816969976953 5.4840359374531475 9.620829272616662 0.49687005679387325 -0.6176157461160783 0.292068063150697
Ni 0.6467921702263975 1.9582836414901559 13.127681732019159 2.4694972781169335 -0.9542150589099309 0.36998380179156926
Ni 6.050637611712975 4.412169910084471 0.5564010508482491 -0.5279433811599101 0.5441680705488887 -0.1586244666458494
Ni 2.8903291226432484 1.9279535072992997 11.971059677172226 -0.017481701724531184 0.18245987850255027 0.5282213174116451
Ni 3.8227222795427216 2.7993936162411615 3.8134805092422135 0.4414234457897946 0.7982257158940833 -1.1952901759525285
Ni 1.617808442804085 5.172509319334156 3.010541671699127 -1.7698312023663199 -0.18922162270641607 0.9198967452440351
Ni 8.1913961238826 4.752178491321452 8.645494501294456 1.1645863191107686 1.83250338458456 -1.1857917495437902
Ni 0.3354027925336091 4.1648352139814815 5.2723910716523275 -0.49579225034866226 1.4923063271371202 -0.24581186039663472
Ni 3.8459708077415047 2.817170826115319 6.0159944683946485 -0.41588776341253536 -0.524282130258239 0.2066313335424312
Ni 0.19289507877297082 4.046616310850244 11.75202212707994 0.5418813313972409 0.016305164917926756 0.09426281254032798
Ni 2.055660298562035 8.335333882884271 8.41536975463732 1.6049527843909586 -1.7591554678200283 -2.4001302003770215
Ni 4.3961951244744455 6.631695277532851 7.685465697238579 0.3629729176913749 0.7257175214220276 -0.32433360805262207
Ni 1.2217783195910525 8.340759454400162 0.6718083551146745 -0.907233805064386 0.8710547840406677 0.02465507954451883
Ni 1.624350236453093 8.839610104924459 11.950892654009788 -0.19248486683872013 0.5822764473848359 -0.46792689139696186
Ni 7.635517501590095 6.618995963428203 3.924759621488454 -0.7643198071752578 0.9360494437444976 1.0576515675297269
Ni 0.9877742435532446 6.260459924653822 12.955566683645666 0.06645093253438233 -0.12822451419775338 -0.7536893240446052
Ni 2.856302646306659 4.4713479818631905 11.776059330261303 -0.8565653321752409 0.4184077016209117 -1.0245043913537968
Ni 0.3796161682391574 1.4833402732104164 8.686055451790656 0.48874614213515827 -0.8453092996454474 -0.06451643451583082
P 7.234409482607553 3.5899350686172466 12.121119274118726 -1.060027266850755 0.44334303141001064 -0.8360160472689795
Ni 0.3983412519902904 8.698700784660998 9.890751913000312 0.39150444947216445 0.02381818546552027 1.2944493973532094
P 3.608984039774219 5.245539524797629 0.17035745598191934 1.0595469847802268 0.5690794890785877 -0.6296551937791156
Ni 8.134880516372217 1.212967484228822 11.794069848860005 -0.9957455740535496 0.7397611439992873 -1.5230572351667317
P 0.7824470120386343 1.8402934724025906 10.878366042722986 1.3525406450689867 0.5937080862605452 -0.47572941816051617
P 3.8674626584848895 8.812784176282651 6.60628384021711 0.03943583739811918 -1.1846339817902631 0.6629077851846583
P 1.3755882399175927 8.480552552530506 2.7267723872477734 0.1326997763602876 -0.5418075407365122 0.4624920935346357
Ni 1.680417525237879 3.943484705239587 0.4691499924216246 0.9177419036845613 0.6884905187497691 -0.3698051101218599
