# total energy = -381166.8654369703 ev
CRYSTAL
PRIMVEC
9.26409230647149 0.00000000000000 0.00000000000000
0.00000000000000 9.26409230647149 0.00000000000000
0.00000000000000 0.00000000000000 13.55893551931886
PRIMCOORD
 96 1
Ni 3.796823310110365 1.777649582117634 13.342101015435322 -0.9437961775694519 0.44875237535104007 1.0290125636367955
Ni 2.5655698817157644 8.557918177571855 3.28367598303555 -1.2445175455197728 1.1045968259310135 0.12384978216882542
Ni 3.20368054750828 9.23409499791927 7.43192336393821 -0.2804803583130976 0.4230716827554843 1.1041090876613178
Ni 4.363424448765069 6.30359399908825 6.897904963707705 0.6890625892031553 0.7587135167320739 0.09734813633387106
Ni 6.449623883305548 1.2101776188028759 3.146744363697388 -2.2263873900324946 -0.2271687913741507 -0.011708289575863708
Ni 1.036577796411965 1.9525926978671384 11.372027902131425 -0.9036010934078051 0.3157864898135594 0.22778354214001414
Ni 1.3686954992090277 1.8162159976474574 7.467258464133706 -0.06410402956876056 0.40835828780470956 -1.5236694148294339
Ni 4.654177980209583 1.2714317959547359 9.251627292271946 0.0409702717647746 -1.0785970594331424 -1.782675919539472
Ni 5.390312004810904 3.2677417445749937 3.528034941101885 0.009870722146492678 -0.26124696400478237 0.4082945244463097
Ni 1.7444100195615428 5.048031592949173 5.063245085042153 -0.4234023266220256 0.08376679810501057 1.632174596221389
Ni 0.6267667849814972 4.715552590559109 9.193880500399834 -0.48330157408081925 0.3463589632837777 0.42256517543271094
Ni 2.340813742592765 6.12381502724781 2.6240068484514296 0.6232888852414555 -0.015678329967205255 1.4344287380940457
Ni 1.5367553945072567 0.783635656988824 1.3445829202176693 -0.27527284597022916 -0.6735446960732142 -1.7087564465421865
Ni 5.810568280115953 7.121983897696131 4.887358884713995 0.3404639379555814 0.4273836798672769 0.9253539117038644
Ni 8.394721930640948 6.076818287881297 4.569862698522918 0.21836404859832717 1.3629178745382529 -0.44540916991042
Ni 7.528223601611166 5.199731101548948 9.099170907345295 -0.17406419823968733 0.5549011406956766 -1.109378306480057
Ni 2.0648549662770352 2.9385237026140674 9.29353804506006 0.617513159099943 -0.5374770316819583 0.9840653095021439
Ni 2.5810316514777814 3.349719695817705 1.3020385035279836 -0.2651745811939627 -0.16033476446873676 -0.7117754574196387
Ni 8.662037309001038 7.944070169063176 0.6630523810293505 2.7637394661008146 5.4224326558925515 -2.281979525475502
Ni 8.352051522298318 8.850561583810528 8.680213457756626 -0.5822152551295973 0.3391153943474869 0.9313371258704928
Ni 6.912652471966635 7.129015343621458 12.744599497486906 -1.1531289692034463 -1.9863317153933469 -0.5561712656573519
Ni 4.685731477998336 6.328180899596574 2.10331669756581 -1.5943796368608025 0.9918094722239369 -1.590363573722874
Ni 1.4524984766010007 4.268310014884527 12.665293310413976 -2.3882902703192994 -0.3233445046664754 -0.3627438323997043
Ni 7.930952214609601 3.3344987924510225 7.0133049801214336 0.00914104306931974 -0.06524277115889408 0.1319379584935986
P 6.5395041051336396 9.03934525319961 1.3498690111860376 0.8744434980072425 -0.022191191385058557 1.187191200994478
Ni 5.16888167476194 4.359904093756342 7.909455815235255 1.334648081059282 0.21728495660153546 0.015102917079709472
P 6.140694203105446 3.6652268814288504 10.8485992856127 0.12839857788177242 0.7475654705350545 2.9343054213792565
Ni 0.08307111411384271 9.592411553254967 4.112723293227747 1.8732013765245543 -1.5227780133634161 -1.9479654569103226
P 0.36872383643255263 7.416924798782605 2.9122831616608544 -0.35882444274064007 -0.20961689853331641 0.033272131789568504
P 1.9573359130367922 4.023710190422857 7.2528234500507685 -0.47795650771882203 -0.15944336300271897 -0.5691113707577876
P 0.5442431787124329 3.3562323525838513 1.374997861083863 -2.241891142095049 -0.7048388782008055 -0.602663238571304
Ni 4.859173810823067 8.398288606110315 3.119816427108261 0.6776862290454135 0.9702919098671354 -0.23001860211812
Ni 0.11761969288765266 5.442051959347072 6.9397888506286485 -0.5824597670402356 -0.736307638233048 -0.4236877190729284
Ni 3.139730519547105 3.9702563788429677 3.7000302227361868 0.21419217660882464 -0.17118019182367294 -2.5286269943995547
Ni 3.5817852036298787 7.610238609222391 9.097991588417372 -0.421145669377365 0.5950198630934334 0.07041017429244648
Ni 8.171716704930184 2.254120368456784 13.297071969236844 0.8518393874544813 -0.012649827553526602 -0.9866454115244945
Ni 5.673283698867706 8.749258736388327 7.567960071976785 -0.21089936479016583 -0.5668904518470689 1.278672337024611
Ni 2.263653119256733 0.22179255605117876 12.532957607180629 0.23132935050974354 -0.554336012220826 -0.26492646973889855
Ni 0.8563439576480281 6.217252660453142 0.9166003920776776 -2.084055747009398 -0.5692818348973808 -0.42530854250580297
Ni 8.414204316386616 1.2948051003942613 2.0163898683081976 1.2368626000776763 -0.7317274750615334 -0.8663285822095919
Ni 5.957617214467355 4.881491008759974 5.395927897459038 0.18583496562237029 -0.1545289564202371 0.7005793315935032
Ni 1.8561720269965156 7.215254777243156 11.783623177705792 1.8941990618221438 -0.7944135412368448 1.4279858106821794
Ni 4.645367828595636 4.015335451138937 1.2738663993660349 1.3548183853595699 0.19616437257283637 0.3531016813242499
Ni 3.513879408329949 6.55463236757904 4.594661746740979 1.9541268485260284 -0.11058340407722246 0.036340229191930966
Ni 9.038891312685326 6.503772501795055 11.65193874014906 -1.2330997906011345 -1.4305540856299879 0.26602330234750315
Ni 7.902585564512959 3.87752281663938 4.549958796585416 -0.4722401740603351 -1.201421228550931 -0.5596034312673523
Ni 2.05289502333949 6.803048997997541 7.070985070530222 1.209123482291195 -1.5347768375965052 1.6201847708493644
Ni 8.870877737847739 0.6364922288977136 6.328538493552724 2.6078650513962764 1.6637197180175218 0.9574068263743511
Ni 6.837585533451583 0.04730152799753201 5.722331508231409 -1.8267459132754926 0.5446378110964556 -2.1997643881283278
Ni 1.5057577422461974 7.273331370795032 5.050025225575169 -3.1452880899118476 2.1620177655071733 -1.923363342090926
Ni 3.64863489242719 3.8764296537682488 12.245467815392889 1.5159964716652086 -2.0110338461257173 1.5812202166607092
Ni 6.8013536691380745 2.8087523000818146 9.162843938951836 -1.13952809059056 -0.39472321351977824 -2.410938860956751
Ni 5.606480330531036 6.699578353017333 9.324737654529514 0.7118299648066579 -0.49757196795690434 -1.2200619835805697
Ni 0.3069147401622117 8.753872254268186 10.876136799463866 -2.122343586846003 0.17570584760816838 2.3484456275185366
Ni 8.43040721351889 7.706436941881935 6.481862923911789 0.09028043085381227 -1.8147365475194421 -0.12485482639457204
Ni 4.728550111815017 8.77306745315788 0.2786824194014293 -0.7294397074686212 -0.17307175241943096 0.09088489720703057
P 7.44124304061921 7.261973593845822 10.41429308818598 0.2602398628965067 -0.02537113177493695 -0.060786792270069515
Ni 2.862660052175988 5.728942364374114 0.18691973405288076 0.3924092206746209 -2.3766079488853653 -0.047672109264982415
P 4.308960851143202 8.858528703040806 5.7065899628871195 0.6073454745383218 -0.317389315524305 -1.7926517998052611
Ni 7.327035312862384 8.271500241243354 3.5672063018476825 0.8884727224067989 -0.676479610331822 -1.503432518957269
P 0.028534330164162704 0.47051397510069787 12.989744976974928 0.7717335831408257 -0.0970257199974458 -0.4992488414386951
P 2.7108030540100336 5.243652162328889 11.090341137652812 -1.264408628016745 1.2539624929827566 -1.1708844934146545
P 1.0190779263817376 8.439513816080941 7.666669900012293 -0.5645959993859373 1.3853749179901884 -0.26627347068509627
Ni 0.6519113838359404 4.693744917689255 3.027777671814291 -1.387139723200095 -0.8772043485818313 0.21444388760831457
Ni 7.633195029516146 1.4943629089284742 10.906278449612277 0.028808182480943936 -0.3935672455384641 1.2527026524337266
Ni 6.774645291532386 0.07748671937894538 12.69661427949031 0.9978549070870686 1.12900302268952 0.22782365134933022
Ni 1.3266828414075025 7.024192141190531 9.570045255629783 -0.7289000329150672 -0.22135758400901231 -1.4235776543121548
Ni 5.698157786232003 2.400854323675827 6.032167216641652 0.9911021617442672 -0.20670975218885043 -0.3640949471109601
Ni 2.6517537307846926 7.772665936506655 1.0865408980779376 0.28409687201976236 1.9751821265344307 -0.9915251082142987
Ni 6.16789357759393 2.0484945795785805 0.7815354873033541 -1.2260282284663335 -0.7774638007563835 0.09771683252719945
Ni 3.9698302306050692 1.4645417963677003 4.216231920985679 0.6985905832982485 -0.8766307354665483 2.505616135326678
Ni 6.007467294209364 8.919727295639897 10.131290822625157 1.0346777323423728 -0.2012024492173761 0.5515072845227792
Ni 5.162850750786462 1.5294089694495698 11.656169651024022 0.8390782311340712 0.4276081371732571 -0.9288583253126972
Ni 8.261439437192095 4.0890498322032665 11.041787104399543 0.4438305125693905 -0.6130255556422345 1.0586206163112155
Ni 5.029809123732944 5.556593194420514 11.313345436954362 0.16436188335025886 0.349640719358843 -0.033567037322167995
Ni 2.0417132641407156 1.9770776933620513 3.106188947587634 -1.139871589972908 -0.025304540203059646 1.832292811235651
Ni 4.2031556549466815 1.3666018143880476 2.0073323654344266 -0.41667914896557917 -0.033720789291212895 -0.5387229882739174
Ni 8.40721919092193 4.502830507110681 0.05316662472391473 0.8319817292986059 1.9456224105994426 -0.22273029598682284
Ni 4.3083864774312515 3.2459062794287545 9.959051895367882 -0.4686611984598252 2.014680184629053 0.00845944362126285
Ni 3.8139248241790784 2.5623181853787558 7.401022984644498 -1.3758757202505014 -1.850754360374948 1.6114934137229537
Ni 7.596740826991558 3.4583226478369515 2.045270675517956 0.16191933534703726 0.6106447141148837 0.3544959905686153
Ni 8.96682594001982 2.3196545561718867 9.28949797448294 1.6718611161777335 0.09445770215995346 -0.9039373937013013
Ni 6.164067507544971 4.131266300031613 13.057864772803018 0.16331775835646065 -0.19708379906331217 -0.8846001268252701
Ni 6.291319077018345 5.208467140425869 2.855863914190718 1.4334080101390154 -0.18622397353067283 1.888715927220386
Ni 3.0018437723105222 5.2060492123804005 8.92558961313864 0.8054700561613226 0.18993381828209224 -0.3632868493873679
Ni 4.2258526806608465 7.861369618634463 11.510912392090217 0.9991977942682081 -1.0456684270259218 1.233293137558863
Ni 0.7403473337012414 2.9829079680004194 5.283483126434215 -0.012194228073346742 -1.1875169597650128 0.21312568301752324
Ni 3.797555173388495 3.9303744622309353 5.752934510167805 0.1770083684696758 1.6138079207887432 0.05831210547733184
P 7.911367923850523 1.7054174557938209 4.5016882445512705 0.26504216938115643 1.5583232574578774 0.9667751549631286
Ni 7.610331250143672 6.583036074044195 1.5817714709767543 -2.517139819695562 -3.7967074148409323 2.5570376843317644
P 6.690304996796976 6.434078736714376 7.007162887040417 -0.2932343155446563 -0.6833241440574812 0.4067510912185898
Ni 1.4695536702090728 0.5008863011431015 9.38220003877329 1.7275823209994376 0.32546489344358787 -0.5617916971679228
P 7.296408224286455 1.2500132149542669 7.575499190150739 -1.4027468336097326 0.33351501744157397 0.840973648384571
P 3.432170115758957 0.12571928863536455 10.460542215317744 -1.4493578486000522 1.4961712094091653 -0.09048071979007644
P 4.5913211151195386 6.589715484468649 13.314318929551973 2.8038689871318487 0.9021448205772526 0.09362749294917425
Ni 1.9794956214075197 0.4665109608920895 5.461498215133441 0.5925171512762376 0.2080528964803062 -0.31054889556370385
