# total energy = -340868.8462391822 ev
CRYSTAL
PRIMVEC
9.28318857030927 0.00000000000000 0.00000000000000
0.00000000000000 9.28318857030927 0.00000000000000
0.00000000000000 0.00000000000000 13.58688483172914
PRIMCOORD
 96 1
Ni 0.4529165576591766 3.73777375303262 12.596387316153171 0.20037506822007425 -0.05200801763617495 -0.3391292783045579
Ni 4.601082438258777 5.917215777577503 2.076279806869246 -1.2214604065899932 0.39595142949992457 1.92102800908953
Ni 8.944110801311723 1.4149250318268372 4.159040207662558 -0.9548079552989235 -0.26342597393397216 0.6277518061088156
Ni 4.820936192597208 8.94866884688788 11.096095939093663 0.29420362143646106 0.17785580407163565 0.3670463164298001
Ni 4.859182929407339 4.608555405038427 11.604720911218276 0.9475584728253615 0.1280224254892763 0.294779291434273
Ni 6.415101028873077 3.4407117195558734 4.110222704054928 -0.307320104213761 0.170772414862293 -1.8953316327646907
Ni 9.207084966447011 5.190082185134797 0.8281541785207477 -0.038980237917939316 0.5821329798284361 0.5319946684111483
Ni 4.975482715513485 1.2126165038406262 9.238442649037047 -1.0573849441319016 0.6766760426133442 0.5123920636888724
Ni 0.6972974244553861 3.814814934777105 5.8028357548627 -1.8606533646562147 -0.45538299329368026 -0.10822647380927167
Ni 4.462772212109713 3.3442036914301148 2.49831583782966 0.716712746820256 0.7439039625230671 0.7194931377788706
Ni 1.3343562384348158 5.990961427388106 6.695426401719973 -0.41224373890204485 -1.7451007894991752 -0.7670140661779693
Ni 7.026046233472192 0.3052498057744496 3.516706685951207 -2.487777050262728 0.7430359580958171 -1.2014793354823758
Ni 1.513865255351686 0.6181935182159469 6.427452311233727 -1.0318556895125455 -0.7036556565259817 -1.0364021712326474
Ni 6.793771572859014 2.61453578851431 8.750986131754216 -0.24258178349511125 1.4629792960382288 -0.8580717415174384
Ni 2.536074278922264 8.396968951590285 8.515688864950413 -0.6353332180004995 -1.610122501517356 -2.5525223129599137
Ni 2.91696350497073 6.784516233878504 4.214366154759893 0.7079200882292904 0.8551404268032563 -0.15454206904635964
Ni 5.654845019697714 5.042321673045753 7.3960342112109165 -1.5865876516202095 -0.48074666886944956 1.3990483017122228
Ni 2.646971249294552 3.367615892943501 11.752873173863966 1.9697581273053817 0.027605420422094393 0.7269796759639028
Ni 1.2017087572989023 3.8178505374316956 9.97996054213201 -0.067350047309884 0.32986379384223186 -0.8586852067317212
Ni 0.20293699985078495 7.833163778428513 1.1953154253471698 -0.29942527484671655 -1.7432485667817847 0.4532934577545032
Ni 2.0871949799618075 6.3806047002355895 1.5683204393633923 1.0402840227855568 -0.3894663359962131 0.537518683553171
Ni 8.088386481127769 2.471602534469264 0.13467400119553777 -0.02644096780034801 -0.5162255785023496 1.4283956445260884
Ni 7.114774949596277 0.19957741391593384 8.508569587654371 0.17907013609471095 0.09410726079907018 -1.5704038427714955
Ni 1.035224053912278 6.009713468251325 9.014273140343512 -3.3335635466549105 1.393282345762723 1.863286688514004
P 5.173028967775522 4.900883012356638 0.44489402611759515 0.3180382619622136 -0.43049368625116835 -2.669974676242828
P 7.382140062913896 6.708022760258242 1.0977574685968423 1.0373347103492456 0.04458318592701354 0.9652767160407311
P 2.3765148341910667 7.759594509200286 6.238024207355297 -1.8068905691124624 1.7727033817077924 -1.082041052117685
P 2.2186077970210833 3.883659061035341 7.808627382782188 -0.8200556672849812 0.712374010235586 0.6922759539341303
P 2.4247038659341227 8.262223469842942 0.7008890901038909 -0.15918779534848715 0.8289635112975724 0.16494269555439334
P 6.011458707698002 8.236072727708443 12.886888920284354 -0.08939391448380088 0.9209964060661171 -0.6613689799426287
P 6.26173347090216 8.489383093567191 6.575304726889377 -1.3518611025034588 -0.030324876235786485 0.564419364598757
P 1.569053811258538 1.9563484374038467 4.401852215594469 2.050452714242972 0.27917243813495146 0.8327024095147143
Ni 7.9556461681063935 8.51349153422154 5.321494073875218 1.3124748873963525 -1.4352460917890184 1.0485722309362782
Ni 4.44169009092141 2.932401447522975 0.12410137776032942 -1.0048174544478308 0.3866826026034889 -1.7817310391276993
Ni 5.597437781728331 1.520549151104913 1.4879400946988575 3.144666911388081 0.558556992280709 2.6812821308358465
Ni 0.4782912252312184 9.250288925940787 12.68197088799782 1.2886672434537936 0.15288216484543346 3.0213658026338743
Ni 7.172432833656405 7.106568610921482 3.399112823361728 0.1895700071847703 -0.7342286442168323 -1.5550633557596831
Ni 4.211067837869447 0.5475651631191412 0.20698168510034176 -2.207771831813836 -2.24426067076849 -0.6971535937414058
Ni 5.631089340208119 7.976347678564305 1.5196384703085357 0.49246472863732604 -0.064636762143779 -0.8624657568200759
Ni 0.058928752572095025 7.732998174015571 7.276809292393878 -0.04290142734921643 1.2352703158898921 -0.16526485478050248
Ni 2.4210091568927554 3.921265257835788 1.2625099290007553 -0.3837687713908036 0.3712595831801993 0.021535302968614525
Ni 6.806600939429791 4.186504520976339 1.656771588149948 0.5599176200736615 -0.3733329207694603 0.142639918292135
Ni 2.5343011899099497 1.7853335380067017 2.5412905025663446 1.532849024446173 -0.23217318656727756 -0.024097407268835917
Ni 2.7071263110735933 2.9095276709452653 5.946803156111788 2.637450478362877 -1.1488671086032989 0.30515780645511964
Ni 4.274546281148009 7.251599865577957 6.716282941426605 2.100517492109847 0.7773177620968226 -0.09347939740708416
Ni 8.263003257680818 4.755415447838493 3.6445733249858545 0.08494539179414402 0.13211305061888212 -0.35698893219379807
Ni 0.6992209011221481 8.451340586905076 10.447240977428642 0.6414030783436631 -0.2139219536665735 -0.061997524748719036
Ni 0.7155834492535891 0.7641809412926757 1.477696096138183 -0.17163450575227213 1.2945512130383963 -0.839385992182477
Ni 1.261288261388082 1.5989363951885895 11.276870254609372 0.8445785921270098 0.12989213170816338 -0.4278914727416308
Ni 3.3300096961430543 0.20186664821141403 4.844906313742218 -1.480622977261921 0.016835326389783908 -1.8886807031070763
Ni 1.3159662419248959 1.8582344176596046 8.373039676474878 1.5900671255283776 0.11071838699318996 0.18433112738333415
Ni 1.7847208475626561 8.508590010669174 2.9349301880829457 0.40567919831064975 0.1198090364405485 0.38748375834854554
Ni 7.740294760212844 0.00691968874229897 1.0136564219630115 -1.0713671173436066 0.7834256747667734 -0.4501811373777666
Ni 5.141744622375001 8.098245227363778 4.575832165413254 1.1784031703892026 -0.5004356626579446 -0.11063816857455784
Ni 8.24313723419206 7.59673024934666 12.709294096845701 -2.706220288838423 0.022178592979568253 0.15243427867473747
Ni 7.045290283328357 1.290316791971888 5.935186173965137 0.3449091182111286 -0.6443912144377096 0.9255423735655867
P 7.297282436413553 4.757225669604992 10.071223568729195 0.9923617451829814 -1.2451551791037716 -1.3088257206795395
P 1.876772945186263 2.168432162929151 0.08173661851112687 -0.061960500863196516 0.13504102289895453 -0.18136535988679087
P 1.7204904660118558 5.442696311852585 11.43578173278005 0.4031291781952863 -1.9489355341330759 -1.1899654213055055
P 4.748852233536366 0.06173134719417721 2.8396586806715347 -1.2611168446393506 1.4362153976808234 1.357755870721339
P 4.955124683031782 2.9400786444506397 7.230885358656082 0.14120549983845357 -0.9212172638276714 -0.06167073753691959
P 8.521456509994135 5.43873239034338 5.64775544860502 -0.8906687016168532 0.06473060740916593 1.9808354681654659
P 8.415711709264958 7.859500184333935 9.167668547880066 0.17154374581067874 -0.5104331401902886 1.0102399110149827
P 8.399456846120653 1.1627843477249022 11.92984231039461 -1.8026616186327793 3.3068829520399308 -0.9161383066428674
Ni 7.07514501769277 3.5916934980704296 6.222657745354859 0.9120754494274034 0.3876387958691711 1.1314651110767675
Ni 3.103694842576504 5.53137861203394 13.160432923898288 0.41292199591599205 0.1471375490521724 0.0010335834708369296
Ni 7.2976537639554 5.473182303038136 12.977363804173972 -1.4008287906514134 -1.812632356692246 -0.33619822070069194
Ni 4.943093670675974 8.061205305064647 8.748174253943587 0.43934368044263045 -0.026173830181890408 0.9994433346201111
Ni 6.196639752816568 1.28681702988999 12.674009625500645 0.18025258643858633 -0.22359187265616975 -0.8282032360927801
Ni 2.7543034752651194 8.698644729774468 12.247367276383631 -0.12528574328440356 1.6010521637849717 -0.6758532896017327
Ni 8.849218047992993 2.143367553854551 9.772054251452474 -1.8168129704324967 -0.5730595567722583 0.7595846064831175
Ni 3.8065807465366714 0.8818082233609212 6.954446856853459 1.1949466765701808 0.08167212035951095 1.7535733457465608
Ni 6.5830060601072615 6.616871131923611 10.82094872881781 -0.2935325635113655 1.2470703938486136 0.5894092017748752
Ni 1.0729509321638246 7.077001655401999 12.478099999379292 2.0530194465288836 -0.8237151184144393 1.9173492746863625
Ni 0.2822145017160371 3.079549269167972 2.194431589090349 0.9208148861829302 0.11829568511981563 0.012115552316611392
Ni 7.3875985777790305 8.980760829691915 10.83943991208288 -0.5426801731494525 -0.4419222398030841 -0.2570630078304218
Ni 3.9657131645947463 3.729251785947256 9.414107497576957 0.40003614109225943 -0.1240824670049218 -0.5439425848016439
Ni 6.354323993461445 6.077731390728955 5.330610165027535 0.2766180471442139 -0.535942854425619 0.6318318897154602
Ni 8.573201002950364 4.62418829455014 7.984957835940857 -0.5349000149834013 -0.21104206101561718 0.22030214616130447
Ni 4.944820343745557 1.9963775464148381 5.080095895558886 -0.6724640614145257 -0.09272169330545321 0.17317356810461787
Ni 2.6677655916379246 4.336725078030111 3.752208182903026 -0.5833007748842921 -1.2760559824476863 0.4070038306593442
Ni 3.5237869738553544 5.274512784962016 5.940444171957676 -0.27366744915632224 -1.6625323825776401 2.0227853302346905
Ni 7.389520197808084 3.3289606958373397 11.653050119108377 -0.3795161667620367 -0.37047051162000066 -0.7568129572752514
Ni 2.982855577271291 5.893107336923157 8.421341034799344 4.501644252072182 -0.4520953236813439 -0.40176237975474677
Ni 0.5524434787001421 6.568682100180555 4.369990455866379 -0.32981982797817394 1.3437364165137955 -0.08093267109032513
Ni 8.922852299541043 5.8581746984239995 11.081992919054354 -0.7550949461428802 -0.5163327935041753 -0.4984872806823221
Ni 7.011555176151654 6.84507047276503 7.924795347610979 0.11160233226004006 0.2205353452180331 -0.2922804362718192
Ni 3.2334088361318347 6.902254914209303 10.971015184941715 0.6120724477003459 -0.48148868924179655 -1.4028669041273647
P 0.953745508042734 5.127244281865918 2.8311803445723376 -0.7932598872483757 -0.2801551137631949 -0.8186667573572546
P 7.750079240940485 2.135987418960363 2.485177341080296 -2.302467103905893 0.34324407180387984 -1.0498485265455404
P 8.895866070437389 8.458302978314688 3.3790852723922677 1.2059710527051424 0.2263324115157844 -1.0281972668243518
P 2.5900374539410245 0.32618896585914176 10.042311078002216 1.039794741853964 1.7502170276798181 2.20146902952426
P 8.652906459807594 1.9333075634323065 7.388221479730477 -0.9840408840221118 0.6951211366924093 0.21185761493837704
P 4.636711315898894 2.3070580174887843 11.406108020592287 0.3800478708957906 0.3660533563889115 -0.5490572803203899
P 4.9227170718171775 6.031148350604382 9.702991970263403 -1.6843394511504022 -1.042463546935379 -1.0254415584560856
P 4.589172107354068 5.206411313787471 4.221634891391528 2.1890032929570813 -0.318675124215264 -1.5804054340688976
