# total energy = -340863.05578268436 ev
CRYSTAL
PRIMVEC
9.36708646162113 0.00000000000000 0.00000000000000

0.00000000000000 9.36708646162113 0.00000000000000

0.00000000000000 0.00000000000000 13.70967787619332

PRIMCOORD
 96 1
Ni 4.311248359072444 5.154117529089187 0.09751230631449967 0.5522377349309006 0.8711452868719448 -0.17497745408257606
Ni 5.679779684664743 2.6013991386003883 8.220994356324248 0.074852012113884 -0.055363821482285296 0.3067588323936523
Ni 8.927807532835889 5.608580460805557 3.646088742442006 -1.4985906174839354 1.4984070407182195 -0.07071587845832338
Ni 2.6112064780794793 3.829180623683791 10.556932139270833 -0.5668703972424108 -0.10564817155913418 0.7706475491654986
Ni 0.35453953735801336 3.9689843884645235 7.000298135407019 0.7218040453002343 0.11129559965289865 2.2336731250606308
Ni 3.659271043157311 5.513645039964503 2.50117974431124 -0.6242594766848409 -0.6132816375170986 0.28850271439694186
Ni 5.940109750379056 2.1865496153434973 10.682854818689519 0.00297296658539488 0.06860294588037863 0.06873021548686227
Ni 7.757539958355749 4.294940261619629 2.2075187749976446 -0.9633213920865733 0.0433732247793124 -1.7275308989362121
Ni 6.548745557440558 4.600953607791941 4.533119041373911 0.03872338471212686 0.38692068675622393 -0.05850956620011859
Ni 2.752930495575793 3.912266680206746 8.14095728643018 0.040757384423020133 0.3059237380868667 0.31410730233892353
Ni 3.8096034130712795 3.336977700791436 1.3193850332857622 0.9763525142389184 -0.2206944965037167 -0.17056595527844173
Ni 7.340863853247452 0.7356385115441199 9.103678327158446 -2.3297295391662716 -0.18106299815502366 0.3113019716796445
Ni 8.62874456478534 9.291953017315018 11.268861618383696 -1.3438459455084661 -0.023248943225611572 -0.3116282446708117
Ni 4.759969266814904 5.990448472786538 8.911372979716438 0.31390572785107873 -0.7187380047804008 0.38960954644229673
Ni 3.5270546183747284 0.3716251029834778 11.584472481299347 1.2469534086547749 -0.4654275220138758 1.194080986135776
Ni 3.7182555863281164 1.3622741118654302 7.204819100246049 -0.8321925597578314 0.1632557947702737 0.627810427260893
Ni 3.2328906365205152 8.6339245635742 9.47611555653432 0.8748147653037321 0.3437950592113434 0.15151948016995195
Ni 1.0556425379895649 8.811187306938393 12.69783500579336 1.1392131304533026 -0.8348112283276011 -0.16349747846743454
Ni 1.136302519130395 8.729347072908961 1.3839504865440964 0.7189028124930393 -1.2688288685716276 -0.14600343544772917
Ni 2.0807390071717613 5.7229900543085295 6.349623781212556 0.646127737512842 -0.8565110818985378 0.6813752478612264
Ni 0.10195792552823071 3.4881531084829773 4.861122559619875 0.7323576524463645 0.633844806380431 -0.23637102669870905
Ni 0.6141080589465866 5.628654126998194 1.2130442480227976 0.08475770126337016 -1.0781234622308336 0.9558469380863989
Ni 7.912930554935151 4.301094437395906 8.797185386161559 0.5378066471072351 -0.5751750604533643 0.2005614731992675
Ni 0.044575154134812306 8.22995022764799 3.5458440570195306 0.0438265102666471 -0.5594761616608687 -0.3278727315541321
P 2.3047528788455454 2.7621102402649136 6.282829898095507 -1.4651963582942056 -0.21478584432876557 -0.8391221969981291
P 5.699263224413079 4.9904745293759945 2.3824537973870967 0.17144990054529183 -0.37493806047305106 0.019380461409140817
P 0.4982343898365631 6.656036165266253 13.09654035560974 -0.2948685087139696 -0.5363331478855021 -1.0666203466872406
P 6.327082824457558 0.12342822430571264 11.27345430085418 -0.09783716015514764 -0.37938066962543693 -0.42702989607228387
P 5.059107171556794 0.0023314678093081685 8.405170009464534 0.8327864845880883 0.18185618348028035 -0.4046358446477999
P 9.097604708325358 2.8528866747366104 2.9264951132223698 0.8665183296228948 -0.7955512543857137 -0.5660365884872058
P 8.733983780685609 9.067255348332758 6.194813943991038 0.9582552904175756 -0.20691724021396624 1.5012979891127691
P 8.826717936218557 2.0457810406617654 9.83380149821996 0.49799028644124554 0.017073924763151237 0.35045318795780933
Ni 1.6579087262871866 4.272749633896644 13.175891754778052 0.6820607039640253 -0.6553214881969682 -0.31141252911557976
Ni 5.061364639383404 7.299339559158809 10.78648664256055 0.4673419654277693 1.422424257434002 0.6588667823460653
Ni 9.195181647536138 2.603000910377776 0.6531837966457025 -0.7279206997209334 0.8502797562768454 0.7662031402408997
Ni 6.430251914259568 0.15765649478378807 1.799956844973545 -2.434445942939756 -1.6666741726601555 -0.14917514830749148
Ni 0.04355788854987511 1.186360228945352 4.486451280133435 -1.5909523563468084 0.6497213684013714 -2.580040315874524
Ni 4.502205782778977 5.864058375755621 4.837213071539283 -0.4715657737011298 -1.509538888965323 0.4198817150632769
Ni 5.981100120541903 1.1025810080275047 6.246033172521761 -0.2697516590416838 0.08307414291336015 0.6084875585625649
Ni 7.012875322339756 8.161701636010308 12.954768565972698 -0.9085306694989386 1.0818618462273433 0.455982317440576
Ni 5.4549227752133875 4.466835664466612 11.668896157762717 0.13426403552361393 0.6402676791876393 0.04992105320015919
Ni 7.569046078377009 5.82841661193715 13.419773216743287 0.21537231295985487 -2.3751313643398384 1.6483517202018838
Ni 1.6686527744080237 3.5494887903445678 1.96105949085032 -1.2336497495673333 -0.013086143759996817 0.39300751638025216
Ni 7.319357022832941 5.6606146258546 6.984203607524523 0.28313450810649304 -1.4789299058302143 2.268311026849474
Ni 2.694339370034521 7.1966481907640905 0.01517936353950939 -0.6559215836748122 -0.2715879409194742 1.2092368679406076
Ni 1.283628054304356 1.6478297413019891 8.562448073957057 0.3239253168706098 1.3454294879455022 -1.3454117473336893
Ni 1.8703448791489778 0.6267311446027686 2.9950303377044274 -2.78243755673095 0.3917121946075963 2.0906670816783284
Ni 3.2279541819785087 3.339459978692066 3.735023607724029 0.20666784320732148 0.013943606664285664 1.2505866345319883
Ni 3.668900407994469 0.7639823783347409 4.874065062922892 -0.621302450939046 1.4124308936667158 -1.7555770064401506
Ni 3.5637829642176264 8.384347913067142 2.566917956789041 -1.7810720653874617 -0.10788451708882064 -0.48042270987112745
Ni 4.512359704455514 2.3753432420875957 12.69638217069001 -0.1409026238860541 0.48629382393992376 0.699003759576267
Ni 7.833844244312456 3.704457868035184 11.091595128184935 -0.29275377636381195 -0.6146471504060574 1.1074733761478603
Ni 1.2232290810845123 7.753793123788761 5.6192130405980265 -1.4963133914139843 -0.8754547128805762 -1.740741484089215
Ni 2.609689010079849 0.947321550657947 0.2729568982050624 0.10804032594039459 0.43151981352283747 0.46976291616443616
Ni 0.30624096637225695 5.120789435615831 11.264076910641652 0.3928725334642847 0.9340730367444171 0.08273527151670268
Ni 7.383053210471735 6.487597217307316 11.41672014077481 0.29751751630104245 -0.22597040019067535 -3.229997711546102
P 7.278703867781124 3.525490314943011 13.403896941974319 0.17981292779800645 1.5721475649354797 -0.2187988221429006
P 1.9716592858403286 6.814602204141178 2.3716507366218296 -1.2744354161251277 0.9512706315696263 -0.04248799396088166
P 2.313539205905132 2.2421151719719266 12.283391077378345 0.6411462251378507 0.4390546884473019 -1.0016125743572881
P 8.870190584282033 0.1496307751413002 0.27936117518868636 -1.6900568132501539 0.8170598178814509 -1.6277656685204158
P 0.8507609403234623 4.735268259932037 9.12640943576772 -0.12510473762184907 -0.5360631820535671 0.08103191567235075
P 9.278998336799656 5.794264214859056 5.810490818660038 -0.5519220034626945 -0.0671196764666328 -0.2622589502090644
P 4.715138391220894 3.891453014187128 9.694387404234194 -0.554042135129491 -0.06527568127935855 0.3805700619478478
P 4.7363173736107935 0.7703913388615736 0.4839692539313987 0.6610457922752551 0.30995085696838875 0.4092070089582501
Ni 2.052188127771314 8.206504410345064 7.567892990039019 1.6499866847021456 1.2317011104813949 1.0111788778894844
Ni 7.086219608988542 8.199975551112088 7.355228280268641 -0.197777225585911 0.1153438015803433 0.9361327474869233
Ni 1.4651059865564107 0.6561803275906509 10.629030603426095 -0.17441643937278348 2.94796492114422 -0.3872279335839976
Ni 8.466394222997756 7.434319274434546 1.1284875589323002 -1.054782473512048 0.9733139845229108 1.072827503939217
Ni 4.236405338596861 8.619321275849364 6.334007911445994 0.700910746790993 -2.342424618135437 1.2193032510376742
Ni 7.146543645517046 1.455973077299378 12.998529720297833 0.3676482116798572 -1.2839680382059113 -0.5594944164933139
Ni 6.197048930810245 2.459131830091861 1.3062130363655167 -0.7358882913074423 0.8809375903720182 0.18346466561798083
Ni 7.364253468031873 9.341392499426421 4.633611017877807 -0.25151739542184426 -0.33414519482640515 0.107121413670551
Ni 7.324986641769841 6.84083941319651 5.282202132053024 0.18282188982765932 2.2731542138743888 -3.207697762497321
Ni 8.437796508165222 1.830347420146383 7.039905923614647 -0.19286616143753882 0.010342005355956382 -0.05657558240219934
Ni 3.5768968852020833 1.8315370401214017 9.588740720074764 0.4637971854993045 -0.4102737596598676 0.002524051973434363
Ni 0.21800863257154435 2.2381809956765895 12.196897274816715 -0.47128346657402065 -0.3333795203049742 -1.5380753058421188
Ni 3.207674439884687 5.743475872303536 11.828463538175669 0.07518445575263825 0.5551983602211212 -0.586653236296293
Ni 7.381610679163444 2.3578361575733457 4.686667132054996 -0.8486026256847385 0.7451059532509684 -0.3004452314707987
Ni 4.273395962859449 3.694669262728928 6.261114181653888 1.1487984601488925 0.2823775753358105 -0.8172559930526571
Ni 3.701301159912497 1.3581619609281612 2.4564453497073306 4.002112846396062 0.8587877937478564 -0.47555098360112297
Ni 0.4728898641168158 6.72168070687988 8.024164706142603 -2.4826219884243503 -1.2547549069770647 -0.3360485824967051
Ni 1.3699270214685026 0.634336282065112 5.916055072458994 3.0911401431145342 0.9304886618272684 3.3267354679894834
Ni 1.6544710055719751 5.2212514374431915 4.073309376730449 2.2040331907070105 0.36251294733582085 -0.7589821970124284
Ni 5.2740630706648854 7.858592086627411 4.054733507655965 1.090412821121148 1.4350393750948511 0.711132167408685
Ni 5.2639185160747655 7.193950469875859 1.7080338791243495 1.8669435685403009 -0.9755086781813845 -1.600361051255218
Ni 0.02047832432587191 9.082514332106816 8.691031005918303 -0.07545082204014748 -1.0884628964836287 -0.29958802567682596
Ni 2.290365034108312 6.33877294830656 9.440086932046805 0.9045395460616745 0.07055132785600107 0.9080586149585265
Ni 8.418809423997011 0.9206478353755607 2.186433463471921 1.6045092690956366 -0.09051080169706348 1.5597669318829395
P 3.1528488830832377 7.521948367869973 4.604463455072567 -0.3740291755055365 0.7643151791895676 0.353507658513417
P 7.251014760331084 7.925051564759357 3.135526330171411 0.3705453307219941 -2.2458915215036934 -1.8356712407895805
P 6.681402235284761 3.5262115805971557 6.568389274366633 0.5418437932910861 -0.22596860041846242 -0.454752558798533
P 4.635649295882248 7.233648182113095 12.861350613131274 0.9057957870662788 -0.5621699064429481 0.4891413206910479
P 1.3589862645328983 8.023490275920544 10.586996739836342 -0.2552256975113669 -1.6917167174510799 -0.8221472597066873
P 7.8872272698056145 6.767401455683549 9.302030128882931 -0.5278017133757233 -0.2012880669526469 -1.2120797367060416
P 4.099973724926418 5.845623949686041 6.951053488693098 0.4969618451767312 -0.061695677237584075 0.15565638515646094
P 5.638545770255042 1.0552022849279437 3.9679371482030503 -1.0724963458520433 0.7339969878220005 -0.7660702142074614
