# total energy = -340892.1061347291 ev
CRYSTAL
PRIMVEC
9.05097116482005 0.00000000000000 0.00000000000000
0.00000000000000 9.05097116482005 0.00000000000000
0.00000000000000 0.00000000000000 13.24701118590278
PRIMCOORD
 96 1
Ni 6.186981502059897 1.9937841617034109 11.439191359683965 0.6418746186634429 -0.28109330930674814 -0.5558879300889782
Ni 4.428060994603012 0.45440220388901326 6.232533230415205 0.5798151303285369 -0.9492014077454235 -0.997835366703043
Ni 2.711689103224316 1.5808245451998073 4.765426898814543 0.14506446857322758 -0.189979326808047 0.18475844472873987
Ni 3.471409532148164 4.4587618892503675 4.962900085526373 0.0226025678908643 -0.25958577425227547 -0.7029725144160279
Ni 5.314784652799173 4.327178868500589 2.9505197981913422 0.45422573976078545 0.5060172705107802 -0.33301750897986515
Ni 7.368359530906012 6.096625655578603 2.786203939737508 0.09611606369898285 -0.11096341312446051 -1.5846359272104773
Ni 5.201303574648071 4.431998167118224 11.740547974581078 0.5821052119142943 0.19199018659048872 -1.4377991972281752
Ni 5.721915443786003 7.749821767287918 12.619368324638659 -1.4800167111364897 -0.020295774134558596 -0.9482665546359798
Ni 1.945135190969468 6.150370323154073 0.6193534405280617 0.11739991277842361 1.7989291481735408 -0.8760648356607493
Ni 2.6558174573935016 1.3382313614636459 0.19523035602385438 0.255877729273069 0.23623912910653508 0.3339459343314055
Ni 0.6373304797228072 0.24059744456465706 4.4024186878148575 -0.03153766559696504 -0.755808427270137 0.7420129161479415
Ni 9.00304640630818 2.148944962687965 1.3578583927262609 -0.8366289982626303 1.0691688241407071 -0.3828508875622246
Ni 6.6451416692323955 0.9349200803651369 4.998865930178553 0.7127033685505467 -0.9956270461978144 -1.043801806130828
Ni 0.7757107799183885 7.264626348844297 2.7741362797041 0.30254762252578216 0.949020659193185 -1.8778998104414883
Ni 7.726895656986695 3.7295341826339894 3.909073774813311 -0.8253631955408237 0.8235873345873235 -0.9229399029457331
Ni 7.799873638573259 3.7768888644721272 12.445421327625196 -0.40611654295838445 0.317121406574899 0.7811224805548935
Ni 7.842748089618223 8.479203340416385 7.338049638218788 -0.08110570633307967 1.7912235519991668 -0.4164819453531085
Ni 6.995269442975992 0.5112214864148685 0.1939677455275967 -0.3791677822836825 0.7764731547083402 0.6860741959987926
Ni 1.9185524882633118 6.569828537050602 9.101703803665226 -0.26660540010321826 0.38394566328830004 0.2035735205527139
Ni 0.1507909920412339 4.868960959507673 1.3187400947705215 -0.6947994916869324 -1.4686740324301608 1.1929993230358227
Ni 6.339173584458267 2.042740865461531 6.985652785970446 0.5246551973269417 -0.2953338783861623 2.386198677897594
Ni 3.5928554650426836 4.490567002396242 0.6998817423725333 0.6019181328751634 -1.3045263219732373 0.3402104271838786
Ni 6.310310036984678 5.72537291482235 4.8336884192570215 -0.582246622588165 0.4783794541888536 0.7478580620748088
Ni 4.899408426958646 3.165966403709399 9.475441941140279 1.5257162700561335 -1.2032299996248954 -0.44065468594457013
P 0.24654212251406238 5.574303152865096 12.54139601708912 -0.5679111798020994 0.5029201196426951 -1.4295001904441769
P 4.021029764300475 6.007935187816388 12.548284711345046 0.038435678268378966 1.4309639194738968 0.38561945144629717
P 2.2605072349236077 8.317878827976982 1.3682443822922514 0.30180045994711246 -0.3131565083898801 -0.19517218386289611
P 6.586391814528391 7.908222815997637 5.795276281458528 -1.1810976865022302 -1.0007599965490055 -0.15607496075111832
P 4.601803439665107 1.0161706497192957 12.577918496476208 0.22801802674832342 -1.109719748979876 -0.24566993550213176
P 3.897067661384739 6.201444954196239 7.878580884992304 0.682822007610082 0.9580490879440403 1.2088442604878793
P 4.663829745979472 1.1108619114529716 3.740518441402866 0.3416669571247471 -0.14833156936027356 1.1006609812117172
P 0.3381162297322463 5.382992772510986 3.6227526334386573 -0.002478286337163474 -0.6855874861703611 0.668119668402901
Ni 1.8068997063146761 1.0489623187367978 2.4685809192212225 -0.18147540310209392 -0.05255489127858045 0.07984355179120442
Ni 1.892829627830593 6.640878661750407 4.721168554257909 0.2764123588913111 -0.5760240387172209 1.4167099806580439
Ni 5.6966270299756525 5.602460724577338 9.233551112776947 0.0705623835995946 -0.16718444040071853 -0.26021518030615826
Ni 8.83785712912396 2.30888467651857 10.017866651109616 -0.6425683022963579 0.8730826131039738 0.2521329175186561
Ni 2.265584829822536 5.304131659579852 6.822502692619966 -0.0036005728670647666 0.1047536847693228 0.3357477634268347
Ni 0.41388824615891573 -0.13147169380279655 9.067963592855554 1.9214923503204582 1.4430653307231212 0.6950136645802676
Ni 1.2547995080263468 1.102489763001084 11.441006984526613 1.2919983647095556 -0.5638614352127579 -1.280670598401562
Ni 4.1460327289156345 6.9757012430268235 1.6355820164636732 0.5313066412051882 -0.32202424319315504 -0.7233022271123156
Ni 5.429360898477495 8.085232661698793 8.12204748745885 0.2351214705623241 -0.7627511771365574 -0.4802766712115665
Ni 5.186432828803259 2.7698144409086662 5.208287304102641 -1.4389651925118185 0.6504849860402733 -2.000461984147142
Ni 0.8510718822480681 7.414836268528114 7.013139680709406 0.5049821443780464 1.2563795870646814 -1.2082225677434804
Ni 4.864878971451671 4.390734788964541 7.121315079484836 0.6023246242849628 0.32339849783286234 -0.1402912155543003
Ni 8.17006741568749 7.175039834923448 9.260468701421177 -0.8613254725680456 -2.0135090471390873 0.2738003751897607
Ni 4.5048041802501 0.15412174947939034 10.32111763429968 0.4403520671024867 1.366721307444743 0.45660298174371033
Ni 8.477556063639906 7.1124071135320275 4.790662816991358 -0.5784964115171134 0.37388853616261414 0.8158688828971431
Ni 7.154675149499937 6.121914069388954 7.235676817143363 -0.006056747717041182 -0.49422644852343917 -0.8186081362051773
Ni 2.5113277515708674 5.346490205260755 2.776679602639214 -0.07030373062156924 -0.9722482622625578 0.2369448969243081
Ni 2.149107880171353 5.5441634184383 11.367274151933685 0.09547097391581622 -0.26731013947972676 1.0139844656590795
Ni 1.1310093735652984 3.2641060855081228 3.6545586516816617 0.05393068858018454 0.1530135482169752 -0.010473388727498091
Ni 3.6126861431595336 2.7502281390168983 2.7811833659577645 0.2624124450677932 0.45712003058944495 -0.2103370645287926
Ni 1.303068337965717 3.544161239452244 8.19481277121988 -0.5788478813192611 -0.37060060943996176 0.2577628621109238
Ni 3.4474516111188156 2.436648187380028 7.048032985262615 0.9340673803174622 1.523895414797311 0.08719407861900468
Ni 4.246398949653996 6.989241496090634 5.7910766307756365 0.1979893415967171 0.3049932558527973 0.5695926812695804
Ni 0.5995028502743532 7.391720087829603 11.180159801873945 -0.5653583314732585 0.23826927216268642 0.9050475960463447
P 0.26585961055823987 5.687956199470886 7.965387845627125 -1.1364787622412749 -1.7542852842119205 0.6025202852355365
P 8.52167049775288 1.5208890132555897 8.02564921253812 -0.05687048793479883 0.5831984449784731 -1.7628444866358413
P 1.818620714147319 3.3563807379048756 10.387909277003146 -0.49696441627989246 0.15684192082412987 -0.4363524590247904
P 4.3448373135055975 6.185325174312117 3.774312052943205 -0.600999734825952 -0.7728180744542561 -0.7219089463092148
P 6.927577228628242 3.778608549019001 10.358156019050831 -0.28491191172188995 0.724802722917242 -1.5294274003591337
P 6.255117214001315 7.637073817812063 10.122385457480112 -0.7793247652245223 -0.2616732529089235 0.6387463574471064
P 2.4375170806247644 8.512737189080433 5.714747074516927 -0.179692085949426 0.3353387009138741 0.508150514803699
P 7.06148634900195 4.053558955150296 1.5325204164723694 -0.020078001696797677 -1.4037541918283245 0.932543487473768
Ni 5.354536518745866 2.823712974996225 0.2604190717102077 0.2656643763461876 0.18067964667367595 1.8339971955212673
Ni 1.4160968675518524 1.0694627687297988 6.924530671688885 -0.8698404520175923 -0.16317043414531898 0.18682869699420726
Ni 6.812792810610036 0.9755408395565667 9.186126738459803 -1.238711480360957 -0.1646807001422583 -0.31420963224474274
Ni 2.761541853141071 1.795205851395931 9.318676402944352 -0.604604678568391 -1.2600773476312426 0.506774717502095
Ni 6.36102262917487 1.8544716114639974 2.4827420689161674 1.3901525418844896 1.467914271446001 0.34129851804173483
Ni 4.066284620797166 6.944602105642297 10.545508409655742 0.19561209961379214 -1.1121322150761104 -0.5503487454383038
Ni 7.967099384299831 7.1372248768348125 0.21562400455552316 0.8966632286373912 0.011023347693697144 -0.14976393093142595
Ni 7.91241341570923 3.7527861279019894 7.94675008552753 -0.5853751409148177 0.24372232485745765 0.8222966408003579
Ni 2.9172728653174835 8.025079906443391 12.416291681595407 0.2578268825796398 0.6173709770951238 0.4454690766140779
Ni 9.014170050035068 4.8816685232119434 10.175638657314028 1.319156413181586 -0.7902195577601552 -0.8194812828387499
Ni 8.678849665337186 2.447980003446799 5.711726765394338 0.09485776581184953 -1.3998499716779118 0.7580645702941654
Ni 3.5943488753070745 2.8511555199758183 11.632691169995386 -0.8459659593928399 -0.8470136839310639 -0.10842110631858101
Ni 1.1990998306502194 3.435576736774084 12.355301711494818 -0.4707437920204667 -0.13078121918133606 2.0588157414956862
Ni 3.0153310883745132 8.517045451418918 8.130803397093832 -0.026296471802683748 0.06207902871893179 -0.31263071779339713
Ni 5.653788782815885 8.015847915718066 3.753063992720879 0.5230413158726025 -0.11957018095686504 -0.44350783912264913
Ni 3.21572864391316 8.331446233954688 3.5213473611951325 -0.3395781929165184 0.1391542737363797 0.3154730723381986
Ni 3.2079538595670285 4.686276154801831 9.493457899511611 1.3784277972483938 -0.18110516424686876 -1.0124253487020758
Ni 7.218122458308297 5.824643968033492 11.154989955787617 -0.7186966100195042 1.5636122737709588 1.565148507909827
Ni 0.5456296589064326 9.088713849656417 0.1457278786963841 -0.4367777194876672 -1.0691238298353847 0.5377200009306997
Ni 4.777917239207629 0.404051650550795 1.706969742392943 -0.9636276104730824 -0.8137451516859211 -1.62104377641555
Ni 6.09230834226882 5.474805825371472 0.373363427263259 -0.5206046814066518 1.224123041023821 0.5655768752419679
Ni 7.629208523752938 8.963647528242161 11.096928879999492 1.1222302227420609 -0.39443576418634646 1.0225624371360775
Ni 0.03697593304918625 4.733024421562913 5.892748001575361 0.14620166750146432 1.3089133952973393 -0.3760549476863137
Ni 8.268261403314009 8.939409027102535 2.257754834551479 -0.7154549631537549 0.09947263887604159 0.43114057580654785
P 8.287648583837193 1.6439188661274937 3.5964441751628713 0.4747256594863502 -0.024130574499616506 -0.30221415044576344
P 2.0081842570406576 3.1240875595073607 1.438612063756086 -1.0237736838353595 0.18108253853904943 -0.1731195749382309
P 4.573274778129593 1.1964388450882142 8.299570523232681 2.1890585716750497 -0.6541801755036734 0.9098825555411426
P 8.403464812583522 1.7161003622397155 12.270322141965332 0.10481539124519368 -0.6823602374823151 0.539060059898362
P 6.381278702942789 7.782242346482148 1.5845282026554963 0.0441466126102272 -0.1586738318265461 -0.2971999850606236
P 1.811198917681862 3.1868741474108697 6.062163177259244 -1.4266339246399753 0.6529087649904175 -1.946094722250171
P 6.810747291096386 3.984735369390129 5.995266543288705 0.6510038346582208 0.1467786230508569 0.6285704453553691
P 2.318388196382875 8.436138818974133 10.276064614462966 -0.023294194641250206 0.8298371721517772 0.048548598332664776
