# total energy = -340891.62651313574 ev
CRYSTAL
PRIMVEC
9.07118727344994 0.00000000000000 0.00000000000000

0.00000000000000 9.07118727344994 0.00000000000000

0.00000000000000 0.00000000000000 13.27659950435875

PRIMCOORD
 96 1
Ni 6.398108079002285 1.9563557851225197 11.415830884821577 0.314234057724775 0.5500237579987173 0.14618521244123212
Ni 4.67064556696279 0.3316634771308782 5.93284778149105 -0.3514564324113431 -0.5710052453463907 -0.09067226697559223
Ni 2.809355826381549 1.9392656679549845 4.6716633541953785 -0.4788378818825108 -1.3951178563095652 -0.26047948971113843
Ni 3.358062884421379 4.438096605334906 5.189756061689182 -0.4392259239178436 -0.06453211824511466 -0.4275083783705992
Ni 5.187485543468888 4.502892097334748 2.477864701812339 0.20538306295762693 0.1414376704539177 0.1460196333976453
Ni 7.3245575250943995 6.080126673911637 2.6741062356466667 -0.3978633018106567 -0.7499869354923535 -1.137850445777821
Ni 5.122018783597284 4.7525311761301685 11.394907283835039 -0.46817166041791625 -0.757383999287373 0.6201901917114738
Ni 5.790256878747843 8.031574946620337 12.547900565459015 -0.7498226420003473 -0.6526254294220438 -0.5301879542197127
Ni 1.8686011176709614 6.516305651556948 0.37355059232876076 1.0492067791964834 -0.05636089528823196 0.1892923280433514
Ni 3.0217032535444113 1.8482453730191837 0.3140100392223111 -0.8434573340383732 -1.7225624991873432 0.5349349819863949
Ni 0.422842517847163 9.117450512255676 4.9962894040977135 0.5849125994561023 1.1372156404072995 -0.523486373829821
Ni 8.839173694660941 2.3541545686405256 1.262018069422899 -0.5662546180352829 -0.025226892887588812 0.6329500624803034
Ni 6.905595661241012 0.6758533570200629 4.856076059586784 -0.9265386760405849 0.1499171686798386 -0.7575025271431083
Ni 0.6881058099171912 7.293370782619885 2.481489548319848 -0.07394904068364039 -0.06819696869121158 0.33190859218640256
Ni 7.4939075237147375 3.790214254836124 3.8203278758345673 0.699231302206041 -0.1459216743672003 -0.3546386867940666
Ni 7.602788986751853 3.8541479840276254 12.76205225180692 0.9990291299008279 -0.014071390491401572 -1.4387152812845416
Ni 7.838367724990117 -0.2433064828322261 6.920016127940179 0.7847042843688808 0.4179716425247575 0.7890088252815056
Ni 6.753408349287859 0.775965703143242 0.3976717868936191 0.6629561219240905 0.2426429757503499 0.2203646239681237
Ni 1.7243148099921843 6.355618636957309 9.488812227051246 1.2513898471595737 0.5634264045578684 -0.7031414358937245
Ni 0.21047694830938807 4.8858050622370826 1.3570142658207653 -0.578547576470023 -0.9272326167838161 0.7099787705305322
Ni 6.294496975877238 2.189603228184534 7.049449273278126 0.777070679083023 -0.18213154862885408 -0.5218894616563464
Ni 3.453391993398889 4.256935920646558 0.32341413925818363 -0.6450854122912568 -0.12081845154166936 1.174213043567255
Ni 6.116583776298221 5.771615588525292 4.896290447817738 -0.9148897789477469 -0.7427222835101402 -0.21355402880419347
Ni 5.417512714983941 2.9539777679962063 9.291455844278548 -0.28558579786046295 -0.5660296465086704 -0.0028428687654338133
P 0.20597945356858982 5.491869238562649 12.551285932617679 0.5090020641707169 -0.6314328545048287 -1.3657777125845512
P 3.966240647424246 6.057376135771415 12.788724264284472 -0.14305952232805685 2.214253068662806 -1.4562666599047436
P 2.2883431036455852 8.416211437139355 1.4786815675774354 0.6740404047627101 0.13493149390428374 -1.8394633608421609
P 6.3180367073261525 7.7587861974366215 5.775665873724498 -0.5957942793656126 0.5198264084797305 0.5690617484667747
P 4.759506919284008 1.1513423255069417 12.643279565967534 1.1533914788362134 -1.0608003975713538 0.13086683691660686
P 3.961904619820169 6.210234715596328 8.455707387323777 -0.580357375985252 0.7312842168765277 0.033901280733135156
P 4.674283113132737 1.1254894412566891 3.8431636831368783 1.3026990389565112 -1.3149045798837675 0.3618025515323575
P 0.1233273290611601 5.571015349118246 3.7639694952877627 0.9304282409029783 -0.4332691921137764 -0.7618176095786945
Ni 1.0012595290436344 0.7062236926235173 2.687476258838403 1.1820392244798934 0.6355695023810215 -0.12509239632667488
Ni 2.162008675942685 6.788196353182498 4.620721379678688 -0.9364495073963937 -1.070981966090046 -1.3657879969971962
Ni 5.883671967172088 5.898349148476266 9.51010774672349 0.846388134531923 -0.2645809134740218 -0.8281824101571735
Ni 8.656579762354509 2.1753796062531667 10.2564650940096 -0.2745745343516239 1.2858341448803725 -1.139944095082056
Ni 2.458772573573214 5.033765200835633 7.313733784221627 -1.4259086164381765 -0.0015560316332102237 -0.29036085065160316
Ni 0.5954490727642867 8.983323934527874 8.771424624025348 -0.31878902408530907 -0.29042230001715785 1.0826097801369614
Ni 1.1730587482771535 0.9906734532822152 11.482095002070585 2.027731361386056 -0.8759475933565947 -0.7416815009504516
Ni 4.114101002960777 6.791942753601919 1.6324508946229541 0.2934101790008882 0.7099823700749579 0.14623303496003204
Ni 5.451275674696025 7.930004860672942 8.037627242891134 0.9413325465203078 0.10526636273968323 0.1083498867610134
Ni 5.269307654324072 3.043800666187785 4.7076297053405805 0.21793416014976014 0.15632152954428563 0.28616198207890714
Ni 1.0151293746642083 7.440324019410793 6.5754878927588765 -1.5908068319078796 -1.0380497341383994 1.848500531343765
Ni 5.183693787112184 4.704553665674173 7.498995552758936 0.0023774990932410667 -0.9527379601437721 -1.2872230548080994
Ni 8.286293890391244 6.890337923939634 9.482373498194816 0.22435986117044585 0.7552407276921252 -1.4630829114956287
Ni 4.641064424668028 0.36344801085875866 10.582392859311906 -0.1355722128120762 -0.42455315239701724 -0.9714743602110109
Ni 8.159406120253514 7.310188764163732 4.588154002473335 -0.04310377316800964 -0.20223988934295492 0.7402743361902798
Ni 7.255816066551097 6.319515310881518 7.080265004185681 0.5894500823151396 -0.22147122676874115 0.1208305357265274
Ni 2.29169944300439 5.479378213435421 2.507564676662778 0.12218087910683473 -1.8552797590491272 0.7560632235934205
Ni 2.321035663237834 4.90135307753706 11.55901957881815 -0.44543076717697483 1.0936092165712583 -0.5246001757192901
Ni 1.0329996139529793 3.3407550587548944 3.6588181045326484 -0.4512813124204808 0.43258347890066146 -0.35183541301731663
Ni 3.8869493978693495 2.5407942505524357 2.5181326100492845 -1.4226178615020468 0.9913911537395957 -0.40494129170336063
Ni 1.3368299666119103 3.060573291794352 8.324401948894863 -1.9707287187487672 1.1939801988918533 -0.3220538108795099
Ni 3.6514976562554717 2.623078991967888 6.795003372249651 0.5591149216667081 0.30359946082906425 1.503504252735469
Ni 3.809381673931136 6.681782253133475 6.225610378334636 1.5329827218105598 0.8241717463358839 0.3356060956426478
Ni 1.0879075116255328 7.39604755343694 11.664860379819938 0.2145025087603919 0.2587064569711157 -1.2454621688212293
P 0.3541373440536853 5.769284293349042 7.879914670658392 -0.5906546441462021 -0.3195171605005852 0.6725432513918934
P 8.384943053977734 1.7588669630129603 7.923726691834486 0.6073645007017152 -0.6188617027080374 0.5060239553789995
P 1.695296081319708 3.0456874731786803 10.520297859817783 0.8588034774771403 -0.03449520556339221 -0.31516428284852815
P 4.116359728637379 5.825317018266167 3.774949260584782 -0.028620491950170062 1.5319697071650131 0.13567788515200505
P 6.9148301300714525 3.983938534151349 10.420271689975436 1.1074556355360474 0.3940105037234698 0.23770337235688738
P 6.423543688629551 7.865971348419422 10.260116246960733 -0.8435056707778054 0.46224963850652645 0.07999627531898482
P 2.5011168766188905 8.616875174858595 5.726596192298773 1.017209143243964 0.8588710974902821 -1.0100684184341249
P 7.046942904183971 3.8490318343023127 1.5217107452760572 0.2151684244791649 0.7168826967392169 1.068078933510638
Ni 5.358377643956784 3.048136693791862 0.36626915015764583 0.830504373422131 -0.6953983016131959 -0.14814850681519004
Ni 1.6172838691961395 1.0722959980133628 7.008624394131369 -1.0340498689503868 0.8394386997972834 -1.515263707264242
Ni 6.816108396985314 0.8750774972899991 9.246740332831815 -0.3008586648591335 -1.2425928176932342 -0.5014669321359364
Ni 2.831353455962904 1.5250026792039226 9.078632179774234 0.8823542682138868 -0.04843032758724562 1.66050481062465
Ni 6.207132369486298 1.8800761698030908 2.5260454068673535 2.0629359343116476 0.41364601856621014 0.29322608801454014
Ni 4.0293761121196 6.973774706162028 10.668052989579822 -0.5161756991010207 0.03420081425142497 0.19502923052712862
Ni 8.266092355926224 7.0216070776187225 13.597362570407558 -0.6179810998752969 1.1691991352924316 1.154443831360128
Ni 7.669289861993467 4.274343529375061 8.262200816507502 0.35673207898798565 -0.7665229854741638 -0.10061523712091704
Ni 3.1997071649979913 8.63548018033132 12.552586740898903 -0.4930841073888798 -0.786006291009756 0.35255403635089605
Ni 9.053534925439086 4.859525832176388 10.311829272411204 0.16697360994149307 -1.4476804608976293 0.8089888679478583
Ni 8.541829241033213 2.308907485608856 5.710305246746133 0.24147106692943573 0.32218442292010324 0.19777953957875619
Ni 3.7926453330743937 2.7285859732712865 11.50527551449623 -0.5369923787360559 0.15147988518126815 -1.4257666915436735
Ni 1.228519988384537 3.056327976064837 12.740968997921154 -1.2915592202896078 0.9973255169461598 -0.3807636660158927
Ni 3.1636310524845688 8.580753706407892 7.894598201793789 -0.2930959901945791 -1.3280650285251256 0.17253747718251575
Ni 5.627102501160109 7.811653077931523 3.6371379665122614 -1.1317975547155217 0.4329244071798479 0.1290585800632745
Ni 3.0777722632113624 8.73095442830813 3.3839928737650093 0.5076632907546353 -0.010002105518034387 1.743610578106894
Ni 3.5011336529810215 4.224089150867553 9.360746109662953 -0.8410466677143515 0.1699334639007654 0.5004981404647638
Ni 7.291447690879164 6.210597563094578 11.599207660605481 -0.103782321994989 -0.679856497223855 -0.6750367072377085
Ni 0.5024648657442122 9.106111527935388 13.614622318780524 0.015095203770225616 -0.20094868133535718 0.0413281693248256
Ni 4.5815030078304275 0.3356656850365664 1.5877752964010268 -0.22190959985774042 -1.091040684513134 -0.44298127719521774
Ni 5.967671163016767 5.619391991822315 0.27365504758578557 0.34564882459063057 0.43539780842100495 1.2149606577982626
Ni 8.23085986384623 -0.47347879334657844 11.177715842570551 -0.5548923989449283 1.227216078126848 0.62170997079011
Ni -0.004551014746790043 4.808727182421506 5.827351685612599 0.07536006209855409 0.07338134110562847 0.42041341919703085
Ni 7.880512461911757 -0.42734636241918067 2.4784624930657047 -0.6781654826746772 0.7384745639773798 -0.09622019337701493
P 8.330869705551153 1.5342371480343637 3.441281051026077 -0.5934185800445845 0.9674102174439663 0.7884172144440937
P 2.0220402534930733 3.2241086592552466 1.5707151141520972 -2.047273288073726 0.894885053691046 1.5416064589238287
P 4.790203817635886 1.0649029802365364 8.135130715501901 -0.14833568312533166 0.11592409956384551 0.4214179492021452
P 8.339886465882646 1.5778695596988246 12.370617813408206 0.46434945845834874 -0.27032012995064414 0.9880736593305885
P 6.1820868209196504 7.736189869483155 1.5077039247248942 0.5502723836744137 -0.33762132630046365 -1.2712562470661979
P 1.5724994167247373 3.1406355922830285 5.968229948164071 0.4601865853299107 0.48440843399175293 0.35752989229893267
P 6.836990270509553 4.047690839593725 6.050000353250756 0.22266987506253264 0.32874819218054996 -0.027092742451733987
P 2.4476603689393337 8.542818000465942 10.043030938589483 -0.718342054893563 -0.03183539934304195 1.5348362300795308
