# total energy = -340870.11967412295 ev
CRYSTAL
PRIMVEC
9.21700369856029 0.00000000000000 0.00000000000000
0.00000000000000 9.21700369856029 0.00000000000000
0.00000000000000 0.00000000000000 13.49001658185316
PRIMCOORD
 96 1
Ni 4.440568102096597 8.934051023144036 0.48196173843389534 -1.770949118020847 0.249249425323274 -0.642150755142965
Ni 5.6660885814836 7.09502833525574 0.932923927908138 0.8650029214196329 0.3778652614221751 1.4685873862536256
Ni 5.183006977085146 8.285588719140122 2.9045083298874803 -1.224583268489691 0.986043259164121 -0.20149118410238845
Ni 3.0691424521832364 6.700973770788688 3.3837418351896127 0.6759389073370036 1.185730300178235 1.8577289919205682
Ni 6.022123005178621 1.0258433085542138 6.4663318959513685 0.6314487953444287 1.245723392902416 1.5147165765115205
Ni 5.851101499233164 0.8180007940341673 11.946556830232492 -0.16936756409496637 -2.9514564792372457 0.9384459690011322
Ni 0.4247296748921157 1.1239675312594328 9.960057472665925 0.22673016117483533 0.05544172590807226 0.033016307025020564
Ni 7.169050092962448 3.802299804321498 7.09736761082615 2.6931230893348332 1.435612473989502 -1.5373805937679395
Ni 3.9127287271311193 3.3221399901351014 11.927940325909741 -0.7858227142440402 -1.019238257858851 -0.01947096424041808
Ni 4.6623107800828985 2.137358667648068 0.35967237510416555 0.17972731006273562 0.34194977847248853 1.2732779054819168
Ni 8.933451917895507 5.112174302701376 3.7316487049130522 -2.117481373657695 0.12117866309456549 0.4435811155627457
Ni 3.49468230171144 7.49816164848896 9.330384030956262 -0.6525999755007471 -1.4284570938916432 -0.5851581398080051
Ni 7.152007852892755 3.3550354767812527 0.8671689009307473 -1.3952430690335196 -2.4616500141583733 0.14533032064010457
Ni 8.188192639736961 5.838031787811409 11.209407593738263 -0.27135988406906814 0.08902187585636281 -0.2763473099813305
Ni 1.706178011779869 8.362292624959474 5.554716759182832 1.0522936456519232 -0.3942645287158048 0.0654353467856744
Ni 4.469527928110105 8.712465034222735 7.3849473471238705 -0.6942703586563398 -0.8578387995710257 0.07574341357990182
Ni 7.87279598589985 1.6321470370693374 8.437790024978328 -0.769370739335604 -0.9452010283367785 -1.6697810937202535
Ni 8.794772878366791 8.12407916114054 1.1868864861603259 -0.5554475001174498 0.38252255768852833 0.03524622479680381
Ni 1.7272296485127943 9.086140803235978 1.117399494334791 1.3802558515960681 -0.5250436910146119 -0.49903852520010183
Ni 7.31203347327675 3.1476344567443526 10.026144311780966 -0.0933914656789682 1.0501303194520173 0.5754522253741509
Ni 5.609523829018642 2.9425192536556866 8.21125173990265 -3.2739880010841222 -1.996517140566781 2.395766524091687
Ni 8.789546837198854 3.315964597573341 5.329514017961181 1.0370279777421043 -0.16986635810825582 0.05022778580730059
Ni 8.789159723038265 4.105576098130678 12.907491232760316 0.6924860130624074 1.4707913358834799 -0.9624590440862778
Ni 7.341481800492904 7.170847408708035 3.162895971675341 0.27409296672951505 0.13839271298000683 -1.3859068792342584
P 2.920204887398939 0.984376008352187 12.962665139348301 -0.5470474489792126 -0.10405537315071757 0.5594957020448944
P 0.8919405204068459 7.297313918170584 7.397034525938038 1.6363513533068978 -0.393926942870728 -0.3143788108327553
P 5.216178973846003 7.77317860857522 12.040784103721126 -0.577535847376057 0.7444168976037437 -0.05528977371124027
P 4.379385630716056 1.2750157899193173 2.4700897405760776 0.8101134684706048 -0.09194856258485455 -0.3461206220207265
P 8.382385693294754 6.20529252216348 0.05687075699189759 -0.009275254654338864 0.7743671641089309 -0.7569618241482898
P 0.2048884647946077 3.3607500191518365 9.689919072703457 -0.5797737355676402 -0.7423687568254634 -0.9671543926794184
P 8.287966706126591 2.0802408949537003 12.711534966371083 0.6101258654969363 -1.588848165519612 0.025837529888394214
P 5.088099488714336 5.959309124121316 2.648076536310971 0.059674275932181095 -0.7272391002728765 0.7720817105088638
Ni 2.5783277815768475 0.188453625276885 3.245563278968513 0.8905386037968921 0.10766828731295651 0.9343309183914942
Ni 5.406814263927917 6.305896118897226 5.790765148803621 -1.1794069290633686 0.9963148162934583 0.9103936908496062
Ni 2.8585892168386917 3.906654721611418 6.92503268183584 0.7352411446417467 0.26119862726535015 -1.8663897529193598
Ni 4.8997407985768335 3.583829162692548 2.60794385826259 0.734170023064755 0.29116123506571145 -1.2709878238961594
Ni 5.867120651878445 7.101618492989559 9.956212138670752 0.7727841358925273 -0.9710696685734244 0.41462123799528594
Ni 4.892864913724486 9.229999798913514 10.141038872943083 -1.4283599061921466 -0.7959173794758808 -1.8158629478144017
Ni 0.06364064630027476 1.485117392076509 1.1022476617493024 -1.7880317845347462 0.08415169224825507 0.5996175097664448
Ni 0.5361051839944128 0.20455204415504916 7.565700165706202 1.470471747760532 0.9915788442703697 1.9915582538996088
Ni 6.477553598106508 4.520885073414771 4.63110937873951 1.5065708074759343 -0.4841125000178888 -1.2423809587927441
Ni 2.6378235412576845 8.128374284922302 11.467296595619272 1.193024005626171 0.3711857925194704 0.031373629215275006
Ni 3.0792627223814644 6.2166663048817075 6.641418100582999 -1.1515359136847134 1.441301811064795 0.4558846155204472
Ni 7.043127386725485 1.9702451713237845 4.480290623474832 -0.7056058382738171 -0.6887800249657298 -0.580925075563264
Ni 6.367576308484239 2.798595738951385 12.129103277758883 0.4751699461126204 3.153458284427466 0.611415016622005
Ni 0.6524016514380883 0.28326433510754767 12.530768322283016 -1.1514232993662494 0.9669224791742702 -1.8373080050620552
Ni 6.290927704687826 5.966083621931604 12.722825796054899 0.8866958330120343 -1.4221023553182088 -1.1849602547814302
Ni 3.2322557688481113 2.4413354537478353 3.973835619080308 -1.0732468508648225 1.9361119000058464 0.8987975013715747
Ni 8.631521306644563 7.097185114150443 8.969809311177773 0.945400031721462 0.45334179449393536 1.0082673606696442
Ni 1.2950812072431253 7.308107029647929 13.028334448190135 -0.8386838239091298 -2.261677837803673 0.17420740868577095
Ni 0.38901101997481957 4.0158301319010405 1.8163230508717259 -1.1541826072789414 -1.9661837796905621 -1.7216528428888802
Ni 7.438278774647536 8.151693304595812 12.621610190267269 0.41684678489169497 -0.27111588637906214 -0.7310034524113153
Ni 0.8271173325160133 6.250151679772563 1.7645345497881186 -0.24054032758505028 0.5454772762786154 0.5961951143484571
Ni 1.4983345755594402 2.7548334047973007 13.189000650339864 0.3553956195647492 0.35436203609391226 -1.125781430428429
Ni 6.843450215892696 6.738431674327484 7.690321431003283 -0.4739602420752353 0.1757403003905296 -1.9858048963555994
Ni 2.9699582740383126 2.8134719831225503 8.936569108588623 0.4404682809653769 -0.4146081253691634 1.233308564177831
P 2.8152139968451957 0.44287058181757244 8.780854280892889 -0.36972849124765356 0.0252294639907501 -0.7688704026604178
P 6.415394124320672 8.763490367389755 8.325107544733855 0.4676386707325817 0.7594683926202276 0.8144951424780683
P 1.7752686724409925 3.9461127149799173 4.993019642372027 -0.09607878270314421 -0.5523444357120939 -0.23221818087260004
P 5.329741677955622 3.3590725244559554 6.015724561124331 -1.3907652357678242 -0.8980117722454858 0.017955041816523916
P 3.8531960994349888 7.8396239891389925 5.338094126820498 0.5012882404662269 0.27322496230226495 -0.7860769963466914
P 4.826115372034537 2.1275702095874873 10.351078721174657 0.5283861251242835 1.2395301196075104 -0.8010122775002849
P 3.417065912513558 5.182500041874852 9.84358403874884 -0.5033561787388493 0.32075051868705406 0.32699572826581746
P 7.490594488349848 0.08172348610164326 2.4371472472104267 0.3217743319658781 0.03718020859472306 2.973202869775402
Ni 4.11476545094273 4.86333363347392 4.548374787318426 -1.106011189780037 -0.9957692282026335 0.2800039328973113
Ni 9.096362460476264 5.501408374168725 7.0430969706128685 -0.7234945456287799 -0.5077977594499706 -1.2565456803289006
Ni 4.841443249393055 5.250327973012153 8.088816747912507 -1.6129962235207254 0.5905523142403829 0.04234504062511417
Ni 7.488705002566026 5.282578269390658 1.7915689437028919 -0.9923203504220844 1.9939933457036625 0.253294284816609
Ni 7.513812120981302 -0.0199815425890141 10.244480385154091 -0.07669420752894533 -0.35337601803155916 -0.09347708341423902
Ni 6.543584213498221 0.560074924137865 0.7330568867965853 0.944148161592232 0.9463847642322347 -0.6536466715977066
Ni 0.2624385149682989 0.4095114798790979 4.073108280461938 -2.6018512411020285 -1.9642747355933072 0.3475072179556079
Ni 3.2000331234810773 6.8841985897964895 1.2414649743013135 0.015538204844915174 -0.31112353712025126 -2.2171866973698333
Ni 5.444262950462887 4.756923324331355 10.989426285182637 -0.05310073647972145 0.2094307506644393 -2.2108815810874116
Ni 1.2939198647613614 6.108716756100613 10.390617824176804 0.6539001823694094 1.6130707855124027 0.9489592098276302
Ni 1.490306565229152 4.744286812089306 8.596863528867354 0.34046625194842656 0.39119514576186176 0.019323640029276397
Ni 0.57412440306606 2.7951024945022698 7.531260830919612 0.032402584700421615 0.2930365977115534 0.4876788772129085
Ni 3.1590819754931676 5.497832176685199 12.224963804325045 -0.1103841435822228 1.1833018932424009 0.5190000559236934
Ni 1.3178840747025196 6.08942556709798 4.719603675849913 0.9740850583609805 0.7612956756369534 1.3205244971737065
Ni 4.3866025447098735 0.7732402583659957 4.797400718322736 0.7509811810848228 -1.9366556883244583 0.2593230075091921
Ni 2.4767010974186903 2.2003384547741964 1.6464029768831796 1.1167794840401348 -0.7627876868014476 -0.13936227598212775
Ni 6.460419187998579 8.64273840029779 4.843928153623876 0.2795745586693766 -0.242929139532201 0.2356727150801038
Ni 0.8910695135455231 2.2450870083373973 3.2283366988223494 -0.5304831168626283 1.9703343115238259 1.1250468662552495
Ni 1.7269992234172062 3.801396537946793 11.011320356065033 0.2629181810596182 0.3142196595470717 0.16458145556023268
Ni 3.4109826899900333 1.6916520137539979 6.843849312158256 0.9360350455667944 -0.9231808153119455 0.7873995718128568
Ni 2.501623875757495 4.373035115081649 2.641871649336976 0.4184917766942857 0.8819490623556681 0.5126458315708913
Ni 8.513331666615535 8.233503430533396 6.119341196407987 -1.3416859617426697 -2.092489222488732 -0.9718973066810422
Ni 2.576604201861849 1.2687758783307925 10.856927246717593 0.9842239465671951 0.47222269055883836 -0.021549186925685467
Ni 1.439907988322132 1.5242712243188319 5.716462272480297 -0.027802109813932763 1.1600760899452407 -0.783210987652806
P 1.925929816940289 4.906828674517123 0.5283730394868599 1.217607094282174 -0.4305618204849424 -1.2363766615801932
P 6.743657715495421 4.969900631681486 8.92156843486584 1.0222307648282718 0.12927095318439671 1.6551060082065816
P 0.028191127894625457 7.859910614554566 10.955539048925075 0.3659865077067181 0.505163150040601 0.8455196158840407
P 8.270389879835133 1.1686699998035162 6.190757307133786 0.38159850321236216 1.0372969151327749 -0.1845249885616951
P 7.34162927255408 6.528477544231468 5.117154249867226 1.9714190599475723 -0.015592969342250563 1.5282534346556906
P 5.063370267455826 4.439130249500128 0.1331184211219862 -0.021358411071118057 -1.4002250956291435 -0.13705779621866718
P 7.78974156444609 3.3435418730133204 2.998588131314938 0.2856667876100435 -0.28839729916732915 0.0655970691745193
P 1.1041325390312127 7.9009815835921815 3.0750358044279964 -0.18971244629990552 -0.5375852751250483 0.45566915707553135
